MODEL 1
REMARK VINA RESULT:     -10.7      0.000      0.000
REMARK  Name = *****
REMARK                            x       y       z     vdW  Elec       q    Type
REMARK                         _______ _______ _______ _____ _____    ______ ____
ROOT
ATOM      1  C   LIG    1       26.151 -20.981   7.849  0.00  0.00    +0.201 C 
ATOM      2  O   LIG    1       26.214 -20.642   9.027  0.00  0.00    -0.286 OA
ENDROOT
BRANCH   1   3
ATOM      3  C   LIG    1       27.126 -20.465   6.874  0.00  0.00    +0.049 A 
ATOM      4  C   LIG    1       28.261 -19.627   7.168  0.00  0.00    +0.030 A 
ATOM      5  C   LIG    1       28.850 -19.283   5.960  0.00  0.00    +0.139 A 
ATOM      6  N   LIG    1       29.908 -18.485   5.754  0.00  0.00    -0.237 NA
ATOM      7  C   LIG    1       30.454 -18.035   6.912  0.00  0.00    +0.121 A 
ATOM      8  C   LIG    1       30.031 -18.324   8.217  0.00  0.00    +0.001 A 
ATOM      9  N   LIG    1       28.176 -19.924   4.966  0.00  0.00    -0.345 N 
ATOM     10  H   LIG    1       28.411 -19.838   3.988  0.00  0.00    +0.167 HD
ATOM     11  C   LIG    1       28.872 -19.115   8.332  0.00  0.00    +0.022 A 
ATOM     12  C   LIG    1       27.199 -20.718   5.509  0.00  0.00    +0.097 A 
BRANCH   8  13
ATOM     13  C   LIG    1       30.794 -17.875   9.405  0.00  0.00    -0.016 A 
ATOM     14  C   LIG    1       30.191 -17.821  10.679  0.00  0.00    +0.010 A 
ATOM     15  C   LIG    1       30.878 -17.335  11.797  0.00  0.00    +0.020 A 
ATOM     16  C   LIG    1       32.189 -16.893  11.661  0.00  0.00    +0.041 A 
ATOM     17 CL   LIG    1       33.025 -16.266  13.026  0.00  0.00    -0.084 Cl
ATOM     18  C   LIG    1       32.819 -16.949  10.423  0.00  0.00    +0.020 A 
ATOM     19  C   LIG    1       32.128 -17.438   9.308  0.00  0.00    +0.010 A 
ENDBRANCH   8  13
ENDBRANCH   1   3
BRANCH   1  23
ATOM     20  C   LIG    1       24.391 -24.170   6.788  0.00  0.00    +0.084 A 
ATOM     21  C   LIG    1       25.383 -23.259   7.190  0.00  0.00    +0.159 A 
ATOM     22  F   LIG    1       26.637 -23.720   7.314  0.00  0.00    -0.203 F 
ATOM     23  C   LIG    1       25.070 -21.921   7.450  0.00  0.00    +0.094 A 
ATOM     24  C   LIG    1       23.726 -21.550   7.376  0.00  0.00    +0.137 A 
ATOM     25  F   LIG    1       23.303 -20.352   7.803  0.00  0.00    -0.205 F 
ATOM     26  C   LIG    1       22.749 -22.424   6.893  0.00  0.00    +0.041 A 
ATOM     27  C   LIG    1       23.082 -23.738   6.588  0.00  0.00    +0.030 A 
BRANCH  20  28
ATOM     28  N   LIG    1       24.659 -25.582   6.760  0.00  0.00    -0.218 N 
ATOM     29  H   LIG    1       23.809 -26.157   6.796  0.00  0.00    +0.173 HD
BRANCH  28  30
ATOM     30  S   LIG    1       25.526 -26.110   5.378  0.00  0.00    +0.043 S 
ATOM     31  O   LIG    1       25.142 -25.210   4.308  0.00  0.00    -0.155 OA
ATOM     32  O   LIG    1       26.919 -26.325   5.746  0.00  0.00    -0.155 OA
BRANCH  30  33
ATOM     33  C   LIG    1       24.765 -27.698   5.058  0.00  0.00    +0.188 C 
BRANCH  33  35
ATOM     34  C   LIG    1       24.606 -29.919   6.249  0.00  0.00    +0.005 C 
ATOM     35  C   LIG    1       24.401 -28.416   6.356  0.00  0.00    +0.021 C 
ENDBRANCH  33  35
ENDBRANCH  30  33
ENDBRANCH  28  30
ENDBRANCH  20  28
ENDBRANCH   1  23
TORSDOF 7
ENDMDL
MODEL 2
REMARK VINA RESULT:     -10.4      4.418      9.644
REMARK  Name = *****
REMARK                            x       y       z     vdW  Elec       q    Type
REMARK                         _______ _______ _______ _____ _____    ______ ____
ROOT
ATOM      1  C   LIG    1       27.382 -21.469   7.970  0.00  0.00    +0.201 C 
ATOM      2  O   LIG    1       27.986 -22.174   8.775  0.00  0.00    -0.286 OA
ENDROOT
BRANCH   1   3
ATOM      3  C   LIG    1       25.927 -21.612   7.805  0.00  0.00    +0.049 A 
ATOM      4  C   LIG    1       25.238 -22.768   7.288  0.00  0.00    +0.030 A 
ATOM      5  C   LIG    1       23.892 -22.446   7.199  0.00  0.00    +0.139 A 
ATOM      6  N   LIG    1       22.889 -23.206   6.733  0.00  0.00    -0.237 NA
ATOM      7  C   LIG    1       23.303 -24.447   6.371  0.00  0.00    +0.121 A 
ATOM      8  C   LIG    1       24.603 -24.963   6.445  0.00  0.00    +0.001 A 
ATOM      9  N   LIG    1       23.725 -21.190   7.698  0.00  0.00    -0.345 N 
ATOM     10  H   LIG    1       22.831 -20.723   7.745  0.00  0.00    +0.167 HD
ATOM     11  C   LIG    1       25.600 -24.070   6.883  0.00  0.00    +0.022 A 
ATOM     12  C   LIG    1       24.926 -20.715   8.159  0.00  0.00    +0.097 A 
BRANCH   8  13
ATOM     13  C   LIG    1       24.902 -26.382   6.141  0.00  0.00    -0.016 A 
ATOM     14  C   LIG    1       25.714 -26.735   5.043  0.00  0.00    +0.010 A 
ATOM     15  C   LIG    1       25.949 -28.072   4.704  0.00  0.00    +0.020 A 
ATOM     16  C   LIG    1       25.375 -29.086   5.460  0.00  0.00    +0.041 A 
ATOM     17 CL   LIG    1       25.635 -30.729   5.027  0.00  0.00    -0.084 Cl
ATOM     18  C   LIG    1       24.584 -28.773   6.560  0.00  0.00    +0.020 A 
ATOM     19  C   LIG    1       24.353 -27.434   6.897  0.00  0.00    +0.010 A 
ENDBRANCH   8  13
ENDBRANCH   1   3
BRANCH   1  23
ATOM     20  C   LIG    1       30.198 -19.154   6.919  0.00  0.00    +0.084 A 
ATOM     21  C   LIG    1       29.439 -20.105   7.624  0.00  0.00    +0.159 A 
ATOM     22  F   LIG    1       29.981 -20.637   8.730  0.00  0.00    -0.203 F 
ATOM     23  C   LIG    1       28.166 -20.480   7.184  0.00  0.00    +0.094 A 
ATOM     24  C   LIG    1       27.717 -19.936   5.978  0.00  0.00    +0.137 A 
ATOM     25  F   LIG    1       26.608 -20.386   5.375  0.00  0.00    -0.205 F 
ATOM     26  C   LIG    1       28.425 -18.928   5.320  0.00  0.00    +0.041 A 
ATOM     27  C   LIG    1       29.667 -18.527   5.795  0.00  0.00    +0.030 A 
BRANCH  20  28
ATOM     28  N   LIG    1       31.588 -18.954   7.225  0.00  0.00    -0.218 N 
ATOM     29  H   LIG    1       32.102 -18.472   6.477  0.00  0.00    +0.173 HD
BRANCH  28  30
ATOM     30  S   LIG    1       31.874 -18.046   8.651  0.00  0.00    +0.043 S 
ATOM     31  O   LIG    1       32.326 -19.005   9.640  0.00  0.00    -0.155 OA
ATOM     32  O   LIG    1       32.651 -16.861   8.312  0.00  0.00    -0.155 OA
BRANCH  30  33
ATOM     33  C   LIG    1       30.217 -17.538   9.097  0.00  0.00    +0.188 C 
BRANCH  33  35
ATOM     34  C   LIG    1       30.893 -16.481  11.288  0.00  0.00    +0.005 C 
ATOM     35  C   LIG    1       30.023 -17.529  10.612  0.00  0.00    +0.021 C 
ENDBRANCH  33  35
ENDBRANCH  30  33
ENDBRANCH  28  30
ENDBRANCH  20  28
ENDBRANCH   1  23
TORSDOF 7
ENDMDL
MODEL 3
REMARK VINA RESULT:     -10.2      3.586      6.122
REMARK  Name = *****
REMARK                            x       y       z     vdW  Elec       q    Type
REMARK                         _______ _______ _______ _____ _____    ______ ____
ROOT
ATOM      1  C   LIG    1       25.852 -26.558   6.264  0.00  0.00    +0.201 C 
ATOM      2  O   LIG    1       26.935 -26.449   5.695  0.00  0.00    -0.286 OA
ENDROOT
BRANCH   1   3
ATOM      3  C   LIG    1       24.968 -25.390   6.407  0.00  0.00    +0.049 A 
ATOM      4  C   LIG    1       25.379 -24.044   6.718  0.00  0.00    +0.030 A 
ATOM      5  C   LIG    1       24.230 -23.281   6.866  0.00  0.00    +0.139 A 
ATOM      6  N   LIG    1       24.137 -21.984   7.196  0.00  0.00    -0.237 NA
ATOM      7  C   LIG    1       25.351 -21.394   7.336  0.00  0.00    +0.121 A 
ATOM      8  C   LIG    1       26.608 -21.990   7.168  0.00  0.00    +0.001 A 
ATOM      9  N   LIG    1       23.159 -24.075   6.593  0.00  0.00    -0.345 N 
ATOM     10  H   LIG    1       22.202 -23.753   6.631  0.00  0.00    +0.167 HD
ATOM     11  C   LIG    1       26.607 -23.370   6.889  0.00  0.00    +0.022 A 
ATOM     12  C   LIG    1       23.592 -25.320   6.217  0.00  0.00    +0.097 A 
BRANCH   8  13
ATOM     13  C   LIG    1       27.862 -21.203   7.220  0.00  0.00    -0.016 A 
ATOM     14  C   LIG    1       28.919 -21.576   8.076  0.00  0.00    +0.010 A 
ATOM     15  C   LIG    1       30.082 -20.804   8.185  0.00  0.00    +0.020 A 
ATOM     16  C   LIG    1       30.209 -19.640   7.438  0.00  0.00    +0.041 A 
ATOM     17 CL   LIG    1       31.621 -18.673   7.594  0.00  0.00    -0.084 Cl
ATOM     18  C   LIG    1       29.192 -19.253   6.572  0.00  0.00    +0.020 A 
ATOM     19  C   LIG    1       28.032 -20.029   6.463  0.00  0.00    +0.010 A 
ENDBRANCH   8  13
ENDBRANCH   1   3
BRANCH   1  23
ATOM     20  C   LIG    1       24.474 -30.089   6.412  0.00  0.00    +0.084 A 
ATOM     21  C   LIG    1       24.867 -28.824   5.940  0.00  0.00    +0.159 A 
ATOM     22  F   LIG    1       24.640 -28.543   4.648  0.00  0.00    -0.203 F 
ATOM     23  C   LIG    1       25.473 -27.895   6.792  0.00  0.00    +0.094 A 
ATOM     24  C   LIG    1       25.745 -28.304   8.099  0.00  0.00    +0.137 A 
ATOM     25  F   LIG    1       26.501 -27.565   8.923  0.00  0.00    -0.205 F 
ATOM     26  C   LIG    1       25.280 -29.523   8.598  0.00  0.00    +0.041 A 
ATOM     27  C   LIG    1       24.633 -30.418   7.755  0.00  0.00    +0.030 A 
BRANCH  20  28
ATOM     28  N   LIG    1       24.082 -31.124   5.494  0.00  0.00    -0.218 N 
ATOM     29  H   LIG    1       24.016 -30.799   4.521  0.00  0.00    +0.173 HD
BRANCH  28  30
ATOM     30  S   LIG    1       25.134 -32.479   5.465  0.00  0.00    +0.043 S 
ATOM     31  O   LIG    1       26.474 -31.935   5.562  0.00  0.00    -0.155 OA
ATOM     32  O   LIG    1       24.637 -33.484   6.395  0.00  0.00    -0.155 OA
BRANCH  30  33
ATOM     33  C   LIG    1       24.905 -33.080   3.795  0.00  0.00    +0.188 C 
BRANCH  33  35
ATOM     34  C   LIG    1       26.626 -32.941   1.951  0.00  0.00    +0.005 C 
ATOM     35  C   LIG    1       26.201 -33.655   3.226  0.00  0.00    +0.021 C 
ENDBRANCH  33  35
ENDBRANCH  30  33
ENDBRANCH  28  30
ENDBRANCH  20  28
ENDBRANCH   1  23
TORSDOF 7
ENDMDL
MODEL 4
REMARK VINA RESULT:     -10.1      4.494      9.877
REMARK  Name = *****
REMARK                            x       y       z     vdW  Elec       q    Type
REMARK                         _______ _______ _______ _____ _____    ______ ____
ROOT
ATOM      1  C   LIG    1       27.837 -21.314   8.063  0.00  0.00    +0.201 C 
ATOM      2  O   LIG    1       28.458 -22.182   8.670  0.00  0.00    -0.286 OA
ENDROOT
BRANCH   1   3
ATOM      3  C   LIG    1       26.369 -21.371   7.981  0.00  0.00    +0.049 A 
ATOM      4  C   LIG    1       25.588 -22.454   7.437  0.00  0.00    +0.030 A 
ATOM      5  C   LIG    1       24.258 -22.059   7.454  0.00  0.00    +0.139 A 
ATOM      6  N   LIG    1       23.190 -22.735   7.005  0.00  0.00    -0.237 NA
ATOM      7  C   LIG    1       23.512 -23.968   6.541  0.00  0.00    +0.121 A 
ATOM      8  C   LIG    1       24.785 -24.554   6.500  0.00  0.00    +0.001 A 
ATOM      9  N   LIG    1       24.191 -20.832   8.040  0.00  0.00    -0.345 N 
ATOM     10  H   LIG    1       23.328 -20.325   8.173  0.00  0.00    +0.167 HD
ATOM     11  C   LIG    1       25.854 -23.743   6.929  0.00  0.00    +0.022 A 
ATOM     12  C   LIG    1       25.441 -20.450   8.454  0.00  0.00    +0.097 A 
BRANCH   8  13
ATOM     13  C   LIG    1       24.987 -25.962   6.089  0.00  0.00    -0.016 A 
ATOM     14  C   LIG    1       24.133 -26.985   6.552  0.00  0.00    +0.010 A 
ATOM     15  C   LIG    1       24.353 -28.328   6.227  0.00  0.00    +0.020 A 
ATOM     16  C   LIG    1       25.435 -28.676   5.428  0.00  0.00    +0.041 A 
ATOM     17 CL   LIG    1       25.726 -30.328   5.054  0.00  0.00    -0.084 Cl
ATOM     18  C   LIG    1       26.286 -27.691   4.941  0.00  0.00    +0.020 A 
ATOM     19  C   LIG    1       26.062 -26.348   5.266  0.00  0.00    +0.010 A 
ENDBRANCH   8  13
ENDBRANCH   1   3
BRANCH   1  23
ATOM     20  C   LIG    1       30.416 -18.578   7.561  0.00  0.00    +0.084 A 
ATOM     21  C   LIG    1       29.676 -19.633   8.123  0.00  0.00    +0.159 A 
ATOM     22  F   LIG    1       30.026 -20.056   9.347  0.00  0.00    -0.203 F 
ATOM     23  C   LIG    1       28.614 -20.217   7.426  0.00  0.00    +0.094 A 
ATOM     24  C   LIG    1       28.373 -19.768   6.126  0.00  0.00    +0.137 A 
ATOM     25  F   LIG    1       27.518 -20.401   5.311  0.00  0.00    -0.205 F 
ATOM     26  C   LIG    1       29.045 -18.665   5.595  0.00  0.00    +0.041 A 
ATOM     27  C   LIG    1       30.066 -18.059   6.318  0.00  0.00    +0.030 A 
BRANCH  20  28
ATOM     28  N   LIG    1       31.649 -18.147   8.162  0.00  0.00    -0.218 N 
ATOM     29  H   LIG    1       32.345 -17.830   7.476  0.00  0.00    +0.173 HD
BRANCH  28  30
ATOM     30  S   LIG    1       31.478 -16.862   9.285  0.00  0.00    +0.043 S 
ATOM     31  O   LIG    1       32.388 -15.827   8.837  0.00  0.00    -0.155 OA
ATOM     32  O   LIG    1       30.060 -16.607   9.500  0.00  0.00    -0.155 OA
BRANCH  30  33
ATOM     33  C   LIG    1       32.162 -17.588  10.772  0.00  0.00    +0.188 C 
BRANCH  33  35
ATOM     34  C   LIG    1       31.837 -16.000  12.709  0.00  0.00    +0.005 C 
ATOM     35  C   LIG    1       32.808 -16.529  11.664  0.00  0.00    +0.021 C 
ENDBRANCH  33  35
ENDBRANCH  30  33
ENDBRANCH  28  30
ENDBRANCH  20  28
ENDBRANCH   1  23
TORSDOF 7
ENDMDL
MODEL 5
REMARK VINA RESULT:     -10.1      3.561      6.189
REMARK  Name = *****
REMARK                            x       y       z     vdW  Elec       q    Type
REMARK                         _______ _______ _______ _____ _____    ______ ____
ROOT
ATOM      1  C   LIG    1       25.865 -26.491   6.194  0.00  0.00    +0.201 C 
ATOM      2  O   LIG    1       26.976 -26.363   5.688  0.00  0.00    -0.286 OA
ENDROOT
BRANCH   1   3
ATOM      3  C   LIG    1       24.988 -25.321   6.363  0.00  0.00    +0.049 A 
ATOM      4  C   LIG    1       25.408 -23.983   6.696  0.00  0.00    +0.030 A 
ATOM      5  C   LIG    1       24.264 -23.216   6.864  0.00  0.00    +0.139 A 
ATOM      6  N   LIG    1       24.179 -21.925   7.219  0.00  0.00    -0.237 NA
ATOM      7  C   LIG    1       25.397 -21.344   7.362  0.00  0.00    +0.121 A 
ATOM      8  C   LIG    1       26.650 -21.944   7.177  0.00  0.00    +0.001 A 
ATOM      9  N   LIG    1       23.187 -24.000   6.583  0.00  0.00    -0.345 N 
ATOM     10  H   LIG    1       22.233 -23.674   6.632  0.00  0.00    +0.167 HD
ATOM     11  C   LIG    1       26.640 -23.319   6.873  0.00  0.00    +0.022 A 
ATOM     12  C   LIG    1       23.611 -25.240   6.183  0.00  0.00    +0.097 A 
BRANCH   8  13
ATOM     13  C   LIG    1       27.909 -21.165   7.237  0.00  0.00    -0.016 A 
ATOM     14  C   LIG    1       28.967 -21.556   8.083  0.00  0.00    +0.010 A 
ATOM     15  C   LIG    1       30.134 -20.793   8.200  0.00  0.00    +0.020 A 
ATOM     16  C   LIG    1       30.265 -19.618   7.469  0.00  0.00    +0.041 A 
ATOM     17 CL   LIG    1       31.684 -18.662   7.635  0.00  0.00    -0.084 Cl
ATOM     18  C   LIG    1       29.248 -19.213   6.612  0.00  0.00    +0.020 A 
ATOM     19  C   LIG    1       28.083 -19.981   6.496  0.00  0.00    +0.010 A 
ENDBRANCH   8  13
ENDBRANCH   1   3
BRANCH   1  23
ATOM     20  C   LIG    1       25.240 -29.520   8.390  0.00  0.00    +0.084 A 
ATOM     21  C   LIG    1       25.603 -28.233   7.957  0.00  0.00    +0.159 A 
ATOM     22  F   LIG    1       26.106 -27.388   8.870  0.00  0.00    -0.203 F 
ATOM     23  C   LIG    1       25.444 -27.852   6.621  0.00  0.00    +0.094 A 
ATOM     24  C   LIG    1       24.837 -28.768   5.759  0.00  0.00    +0.137 A 
ATOM     25  F   LIG    1       24.458 -28.423   4.521  0.00  0.00    -0.205 F 
ATOM     26  C   LIG    1       24.554 -30.075   6.160  0.00  0.00    +0.041 A 
ATOM     27  C   LIG    1       24.764 -30.459   7.479  0.00  0.00    +0.030 A 
BRANCH  20  28
ATOM     28  N   LIG    1       25.170 -29.829   9.793  0.00  0.00    -0.218 N 
ATOM     29  H   LIG    1       24.426 -30.499  10.024  0.00  0.00    +0.173 HD
BRANCH  28  30
ATOM     30  S   LIG    1       26.614 -30.485  10.445  0.00  0.00    +0.043 S 
ATOM     31  O   LIG    1       26.422 -31.922  10.449  0.00  0.00    -0.155 OA
ATOM     32  O   LIG    1       27.756 -29.859   9.794  0.00  0.00    -0.155 OA
BRANCH  30  33
ATOM     33  C   LIG    1       26.537 -29.917  12.141  0.00  0.00    +0.188 C 
BRANCH  33  35
ATOM     34  C   LIG    1       26.785 -27.404  12.098  0.00  0.00    +0.005 C 
ATOM     35  C   LIG    1       25.821 -28.572  12.247  0.00  0.00    +0.021 C 
ENDBRANCH  33  35
ENDBRANCH  30  33
ENDBRANCH  28  30
ENDBRANCH  20  28
ENDBRANCH   1  23
TORSDOF 7
ENDMDL
MODEL 6
REMARK VINA RESULT:      -9.6      4.199      9.316
REMARK  Name = *****
REMARK                            x       y       z     vdW  Elec       q    Type
REMARK                         _______ _______ _______ _____ _____    ______ ____
ROOT
ATOM      1  C   LIG    1       26.237 -22.117   7.162  0.00  0.00    +0.201 C 
ATOM      2  O   LIG    1       25.956 -22.230   8.352  0.00  0.00    -0.286 OA
ENDROOT
BRANCH   1   3
ATOM      3  C   LIG    1       25.572 -22.963   6.159  0.00  0.00    +0.049 A 
ATOM      4  C   LIG    1       25.477 -24.401   6.186  0.00  0.00    +0.030 A 
ATOM      5  C   LIG    1       24.869 -24.802   5.006  0.00  0.00    +0.139 A 
ATOM      6  N   LIG    1       24.616 -26.052   4.590  0.00  0.00    -0.237 NA
ATOM      7  C   LIG    1       24.973 -26.987   5.505  0.00  0.00    +0.121 A 
ATOM      8  C   LIG    1       25.543 -26.766   6.766  0.00  0.00    +0.001 A 
ATOM      9  N   LIG    1       24.532 -23.684   4.306  0.00  0.00    -0.345 N 
ATOM     10  H   LIG    1       24.074 -23.707   3.406  0.00  0.00    +0.167 HD
ATOM     11  C   LIG    1       25.835 -25.426   7.088  0.00  0.00    +0.022 A 
ATOM     12  C   LIG    1       24.858 -22.569   5.033  0.00  0.00    +0.097 A 
BRANCH   8  13
ATOM     13  C   LIG    1       25.767 -27.868   7.730  0.00  0.00    -0.016 A 
ATOM     14  C   LIG    1       25.106 -29.106   7.585  0.00  0.00    +0.010 A 
ATOM     15  C   LIG    1       25.256 -30.133   8.525  0.00  0.00    +0.020 A 
ATOM     16  C   LIG    1       26.074 -29.940   9.631  0.00  0.00    +0.041 A 
ATOM     17 CL   LIG    1       26.234 -31.186  10.803  0.00  0.00    -0.084 Cl
ATOM     18  C   LIG    1       26.753 -28.738   9.795  0.00  0.00    +0.020 A 
ATOM     19  C   LIG    1       26.602 -27.714   8.852  0.00  0.00    +0.010 A 
ENDBRANCH   8  13
ENDBRANCH   1   3
BRANCH   1  23
ATOM     20  C   LIG    1       29.502 -20.188   7.060  0.00  0.00    +0.084 A 
ATOM     21  C   LIG    1       28.521 -21.143   7.379  0.00  0.00    +0.159 A 
ATOM     22  F   LIG    1       28.841 -22.087   8.277  0.00  0.00    -0.203 F 
ATOM     23  C   LIG    1       27.258 -21.105   6.780  0.00  0.00    +0.094 A 
ATOM     24  C   LIG    1       27.042 -20.137   5.797  0.00  0.00    +0.137 A 
ATOM     25  F   LIG    1       25.945 -20.151   5.027  0.00  0.00    -0.205 F 
ATOM     26  C   LIG    1       27.978 -19.134   5.537  0.00  0.00    +0.041 A 
ATOM     27  C   LIG    1       29.212 -19.151   6.177  0.00  0.00    +0.030 A 
BRANCH  20  28
ATOM     28  N   LIG    1       30.865 -20.368   7.482  0.00  0.00    -0.218 N 
ATOM     29  H   LIG    1       31.524 -20.449   6.698  0.00  0.00    +0.173 HD
BRANCH  28  30
ATOM     30  S   LIG    1       31.470 -19.108   8.475  0.00  0.00    +0.043 S 
ATOM     31  O   LIG    1       32.209 -19.766   9.534  0.00  0.00    -0.155 OA
ATOM     32  O   LIG    1       32.073 -18.086   7.631  0.00  0.00    -0.155 OA
BRANCH  30  33
ATOM     33  C   LIG    1       29.964 -18.451   9.185  0.00  0.00    +0.188 C 
BRANCH  33  35
ATOM     34  C   LIG    1       30.744 -16.994  11.095  0.00  0.00    +0.005 C 
ATOM     35  C   LIG    1       30.160 -17.023   9.690  0.00  0.00    +0.021 C 
ENDBRANCH  33  35
ENDBRANCH  30  33
ENDBRANCH  28  30
ENDBRANCH  20  28
ENDBRANCH   1  23
TORSDOF 7
ENDMDL
MODEL 7
REMARK VINA RESULT:      -9.5      3.562      5.999
REMARK  Name = *****
REMARK                            x       y       z     vdW  Elec       q    Type
REMARK                         _______ _______ _______ _____ _____    ______ ____
ROOT
ATOM      1  C   LIG    1       25.800 -26.343   6.221  0.00  0.00    +0.201 C 
ATOM      2  O   LIG    1       26.933 -26.218   5.766  0.00  0.00    -0.286 OA
ENDROOT
BRANCH   1   3
ATOM      3  C   LIG    1       24.931 -25.166   6.383  0.00  0.00    +0.049 A 
ATOM      4  C   LIG    1       25.355 -23.838   6.749  0.00  0.00    +0.030 A 
ATOM      5  C   LIG    1       24.216 -23.061   6.896  0.00  0.00    +0.139 A 
ATOM      6  N   LIG    1       24.135 -21.775   7.268  0.00  0.00    -0.237 NA
ATOM      7  C   LIG    1       25.354 -21.210   7.456  0.00  0.00    +0.121 A 
ATOM      8  C   LIG    1       26.606 -21.821   7.298  0.00  0.00    +0.001 A 
ATOM      9  N   LIG    1       23.139 -23.828   6.571  0.00  0.00    -0.345 N 
ATOM     10  H   LIG    1       22.187 -23.492   6.597  0.00  0.00    +0.167 HD
ATOM     11  C   LIG    1       26.589 -23.191   6.972  0.00  0.00    +0.022 A 
ATOM     12  C   LIG    1       23.561 -25.067   6.164  0.00  0.00    +0.097 A 
BRANCH   8  13
ATOM     13  C   LIG    1       27.870 -21.057   7.406  0.00  0.00    -0.016 A 
ATOM     14  C   LIG    1       28.097 -19.911   6.616  0.00  0.00    +0.010 A 
ATOM     15  C   LIG    1       29.313 -19.220   6.658  0.00  0.00    +0.020 A 
ATOM     16  C   LIG    1       30.329 -19.663   7.496  0.00  0.00    +0.041 A 
ATOM     17 CL   LIG    1       31.835 -18.835   7.526  0.00  0.00    -0.084 Cl
ATOM     18  C   LIG    1       30.132 -20.779   8.301  0.00  0.00    +0.020 A 
ATOM     19  C   LIG    1       28.913 -21.467   8.257  0.00  0.00    +0.010 A 
ENDBRANCH   8  13
ENDBRANCH   1   3
BRANCH   1  23
ATOM     20  C   LIG    1       25.264 -29.513   8.235  0.00  0.00    +0.084 A 
ATOM     21  C   LIG    1       25.656 -28.216   7.858  0.00  0.00    +0.159 A 
ATOM     22  F   LIG    1       26.340 -27.488   8.754  0.00  0.00    -0.203 F 
ATOM     23  C   LIG    1       25.344 -27.709   6.593  0.00  0.00    +0.094 A 
ATOM     24  C   LIG    1       24.560 -28.506   5.757  0.00  0.00    +0.137 A 
ATOM     25  F   LIG    1       24.041 -28.029   4.617  0.00  0.00    -0.205 F 
ATOM     26  C   LIG    1       24.241 -29.824   6.088  0.00  0.00    +0.041 A 
ATOM     27  C   LIG    1       24.601 -30.336   7.329  0.00  0.00    +0.030 A 
BRANCH  20  28
ATOM     28  N   LIG    1       25.365 -29.940   9.604  0.00  0.00    -0.218 N 
ATOM     29  H   LIG    1       24.538 -30.455   9.930  0.00  0.00    +0.173 HD
BRANCH  28  30
ATOM     30  S   LIG    1       26.708 -30.955   9.930  0.00  0.00    +0.043 S 
ATOM     31  O   LIG    1       27.794 -30.063  10.286  0.00  0.00    -0.155 OA
ATOM     32  O   LIG    1       26.281 -32.041  10.802  0.00  0.00    -0.155 OA
BRANCH  30  33
ATOM     33  C   LIG    1       27.059 -31.625   8.308  0.00  0.00    +0.188 C 
BRANCH  33  35
ATOM     34  C   LIG    1       26.412 -33.823   7.247  0.00  0.00    +0.005 C 
ATOM     35  C   LIG    1       27.208 -33.145   8.351  0.00  0.00    +0.021 C 
ENDBRANCH  33  35
ENDBRANCH  30  33
ENDBRANCH  28  30
ENDBRANCH  20  28
ENDBRANCH   1  23
TORSDOF 7
ENDMDL
MODEL 8
REMARK VINA RESULT:      -9.1      4.309      9.703
REMARK  Name = *****
REMARK                            x       y       z     vdW  Elec       q    Type
REMARK                         _______ _______ _______ _____ _____    ______ ____
ROOT
ATOM      1  C   LIG    1       26.590 -20.539   5.898  0.00  0.00    +0.201 C 
ATOM      2  O   LIG    1       26.670 -20.130   4.743  0.00  0.00    -0.286 OA
ENDROOT
BRANCH   1   3
ATOM      3  C   LIG    1       25.285 -20.922   6.461  0.00  0.00    +0.049 A 
ATOM      4  C   LIG    1       24.690 -22.234   6.416  0.00  0.00    +0.030 A 
ATOM      5  C   LIG    1       23.419 -22.135   6.963  0.00  0.00    +0.139 A 
ATOM      6  N   LIG    1       22.496 -23.100   7.087  0.00  0.00    -0.237 NA
ATOM      7  C   LIG    1       22.943 -24.306   6.656  0.00  0.00    +0.121 A 
ATOM      8  C   LIG    1       24.208 -24.605   6.131  0.00  0.00    +0.001 A 
ATOM      9  N   LIG    1       23.246 -20.856   7.395  0.00  0.00    -0.345 N 
ATOM     10  H   LIG    1       22.398 -20.526   7.834  0.00  0.00    +0.167 HD
ATOM     11  C   LIG    1       25.087 -23.515   5.976  0.00  0.00    +0.022 A 
ATOM     12  C   LIG    1       24.397 -20.140   7.191  0.00  0.00    +0.097 A 
BRANCH   8  13
ATOM     13  C   LIG    1       24.619 -25.992   5.818  0.00  0.00    -0.016 A 
ATOM     14  C   LIG    1       24.082 -27.088   6.525  0.00  0.00    +0.010 A 
ATOM     15  C   LIG    1       24.511 -28.398   6.286  0.00  0.00    +0.020 A 
ATOM     16  C   LIG    1       25.490 -28.639   5.330  0.00  0.00    +0.041 A 
ATOM     17 CL   LIG    1       26.042 -30.243   5.056  0.00  0.00    -0.084 Cl
ATOM     18  C   LIG    1       26.028 -27.583   4.602  0.00  0.00    +0.020 A 
ATOM     19  C   LIG    1       25.594 -26.274   4.843  0.00  0.00    +0.010 A 
ENDBRANCH   8  13
ENDBRANCH   1   3
BRANCH   1  23
ATOM     20  C   LIG    1       29.956 -19.637   7.397  0.00  0.00    +0.084 A 
ATOM     21  C   LIG    1       28.750 -19.571   6.677  0.00  0.00    +0.159 A 
ATOM     22  F   LIG    1       28.504 -18.453   5.977  0.00  0.00    -0.203 F 
ATOM     23  C   LIG    1       27.843 -20.635   6.693  0.00  0.00    +0.094 A 
ATOM     24  C   LIG    1       28.144 -21.724   7.514  0.00  0.00    +0.137 A 
ATOM     25  F   LIG    1       27.249 -22.692   7.753  0.00  0.00    -0.205 F 
ATOM     26  C   LIG    1       29.377 -21.835   8.161  0.00  0.00    +0.041 A 
ATOM     27  C   LIG    1       30.293 -20.792   8.097  0.00  0.00    +0.030 A 
BRANCH  20  28
ATOM     28  N   LIG    1       30.765 -18.463   7.581  0.00  0.00    -0.218 N 
ATOM     29  H   LIG    1       30.310 -17.602   7.254  0.00  0.00    +0.173 HD
BRANCH  28  30
ATOM     30  S   LIG    1       31.221 -18.166   9.207  0.00  0.00    +0.043 S 
ATOM     31  O   LIG    1       29.980 -17.972   9.931  0.00  0.00    -0.155 OA
ATOM     32  O   LIG    1       32.206 -19.159   9.612  0.00  0.00    -0.155 OA
BRANCH  30  33
ATOM     33  C   LIG    1       32.030 -16.575   9.072  0.00  0.00    +0.188 C 
BRANCH  33  35
ATOM     34  C   LIG    1       32.324 -16.183  11.549  0.00  0.00    +0.005 C 
ATOM     35  C   LIG    1       33.025 -16.356  10.210  0.00  0.00    +0.021 C 
ENDBRANCH  33  35
ENDBRANCH  30  33
ENDBRANCH  28  30
ENDBRANCH  20  28
ENDBRANCH   1  23
TORSDOF 7
ENDMDL
MODEL 9
REMARK VINA RESULT:      -8.9      6.365      9.599
REMARK  Name = *****
REMARK                            x       y       z     vdW  Elec       q    Type
REMARK                         _______ _______ _______ _____ _____    ______ ____
ROOT
ATOM      1  C   LIG    1       24.250 -30.340   8.830  0.00  0.00    +0.201 C 
ATOM      2  O   LIG    1       23.159 -30.828   9.113  0.00  0.00    -0.286 OA
ENDROOT
BRANCH   1   3
ATOM      3  C   LIG    1       24.623 -30.120   7.424  0.00  0.00    +0.049 A 
ATOM      4  C   LIG    1       24.695 -28.846   6.751  0.00  0.00    +0.030 A 
ATOM      5  C   LIG    1       24.976 -29.095   5.416  0.00  0.00    +0.139 A 
ATOM      6  N   LIG    1       25.093 -28.208   4.417  0.00  0.00    -0.237 NA
ATOM      7  C   LIG    1       24.962 -26.926   4.842  0.00  0.00    +0.121 A 
ATOM      8  C   LIG    1       24.735 -26.486   6.153  0.00  0.00    +0.001 A 
ATOM      9  N   LIG    1       25.145 -30.437   5.264  0.00  0.00    -0.345 N 
ATOM     10  H   LIG    1       25.360 -30.876   4.380  0.00  0.00    +0.167 HD
ATOM     11  C   LIG    1       24.559 -27.492   7.122  0.00  0.00    +0.022 A 
ATOM     12  C   LIG    1       25.035 -31.056   6.483  0.00  0.00    +0.097 A 
BRANCH   8  13
ATOM     13  C   LIG    1       24.742 -25.048   6.510  0.00  0.00    -0.016 A 
ATOM     14  C   LIG    1       25.934 -24.400   6.895  0.00  0.00    +0.010 A 
ATOM     15  C   LIG    1       25.944 -23.060   7.300  0.00  0.00    +0.020 A 
ATOM     16  C   LIG    1       24.756 -22.340   7.326  0.00  0.00    +0.041 A 
ATOM     17 CL   LIG    1       24.760 -20.704   7.854  0.00  0.00    -0.084 Cl
ATOM     18  C   LIG    1       23.566 -22.944   6.936  0.00  0.00    +0.020 A 
ATOM     19  C   LIG    1       23.561 -24.283   6.530  0.00  0.00    +0.010 A 
ENDBRANCH   8  13
ENDBRANCH   1   3
BRANCH   1  23
ATOM     20  C   LIG    1       25.466 -29.113  12.208  0.00  0.00    +0.084 A 
ATOM     21  C   LIG    1       24.630 -29.485  11.140  0.00  0.00    +0.159 A 
ATOM     22  F   LIG    1       23.306 -29.345  11.308  0.00  0.00    -0.203 F 
ATOM     23  C   LIG    1       25.164 -29.982   9.947  0.00  0.00    +0.094 A 
ATOM     24  C   LIG    1       26.547 -30.171   9.891  0.00  0.00    +0.137 A 
ATOM     25  F   LIG    1       27.126 -30.827   8.876  0.00  0.00    -0.205 F 
ATOM     26  C   LIG    1       27.389 -29.724  10.911  0.00  0.00    +0.041 A 
ATOM     27  C   LIG    1       26.850 -29.184  12.073  0.00  0.00    +0.030 A 
BRANCH  20  28
ATOM     28  N   LIG    1       24.917 -28.840  13.508  0.00  0.00    -0.218 N 
ATOM     29  H   LIG    1       25.311 -29.435  14.247  0.00  0.00    +0.173 HD
BRANCH  28  30
ATOM     30  S   LIG    1       25.130 -27.224  14.041  0.00  0.00    +0.043 S 
ATOM     31  O   LIG    1       25.923 -27.313  15.251  0.00  0.00    -0.155 OA
ATOM     32  O   LIG    1       25.534 -26.402  12.909  0.00  0.00    -0.155 OA
BRANCH  30  33
ATOM     33  C   LIG    1       23.462 -26.774  14.511  0.00  0.00    +0.188 C 
BRANCH  33  35
ATOM     34  C   LIG    1       21.383 -27.224  13.150  0.00  0.00    +0.005 C 
ATOM     35  C   LIG    1       22.630 -26.366  13.297  0.00  0.00    +0.021 C 
ENDBRANCH  33  35
ENDBRANCH  30  33
ENDBRANCH  28  30
ENDBRANCH  20  28
ENDBRANCH   1  23
TORSDOF 7
ENDMDL
