MODEL 1
REMARK VINA RESULT:      -1.8      0.000      0.000
REMARK  Name = *****
REMARK                            x       y       z     vdW  Elec       q    Type
REMARK                         _______ _______ _______ _____ _____    ______ ____
ROOT
ATOM      1  C   LIG    1       26.410 -16.037   4.076  0.00  0.00    +0.170 C 
ENDROOT
BRANCH   1   7
ATOM      2 CL   LIG    1       23.189 -11.447   1.812  0.00  0.00    -0.084 Cl
ATOM      3  C   LIG    1       24.104 -12.739   2.482  0.00  0.00    +0.042 A 
ATOM      4  C   LIG    1       23.540 -13.549   3.462  0.00  0.00    +0.040 A 
ATOM      5  C   LIG    1       24.278 -14.606   4.002  0.00  0.00    +0.048 A 
ATOM      6 CL   LIG    1       23.505 -15.566   5.211  0.00  0.00    -0.083 Cl
ATOM      7  C   LIG    1       25.587 -14.868   3.557  0.00  0.00    +0.001 A 
ATOM      8  C   LIG    1       26.138 -14.025   2.571  0.00  0.00    +0.009 A 
ATOM      9  C   LIG    1       25.402 -12.969   2.037  0.00  0.00    +0.020 A 
ENDBRANCH   1   7
BRANCH   1  10
ATOM     10  C   LIG    1       27.887 -15.648   4.301  0.00  0.00    +0.159 C 
BRANCH  10  11
ATOM     11  N   LIG    1       28.110 -14.236   4.531  0.00  0.00    -0.334 N 
ATOM     12  C   LIG    1       27.682 -13.521   5.610  0.00  0.00    +0.199 A 
ATOM     13  N   LIG    1       28.046 -12.258   5.520  0.00  0.00    -0.244 NA
ATOM     14  C   LIG    1       28.748 -12.165   4.349  0.00  0.00    +0.130 A 
ATOM     15  C   LIG    1       28.803 -13.385   3.714  0.00  0.00    +0.107 A 
ENDBRANCH  10  11
ENDBRANCH   1  10
BRANCH   1  16
ATOM     16  O   LIG    1       26.394 -17.113   3.115  0.00  0.00    -0.365 OA
BRANCH  16  17
ATOM     17  C   LIG    1       27.166 -18.256   3.508  0.00  0.00    +0.197 C 
BRANCH  17  18
ATOM     18  C   LIG    1       26.381 -19.129   4.446  0.00  0.00    -0.007 A 
ATOM     19  C   LIG    1       24.931 -19.245   4.472  0.00  0.00    -0.004 A 
ATOM     20  C   LIG    1       23.942 -18.605   3.678  0.00  0.00    +0.009 A 
ATOM     21  C   LIG    1       22.582 -18.884   3.848  0.00  0.00    +0.002 A 
ATOM     22  C   LIG    1       22.175 -19.796   4.808  0.00  0.00    +0.021 A 
ATOM     23  C   LIG    1       23.119 -20.437   5.615  0.00  0.00    +0.055 A 
ATOM     24 CL   LIG    1       22.559 -21.564   6.797  0.00  0.00    -0.082 Cl
ATOM     25  C   LIG    1       24.494 -20.157   5.445  0.00  0.00    +0.038 A 
ATOM     26  S   LIG    1       25.832 -20.813   6.314  0.00  0.00    -0.095 S 
ATOM     27  C   LIG    1       26.963 -19.926   5.409  0.00  0.00    +0.052 A 
ENDBRANCH  17  18
ENDBRANCH  16  17
ENDBRANCH   1  16
TORSDOF 6
ENDMDL
MODEL 2
REMARK VINA RESULT:      -1.4      3.013      6.350
REMARK  Name = *****
REMARK                            x       y       z     vdW  Elec       q    Type
REMARK                         _______ _______ _______ _____ _____    ______ ____
ROOT
ATOM      1  C   LIG    1       25.387 -20.312   4.546  0.00  0.00    +0.170 C 
ENDROOT
BRANCH   1   7
ATOM      2 CL   LIG    1       19.639 -18.794   3.441  0.00  0.00    -0.084 Cl
ATOM      3  C   LIG    1       21.271 -19.213   3.782  0.00  0.00    +0.042 A 
ATOM      4  C   LIG    1       21.554 -20.106   4.811  0.00  0.00    +0.040 A 
ATOM      5  C   LIG    1       22.880 -20.455   5.084  0.00  0.00    +0.048 A 
ATOM      6 CL   LIG    1       23.147 -21.571   6.376  0.00  0.00    -0.083 Cl
ATOM      7  C   LIG    1       23.934 -19.922   4.321  0.00  0.00    +0.001 A 
ATOM      8  C   LIG    1       23.620 -19.012   3.292  0.00  0.00    +0.009 A 
ATOM      9  C   LIG    1       22.298 -18.661   3.024  0.00  0.00    +0.020 A 
ENDBRANCH   1   7
BRANCH   1  10
ATOM     10  C   LIG    1       25.723 -20.445   6.047  0.00  0.00    +0.159 C 
BRANCH  10  11
ATOM     11  N   LIG    1       27.138 -20.537   6.343  0.00  0.00    -0.334 N 
ATOM     12  C   LIG    1       28.090 -19.621   6.004  0.00  0.00    +0.199 A 
ATOM     13  N   LIG    1       29.283 -19.999   6.416  0.00  0.00    -0.244 NA
ATOM     14  C   LIG    1       29.084 -21.191   7.058  0.00  0.00    +0.130 A 
ATOM     15  C   LIG    1       27.755 -21.548   7.027  0.00  0.00    +0.107 A 
ENDBRANCH  10  11
ENDBRANCH   1  10
BRANCH   1  16
ATOM     16  O   LIG    1       26.257 -19.299   4.002  0.00  0.00    -0.365 OA
BRANCH  16  17
ATOM     17  C   LIG    1       25.565 -18.239   3.327  0.00  0.00    +0.197 C 
BRANCH  17  18
ATOM     18  C   LIG    1       26.195 -16.912   3.639  0.00  0.00    -0.007 A 
ATOM     19  C   LIG    1       25.478 -15.656   3.797  0.00  0.00    -0.004 A 
ATOM     20  C   LIG    1       24.089 -15.371   3.699  0.00  0.00    +0.009 A 
ATOM     21  C   LIG    1       23.595 -14.081   3.919  0.00  0.00    +0.002 A 
ATOM     22  C   LIG    1       24.465 -13.050   4.235  0.00  0.00    +0.021 A 
ATOM     23  C   LIG    1       25.838 -13.290   4.328  0.00  0.00    +0.055 A 
ATOM     24 CL   LIG    1       26.878 -11.969   4.722  0.00  0.00    -0.082 Cl
ATOM     25  C   LIG    1       26.339 -14.593   4.106  0.00  0.00    +0.038 A 
ATOM     26  S   LIG    1       27.978 -15.129   4.162  0.00  0.00    -0.095 S 
ATOM     27  C   LIG    1       27.553 -16.734   3.805  0.00  0.00    +0.052 A 
ENDBRANCH  17  18
ENDBRANCH  16  17
ENDBRANCH   1  16
TORSDOF 6
ENDMDL
MODEL 3
REMARK VINA RESULT:       0.2      3.029      6.623
REMARK  Name = *****
REMARK                            x       y       z     vdW  Elec       q    Type
REMARK                         _______ _______ _______ _____ _____    ______ ____
ROOT
ATOM      1  C   LIG    1       26.277 -19.084   4.078  0.00  0.00    +0.170 C 
ENDROOT
BRANCH   1   7
ATOM      2 CL   LIG    1       20.761 -21.402   4.947  0.00  0.00    -0.084 Cl
ATOM      3  C   LIG    1       22.340 -20.771   4.699  0.00  0.00    +0.042 A 
ATOM      4  C   LIG    1       23.017 -21.048   3.516  0.00  0.00    +0.040 A 
ATOM      5  C   LIG    1       24.297 -20.528   3.309  0.00  0.00    +0.048 A 
ATOM      6 CL   LIG    1       25.069 -20.917   1.813  0.00  0.00    -0.083 Cl
ATOM      7  C   LIG    1       24.908 -19.715   4.280  0.00  0.00    +0.001 A 
ATOM      8  C   LIG    1       24.204 -19.458   5.474  0.00  0.00    +0.009 A 
ATOM      9  C   LIG    1       22.929 -19.982   5.682  0.00  0.00    +0.020 A 
ENDBRANCH   1   7
BRANCH   1  10
ATOM     10  C   LIG    1       26.923 -18.665   5.416  0.00  0.00    +0.159 C 
BRANCH  10  11
ATOM     11  N   LIG    1       27.769 -19.673   6.019  0.00  0.00    -0.334 N 
ATOM     12  C   LIG    1       27.360 -20.884   6.495  0.00  0.00    +0.199 A 
ATOM     13  N   LIG    1       28.372 -21.571   6.984  0.00  0.00    -0.244 NA
ATOM     14  C   LIG    1       29.472 -20.777   6.800  0.00  0.00    +0.130 A 
ATOM     15  C   LIG    1       29.122 -19.589   6.199  0.00  0.00    +0.107 A 
ENDBRANCH  10  11
ENDBRANCH   1  10
BRANCH   1  16
ATOM     16  O   LIG    1       26.154 -17.894   3.272  0.00  0.00    -0.365 OA
BRANCH  16  17
ATOM     17  C   LIG    1       27.250 -16.980   3.413  0.00  0.00    +0.197 C 
BRANCH  17  18
ATOM     18  C   LIG    1       26.755 -15.562   3.469  0.00  0.00    -0.007 A 
ATOM     19  C   LIG    1       25.397 -15.158   3.799  0.00  0.00    -0.004 A 
ATOM     20  C   LIG    1       24.257 -15.941   4.126  0.00  0.00    +0.009 A 
ATOM     21  C   LIG    1       23.033 -15.344   4.444  0.00  0.00    +0.002 A 
ATOM     22  C   LIG    1       22.912 -13.964   4.440  0.00  0.00    +0.021 A 
ATOM     23  C   LIG    1       24.008 -13.162   4.111  0.00  0.00    +0.055 A 
ATOM     24 CL   LIG    1       23.803 -11.447   4.119  0.00  0.00    -0.082 Cl
ATOM     25  C   LIG    1       25.246 -13.763   3.790  0.00  0.00    +0.038 A 
ATOM     26  S   LIG    1       26.726 -12.991   3.354  0.00  0.00    -0.095 S 
ATOM     27  C   LIG    1       27.550 -14.468   3.200  0.00  0.00    +0.052 A 
ENDBRANCH  17  18
ENDBRANCH  16  17
ENDBRANCH   1  16
TORSDOF 6
ENDMDL
