MODEL 1
REMARK VINA RESULT:      -1.9      0.000      0.000
REMARK  Name = *****
REMARK                            x       y       z     vdW  Elec       q    Type
REMARK                         _______ _______ _______ _____ _____    ______ ____
ROOT
ATOM      1  C   LIG    1       25.869 -18.572   3.743  0.00  0.00    +0.117 C 
ATOM      2  C   LIG    1       26.108 -19.010   2.274  0.00  0.00    +0.052 C 
ENDROOT
BRANCH   1   3
ATOM      3  C   LIG    1       25.553 -17.048   3.674  0.00  0.00    -0.012 A 
ATOM      4  C   LIG    1       26.529 -16.102   3.310  0.00  0.00    +0.008 A 
ATOM      5  C   LIG    1       26.252 -14.730   3.328  0.00  0.00    +0.020 A 
ATOM      6  C   LIG    1       24.994 -14.278   3.714  0.00  0.00    +0.041 A 
ATOM      7 CL   LIG    1       24.667 -12.588   3.768  0.00  0.00    -0.084 Cl
ATOM      8  C   LIG    1       24.003 -15.188   4.061  0.00  0.00    +0.020 A 
ATOM      9  C   LIG    1       24.275 -16.561   4.030  0.00  0.00    +0.008 A 
ENDBRANCH   1   3
BRANCH   1  10
ATOM     10  C   LIG    1       27.066 -18.849   4.675  0.00  0.00    -0.012 A 
ATOM     11  C   LIG    1       28.219 -18.045   4.693  0.00  0.00    +0.007 A 
ATOM     12  C   LIG    1       29.300 -18.321   5.532  0.00  0.00    +0.000 A 
ATOM     13  C   LIG    1       29.255 -19.416   6.389  0.00  0.00    +0.000 A 
ATOM     14  C   LIG    1       28.128 -20.232   6.399  0.00  0.00    +0.000 A 
ATOM     15  C   LIG    1       27.048 -19.961   5.555  0.00  0.00    +0.007 A 
ENDBRANCH   1  10
BRANCH   1  16
ATOM     16  O   LIG    1       24.672 -19.248   4.230  0.00  0.00    -0.364 OA
BRANCH  16  17
ATOM     17  C   LIG    1       24.129 -20.282   3.402  0.00  0.00    +0.163 C 
BRANCH  17  18
ATOM     18  C   LIG    1       23.945 -21.572   4.222  0.00  0.00    +0.047 C 
BRANCH  18  21
ATOM     19  C   LIG    1       21.527 -19.695   3.965  0.00  0.00    +0.105 C 
ATOM     20  N   LIG    1       21.990 -20.235   5.226  0.00  0.00    -0.302 NA
ATOM     21  C   LIG    1       22.742 -21.499   5.193  0.00  0.00    +0.059 C 
ATOM     22  C   LIG    1       23.131 -21.572   6.671  0.00  0.00    +0.020 C 
ATOM     23  C   LIG    1       23.493 -20.139   7.039  0.00  0.00    +0.017 C 
ATOM     24  C   LIG    1       22.759 -19.277   6.021  0.00  0.00    +0.084 C 
ENDBRANCH  18  21
ENDBRANCH  17  18
ENDBRANCH  16  17
ENDBRANCH   1  16
TORSDOF 6
ENDMDL
MODEL 2
REMARK VINA RESULT:      -1.3      2.423      4.732
REMARK  Name = *****
REMARK                            x       y       z     vdW  Elec       q    Type
REMARK                         _______ _______ _______ _____ _____    ______ ____
ROOT
ATOM      1  C   LIG    1       25.635 -14.370   3.028  0.00  0.00    +0.117 C 
ATOM      2  C   LIG    1       25.104 -13.563   1.813  0.00  0.00    +0.052 C 
ENDROOT
BRANCH   1   3
ATOM      3  C   LIG    1       24.418 -14.518   3.989  0.00  0.00    -0.012 A 
ATOM      4  C   LIG    1       24.128 -13.557   4.975  0.00  0.00    +0.008 A 
ATOM      5  C   LIG    1       23.078 -13.743   5.883  0.00  0.00    +0.020 A 
ATOM      6  C   LIG    1       22.301 -14.896   5.823  0.00  0.00    +0.041 A 
ATOM      7 CL   LIG    1       21.032 -15.138   6.962  0.00  0.00    -0.084 Cl
ATOM      8  C   LIG    1       22.551 -15.855   4.849  0.00  0.00    +0.020 A 
ATOM      9  C   LIG    1       23.592 -15.664   3.933  0.00  0.00    +0.008 A 
ENDBRANCH   1   3
BRANCH   1  10
ATOM     10  C   LIG    1       26.828 -13.702   3.741  0.00  0.00    -0.012 A 
ATOM     11  C   LIG    1       26.833 -13.425   5.119  0.00  0.00    +0.007 A 
ATOM     12  C   LIG    1       27.916 -12.805   5.745  0.00  0.00    +0.000 A 
ATOM     13  C   LIG    1       29.037 -12.446   5.004  0.00  0.00    +0.000 A 
ATOM     14  C   LIG    1       29.067 -12.708   3.637  0.00  0.00    +0.000 A 
ATOM     15  C   LIG    1       27.981 -13.322   3.008  0.00  0.00    +0.007 A 
ENDBRANCH   1  10
BRANCH   1  16
ATOM     16  O   LIG    1       25.996 -15.704   2.565  0.00  0.00    -0.364 OA
BRANCH  16  17
ATOM     17  C   LIG    1       26.393 -16.651   3.563  0.00  0.00    +0.163 C 
BRANCH  17  18
ATOM     18  C   LIG    1       25.892 -18.057   3.185  0.00  0.00    +0.047 C 
BRANCH  18  21
ATOM     19  C   LIG    1       26.788 -19.993   5.395  0.00  0.00    +0.105 C 
ATOM     20  N   LIG    1       25.439 -19.946   4.871  0.00  0.00    -0.302 NA
ATOM     21  C   LIG    1       24.983 -18.683   4.271  0.00  0.00    +0.059 C 
ATOM     22  C   LIG    1       23.625 -19.155   3.748  0.00  0.00    +0.020 C 
ATOM     23  C   LIG    1       23.895 -20.548   3.195  0.00  0.00    +0.017 C 
ATOM     24  C   LIG    1       25.143 -21.023   3.927  0.00  0.00    +0.084 C 
ENDBRANCH  18  21
ENDBRANCH  17  18
ENDBRANCH  16  17
ENDBRANCH   1  16
TORSDOF 6
ENDMDL
MODEL 3
REMARK VINA RESULT:      -0.7      0.797      1.918
REMARK  Name = *****
REMARK                            x       y       z     vdW  Elec       q    Type
REMARK                         _______ _______ _______ _____ _____    ______ ____
ROOT
ATOM      1  C   LIG    1       25.750 -18.280   3.722  0.00  0.00    +0.117 C 
ATOM      2  C   LIG    1       25.829 -18.775   2.254  0.00  0.00    +0.052 C 
ENDROOT
BRANCH   1   3
ATOM      3  C   LIG    1       25.473 -16.750   3.629  0.00  0.00    -0.012 A 
ATOM      4  C   LIG    1       26.438 -15.848   3.144  0.00  0.00    +0.008 A 
ATOM      5  C   LIG    1       26.203 -14.468   3.140  0.00  0.00    +0.020 A 
ATOM      6  C   LIG    1       24.999 -13.964   3.624  0.00  0.00    +0.041 A 
ATOM      7 CL   LIG    1       24.727 -12.264   3.648  0.00  0.00    -0.084 Cl
ATOM      8  C   LIG    1       24.019 -14.831   4.091  0.00  0.00    +0.020 A 
ATOM      9  C   LIG    1       24.248 -16.212   4.084  0.00  0.00    +0.008 A 
ENDBRANCH   1   3
BRANCH   1  10
ATOM     10  C   LIG    1       27.026 -18.565   4.541  0.00  0.00    -0.012 A 
ATOM     11  C   LIG    1       27.168 -19.700   5.358  0.00  0.00    +0.007 A 
ATOM     12  C   LIG    1       28.325 -19.933   6.105  0.00  0.00    +0.000 A 
ATOM     13  C   LIG    1       29.383 -19.032   6.050  0.00  0.00    +0.000 A 
ATOM     14  C   LIG    1       29.277 -17.899   5.249  0.00  0.00    +0.000 A 
ATOM     15  C   LIG    1       28.118 -17.661   4.506  0.00  0.00    +0.007 A 
ENDBRANCH   1  10
BRANCH   1  16
ATOM     16  O   LIG    1       24.589 -18.901   4.350  0.00  0.00    -0.364 OA
BRANCH  16  17
ATOM     17  C   LIG    1       23.320 -18.680   3.725  0.00  0.00    +0.163 C 
BRANCH  17  18
ATOM     18  C   LIG    1       22.183 -19.041   4.699  0.00  0.00    +0.047 C 
BRANCH  18  21
ATOM     19  C   LIG    1       23.223 -20.707   7.061  0.00  0.00    +0.105 C 
ATOM     20  N   LIG    1       22.994 -21.250   5.738  0.00  0.00    -0.302 NA
ATOM     21  C   LIG    1       22.012 -20.569   4.881  0.00  0.00    +0.059 C 
ATOM     22  C   LIG    1       22.229 -21.376   3.600  0.00  0.00    +0.020 C 
ATOM     23  C   LIG    1       23.737 -21.571   3.525  0.00  0.00    +0.017 C 
ATOM     24  C   LIG    1       24.221 -21.426   4.962  0.00  0.00    +0.084 C 
ENDBRANCH  18  21
ENDBRANCH  17  18
ENDBRANCH  16  17
ENDBRANCH   1  16
TORSDOF 6
ENDMDL
MODEL 4
REMARK VINA RESULT:      -0.2      1.827      5.256
REMARK  Name = *****
REMARK                            x       y       z     vdW  Elec       q    Type
REMARK                         _______ _______ _______ _____ _____    ______ ____
ROOT
ATOM      1  C   LIG    1       23.498 -18.777   4.395  0.00  0.00    +0.117 C 
ATOM      2  C   LIG    1       23.723 -19.075   5.901  0.00  0.00    +0.052 C 
ENDROOT
BRANCH   1   3
ATOM      3  C   LIG    1       23.957 -17.302   4.192  0.00  0.00    -0.012 A 
ATOM      4  C   LIG    1       23.129 -16.214   4.522  0.00  0.00    +0.008 A 
ATOM      5  C   LIG    1       23.525 -14.896   4.260  0.00  0.00    +0.020 A 
ATOM      6  C   LIG    1       24.755 -14.644   3.661  0.00  0.00    +0.041 A 
ATOM      7 CL   LIG    1       25.224 -13.024   3.311  0.00  0.00    -0.084 Cl
ATOM      8  C   LIG    1       25.604 -15.697   3.342  0.00  0.00    +0.020 A 
ATOM      9  C   LIG    1       25.214 -17.013   3.614  0.00  0.00    +0.008 A 
ENDBRANCH   1   3
BRANCH   1  10
ATOM     10  C   LIG    1       22.038 -18.972   3.937  0.00  0.00    -0.012 A 
ATOM     11  C   LIG    1       21.302 -20.136   4.218  0.00  0.00    +0.007 A 
ATOM     12  C   LIG    1       19.987 -20.302   3.781  0.00  0.00    +0.000 A 
ATOM     13  C   LIG    1       19.363 -19.298   3.048  0.00  0.00    +0.000 A 
ATOM     14  C   LIG    1       20.063 -18.131   2.754  0.00  0.00    +0.000 A 
ATOM     15  C   LIG    1       21.381 -17.966   3.185  0.00  0.00    +0.007 A 
ENDBRANCH   1  10
BRANCH   1  16
ATOM     16  O   LIG    1       24.396 -19.628   3.624  0.00  0.00    -0.364 OA
BRANCH  16  17
ATOM     17  C   LIG    1       24.955 -20.761   4.299  0.00  0.00    +0.163 C 
BRANCH  17  18
ATOM     18  C   LIG    1       26.472 -20.573   4.478  0.00  0.00    +0.047 C 
BRANCH  18  21
ATOM     19  C   LIG    1       28.778 -18.590   4.905  0.00  0.00    +0.105 C 
ATOM     20  N   LIG    1       28.226 -19.414   5.960  0.00  0.00    -0.302 NA
ATOM     21  C   LIG    1       26.837 -19.875   5.810  0.00  0.00    +0.059 C 
ATOM     22  C   LIG    1       26.768 -20.792   7.032  0.00  0.00    +0.020 C 
ATOM     23  C   LIG    1       28.117 -21.499   7.053  0.00  0.00    +0.017 C 
ATOM     24  C   LIG    1       29.052 -20.577   6.281  0.00  0.00    +0.084 C 
ENDBRANCH  18  21
ENDBRANCH  17  18
ENDBRANCH  16  17
ENDBRANCH   1  16
TORSDOF 6
ENDMDL
MODEL 5
REMARK VINA RESULT:       0.7      0.990      1.892
REMARK  Name = *****
REMARK                            x       y       z     vdW  Elec       q    Type
REMARK                         _______ _______ _______ _____ _____    ______ ____
ROOT
ATOM      1  C   LIG    1       26.360 -18.779   3.883  0.00  0.00    +0.117 C 
ATOM      2  C   LIG    1       26.789 -19.291   2.483  0.00  0.00    +0.052 C 
ENDROOT
BRANCH   1   3
ATOM      3  C   LIG    1       26.200 -17.237   3.730  0.00  0.00    -0.012 A 
ATOM      4  C   LIG    1       27.311 -16.376   3.684  0.00  0.00    +0.008 A 
ATOM      5  C   LIG    1       27.149 -14.986   3.625  0.00  0.00    +0.020 A 
ATOM      6  C   LIG    1       25.872 -14.433   3.613  0.00  0.00    +0.041 A 
ATOM      7 CL   LIG    1       25.677 -12.722   3.573  0.00  0.00    -0.084 Cl
ATOM      8  C   LIG    1       24.755 -15.259   3.637  0.00  0.00    +0.020 A 
ATOM      9  C   LIG    1       24.916 -16.648   3.683  0.00  0.00    +0.008 A 
ENDBRANCH   1   3
BRANCH   1  10
ATOM     10  C   LIG    1       27.363 -19.125   5.003  0.00  0.00    -0.012 A 
ATOM     11  C   LIG    1       28.571 -18.429   5.183  0.00  0.00    +0.007 A 
ATOM     12  C   LIG    1       29.475 -18.766   6.192  0.00  0.00    +0.000 A 
ATOM     13  C   LIG    1       29.190 -19.814   7.061  0.00  0.00    +0.000 A 
ATOM     14  C   LIG    1       28.001 -20.523   6.913  0.00  0.00    +0.000 A 
ATOM     15  C   LIG    1       27.098 -20.191   5.900  0.00  0.00    +0.007 A 
ENDBRANCH   1  10
BRANCH   1  16
ATOM     16  O   LIG    1       25.044 -19.331   4.186  0.00  0.00    -0.364 OA
BRANCH  16  17
ATOM     17  C   LIG    1       24.483 -20.233   3.225  0.00  0.00    +0.163 C 
BRANCH  17  18
ATOM     18  C   LIG    1       23.037 -19.821   2.897  0.00  0.00    +0.047 C 
BRANCH  18  21
ATOM     19  C   LIG    1       22.376 -21.268   5.525  0.00  0.00    +0.105 C 
ATOM     20  N   LIG    1       21.612 -20.150   5.014  0.00  0.00    -0.302 NA
ATOM     21  C   LIG    1       22.296 -19.210   4.112  0.00  0.00    +0.059 C 
ATOM     22  C   LIG    1       21.096 -18.340   3.735  0.00  0.00    +0.020 C 
ATOM     23  C   LIG    1       19.952 -19.328   3.556  0.00  0.00    +0.017 C 
ATOM     24  C   LIG    1       20.355 -20.545   4.379  0.00  0.00    +0.084 C 
ENDBRANCH  18  21
ENDBRANCH  17  18
ENDBRANCH  16  17
ENDBRANCH   1  16
TORSDOF 6
ENDMDL
