MODEL 1
REMARK VINA RESULT:      -5.0      0.000      0.000
REMARK  Name = *****
REMARK                            x       y       z     vdW  Elec       q    Type
REMARK                         _______ _______ _______ _____ _____    ______ ____
ROOT
ATOM      1  C   LIG    1       23.424 -18.742   4.035  0.00  0.00    +0.121 A 
ATOM      2  C   LIG    1       24.627 -18.128   3.691  0.00  0.00    +0.046 A 
ATOM      3  C   LIG    1       24.752 -16.734   3.770  0.00  0.00    +0.009 A 
ATOM      4  C   LIG    1       23.658 -15.939   4.171  0.00  0.00    -0.022 A 
ATOM      5  C   LIG    1       22.477 -16.565   4.547  0.00  0.00    +0.009 A 
ATOM      6  C   LIG    1       22.353 -17.946   4.469  0.00  0.00    +0.046 A 
ENDROOT
BRANCH   1   7
ATOM      7  O   LIG    1       23.336 -20.100   3.896  0.00  0.00    -0.489 OA
BRANCH   7   8
ATOM      8  C   LIG    1       24.544 -20.815   4.177  0.00  0.00    +0.261 C 
BRANCH   8   9
ATOM      9  C   LIG    1       24.452 -21.571   5.505  0.00  0.00    +0.166 C 
BRANCH   9  10
ATOM     10  O   LIG    1       23.334 -21.076   6.258  0.00  0.00    -0.387 OA
ATOM     11  H   LIG    1       23.031 -21.804   6.829  0.00  0.00    +0.210 HD
ENDBRANCH   9  10
BRANCH   9  12
ATOM     12  C   LIG    1       25.745 -21.377   6.307  0.00  0.00    +0.115 C 
BRANCH  12  13
ATOM     13  N   LIG    1       26.741 -20.625   5.531  0.00  0.00    -0.311 NA
ATOM     14  H   LIG    1       27.173 -21.283   4.876  0.00  0.00    +0.122 HD
BRANCH  13  16
ATOM     15  C   LIG    1       28.561 -21.139   7.056  0.00  0.00    +0.024 C 
ATOM     16  C   LIG    1       27.769 -20.016   6.384  0.00  0.00    +0.048 C 
ATOM     17  C   LIG    1       28.735 -19.126   5.595  0.00  0.00    +0.024 C 
ENDBRANCH  13  16
ENDBRANCH  12  13
ENDBRANCH   9  12
ENDBRANCH   8   9
ENDBRANCH   7   8
ENDBRANCH   1   7
BRANCH   4  18
ATOM     18  C   LIG    1       23.760 -14.436   4.182  0.00  0.00    +0.195 C 
BRANCH  18  19
ATOM     19  O   LIG    1       23.761 -13.960   2.842  0.00  0.00    -0.373 OA
BRANCH  19  20
ATOM     20  C   LIG    1       24.736 -12.931   2.654  0.00  0.00    +0.188 C 
BRANCH  20  21
ATOM     21  C   LIG    1       26.083 -13.593   2.392  0.00  0.00    +0.188 C 
BRANCH  21  22
ATOM     22  O   LIG    1       27.144 -12.904   3.056  0.00  0.00    -0.375 OA
BRANCH  22  23
ATOM     23  C   LIG    1       27.689 -13.647   4.158  0.00  0.00    +0.112 C 
ATOM     24  C   LIG    1       27.558 -15.137   3.847  0.00  0.00    +0.037 C 
ATOM     25  C   LIG    1       26.962 -13.328   5.463  0.00  0.00    +0.037 C 
ENDBRANCH  22  23
ENDBRANCH  21  22
ENDBRANCH  20  21
ENDBRANCH  19  20
ENDBRANCH  18  19
ENDBRANCH   4  18
TORSDOF 13
ENDMDL
MODEL 2
REMARK VINA RESULT:      -4.9      2.284      7.377
REMARK  Name = *****
REMARK                            x       y       z     vdW  Elec       q    Type
REMARK                         _______ _______ _______ _____ _____    ______ ____
ROOT
ATOM      1  C   LIG    1       26.726 -17.264   3.580  0.00  0.00    +0.121 A 
ATOM      2  C   LIG    1       27.793 -17.557   4.428  0.00  0.00    +0.046 A 
ATOM      3  C   LIG    1       27.812 -18.766   5.139  0.00  0.00    +0.009 A 
ATOM      4  C   LIG    1       26.746 -19.681   5.025  0.00  0.00    -0.022 A 
ATOM      5  C   LIG    1       25.707 -19.393   4.150  0.00  0.00    +0.009 A 
ATOM      6  C   LIG    1       25.687 -18.197   3.445  0.00  0.00    +0.046 A 
ENDROOT
BRANCH   1   7
ATOM      7  O   LIG    1       26.728 -16.052   2.945  0.00  0.00    -0.489 OA
BRANCH   7   8
ATOM      8  C   LIG    1       27.227 -14.962   3.728  0.00  0.00    +0.261 C 
BRANCH   8   9
ATOM      9  C   LIG    1       27.481 -13.723   2.866  0.00  0.00    +0.166 C 
BRANCH   9  10
ATOM     10  O   LIG    1       28.449 -12.883   3.514  0.00  0.00    -0.387 OA
ATOM     11  H   LIG    1       29.005 -12.498   2.815  0.00  0.00    +0.210 HD
ENDBRANCH   9  10
BRANCH   9  12
ATOM     12  C   LIG    1       26.173 -12.948   2.666  0.00  0.00    +0.115 C 
BRANCH  12  13
ATOM     13  N   LIG    1       25.027 -13.863   2.566  0.00  0.00    -0.311 NA
ATOM     14  H   LIG    1       24.681 -13.811   1.604  0.00  0.00    +0.122 HD
BRANCH  13  16
ATOM     15  C   LIG    1       23.553 -14.789   4.259  0.00  0.00    +0.024 C 
ATOM     16  C   LIG    1       23.954 -13.519   3.506  0.00  0.00    +0.048 C 
ATOM     17  C   LIG    1       24.379 -12.451   4.519  0.00  0.00    +0.024 C 
ENDBRANCH  13  16
ENDBRANCH  12  13
ENDBRANCH   9  12
ENDBRANCH   8   9
ENDBRANCH   7   8
ENDBRANCH   1   7
BRANCH   4  18
ATOM     18  C   LIG    1       26.722 -20.944   5.846  0.00  0.00    +0.195 C 
BRANCH  18  19
ATOM     19  O   LIG    1       25.641 -20.881   6.767  0.00  0.00    -0.373 OA
BRANCH  19  20
ATOM     20  C   LIG    1       24.491 -21.571   6.272  0.00  0.00    +0.188 C 
BRANCH  20  21
ATOM     21  C   LIG    1       23.258 -20.994   6.956  0.00  0.00    +0.188 C 
BRANCH  21  22
ATOM     22  O   LIG    1       22.867 -19.752   6.369  0.00  0.00    -0.375 OA
BRANCH  22  23
ATOM     23  C   LIG    1       22.572 -19.865   4.966  0.00  0.00    +0.112 C 
ATOM     24  C   LIG    1       22.105 -18.501   4.460  0.00  0.00    +0.037 C 
ATOM     25  C   LIG    1       21.490 -20.911   4.705  0.00  0.00    +0.037 C 
ENDBRANCH  22  23
ENDBRANCH  21  22
ENDBRANCH  20  21
ENDBRANCH  19  20
ENDBRANCH  18  19
ENDBRANCH   4  18
TORSDOF 13
ENDMDL
MODEL 3
REMARK VINA RESULT:      -4.6      1.925      6.763
REMARK  Name = *****
REMARK                            x       y       z     vdW  Elec       q    Type
REMARK                         _______ _______ _______ _____ _____    ______ ____
ROOT
ATOM      1  C   LIG    1       23.542 -15.850   4.215  0.00  0.00    +0.121 A 
ATOM      2  C   LIG    1       24.559 -16.671   3.731  0.00  0.00    +0.046 A 
ATOM      3  C   LIG    1       24.385 -18.063   3.705  0.00  0.00    +0.009 A 
ATOM      4  C   LIG    1       23.197 -18.645   4.190  0.00  0.00    -0.022 A 
ATOM      5  C   LIG    1       22.177 -17.814   4.636  0.00  0.00    +0.009 A 
ATOM      6  C   LIG    1       22.348 -16.436   4.662  0.00  0.00    +0.046 A 
ENDROOT
BRANCH   1   7
ATOM      7  O   LIG    1       23.777 -14.503   4.266  0.00  0.00    -0.489 OA
BRANCH   7   8
ATOM      8  C   LIG    1       23.813 -13.850   2.993  0.00  0.00    +0.261 C 
BRANCH   8   9
ATOM      9  C   LIG    1       24.542 -12.506   3.072  0.00  0.00    +0.166 C 
BRANCH   9  10
ATOM     10  O   LIG    1       23.894 -11.561   2.207  0.00  0.00    -0.387 OA
ATOM     11  H   LIG    1       23.811 -11.984   1.334  0.00  0.00    +0.210 HD
ENDBRANCH   9  10
BRANCH   9  12
ATOM     12  C   LIG    1       26.005 -12.680   2.649  0.00  0.00    +0.115 C 
BRANCH  12  13
ATOM     13  N   LIG    1       26.487 -14.035   2.953  0.00  0.00    -0.311 NA
ATOM     14  H   LIG    1       25.676 -14.584   3.252  0.00  0.00    +0.122 HD
BRANCH  13  16
ATOM     15  C   LIG    1       28.581 -13.010   3.632  0.00  0.00    +0.024 C 
ATOM     16  C   LIG    1       27.513 -14.040   4.002  0.00  0.00    +0.048 C 
ATOM     17  C   LIG    1       26.944 -13.697   5.383  0.00  0.00    +0.024 C 
ENDBRANCH  13  16
ENDBRANCH  12  13
ENDBRANCH   9  12
ENDBRANCH   8   9
ENDBRANCH   7   8
ENDBRANCH   1   7
BRANCH   4  18
ATOM     18  C   LIG    1       23.035 -20.142   4.239  0.00  0.00    +0.195 C 
BRANCH  18  19
ATOM     19  O   LIG    1       22.480 -20.510   5.495  0.00  0.00    -0.373 OA
BRANCH  19  20
ATOM     20  C   LIG    1       23.453 -20.432   6.540  0.00  0.00    +0.188 C 
BRANCH  20  21
ATOM     21  C   LIG    1       24.635 -21.313   6.157  0.00  0.00    +0.188 C 
BRANCH  21  22
ATOM     22  O   LIG    1       25.800 -20.986   6.916  0.00  0.00    -0.375 OA
BRANCH  22  23
ATOM     23  C   LIG    1       26.997 -20.967   6.121  0.00  0.00    +0.112 C 
ATOM     24  C   LIG    1       28.201 -20.964   7.062  0.00  0.00    +0.037 C 
ATOM     25  C   LIG    1       27.048 -19.738   5.215  0.00  0.00    +0.037 C 
ENDBRANCH  22  23
ENDBRANCH  21  22
ENDBRANCH  20  21
ENDBRANCH  19  20
ENDBRANCH  18  19
ENDBRANCH   4  18
TORSDOF 13
ENDMDL
MODEL 4
REMARK VINA RESULT:      -3.6      1.896      4.214
REMARK  Name = *****
REMARK                            x       y       z     vdW  Elec       q    Type
REMARK                         _______ _______ _______ _____ _____    ______ ____
ROOT
ATOM      1  C   LIG    1       26.308 -19.716   4.364  0.00  0.00    +0.121 A 
ATOM      2  C   LIG    1       25.589 -18.853   3.537  0.00  0.00    +0.046 A 
ATOM      3  C   LIG    1       26.034 -17.538   3.338  0.00  0.00    +0.009 A 
ATOM      4  C   LIG    1       27.193 -17.068   3.990  0.00  0.00    -0.022 A 
ATOM      5  C   LIG    1       27.920 -17.948   4.781  0.00  0.00    +0.009 A 
ATOM      6  C   LIG    1       27.480 -19.251   4.979  0.00  0.00    +0.046 A 
ENDROOT
BRANCH   1   7
ATOM      7  O   LIG    1       25.808 -20.973   4.565  0.00  0.00    -0.489 OA
BRANCH   7   8
ATOM      8  C   LIG    1       25.071 -21.142   5.780  0.00  0.00    +0.261 C 
BRANCH   8   9
ATOM      9  C   LIG    1       23.571 -21.279   5.512  0.00  0.00    +0.166 C 
BRANCH   9  10
ATOM     10  O   LIG    1       23.361 -21.571   4.122  0.00  0.00    -0.387 OA
ATOM     11  H   LIG    1       24.035 -22.223   3.862  0.00  0.00    +0.210 HD
ENDBRANCH   9  10
BRANCH   9  12
ATOM     12  C   LIG    1       22.852 -19.976   5.883  0.00  0.00    +0.115 C 
BRANCH  12  13
ATOM     13  N   LIG    1       21.711 -19.730   4.989  0.00  0.00    -0.311 NA
ATOM     14  H   LIG    1       21.536 -20.598   4.476  0.00  0.00    +0.122 HD
BRANCH  13  16
ATOM     15  C   LIG    1       20.698 -18.407   3.223  0.00  0.00    +0.024 C 
ATOM     16  C   LIG    1       21.965 -18.631   4.050  0.00  0.00    +0.048 C 
ATOM     17  C   LIG    1       22.336 -17.325   4.760  0.00  0.00    +0.024 C 
ENDBRANCH  13  16
ENDBRANCH  12  13
ENDBRANCH   9  12
ENDBRANCH   8   9
ENDBRANCH   7   8
ENDBRANCH   1   7
BRANCH   4  18
ATOM     18  C   LIG    1       27.632 -15.634   3.844  0.00  0.00    +0.195 C 
BRANCH  18  19
ATOM     19  O   LIG    1       26.916 -15.035   2.772  0.00  0.00    -0.373 OA
BRANCH  19  20
ATOM     20  C   LIG    1       27.343 -13.690   2.545  0.00  0.00    +0.188 C 
BRANCH  20  21
ATOM     21  C   LIG    1       26.197 -12.757   2.917  0.00  0.00    +0.188 C 
BRANCH  21  22
ATOM     22  O   LIG    1       25.033 -13.021   2.132  0.00  0.00    -0.375 OA
BRANCH  22  23
ATOM     23  C   LIG    1       23.818 -12.961   2.898  0.00  0.00    +0.112 C 
ATOM     24  C   LIG    1       23.686 -11.558   3.486  0.00  0.00    +0.037 C 
ATOM     25  C   LIG    1       23.816 -13.995   4.024  0.00  0.00    +0.037 C 
ENDBRANCH  22  23
ENDBRANCH  21  22
ENDBRANCH  20  21
ENDBRANCH  19  20
ENDBRANCH  18  19
ENDBRANCH   4  18
TORSDOF 13
ENDMDL
MODEL 5
REMARK VINA RESULT:      -3.1      1.923      4.172
REMARK  Name = *****
REMARK                            x       y       z     vdW  Elec       q    Type
REMARK                         _______ _______ _______ _____ _____    ______ ____
ROOT
ATOM      1  C   LIG    1       27.260 -17.947   4.289  0.00  0.00    +0.121 A 
ATOM      2  C   LIG    1       26.152 -17.762   3.465  0.00  0.00    +0.046 A 
ATOM      3  C   LIG    1       25.867 -16.489   2.948  0.00  0.00    +0.009 A 
ATOM      4  C   LIG    1       26.678 -15.385   3.278  0.00  0.00    -0.022 A 
ATOM      5  C   LIG    1       27.800 -15.590   4.070  0.00  0.00    +0.009 A 
ATOM      6  C   LIG    1       28.084 -16.850   4.582  0.00  0.00    +0.046 A 
ENDROOT
BRANCH   1   7
ATOM      7  O   LIG    1       27.470 -19.196   4.807  0.00  0.00    -0.489 OA
BRANCH   7   8
ATOM      8  C   LIG    1       28.540 -19.284   5.755  0.00  0.00    +0.261 C 
BRANCH   8   9
ATOM      9  C   LIG    1       28.219 -20.279   6.872  0.00  0.00    +0.166 C 
BRANCH   9  10
ATOM     10  O   LIG    1       28.863 -21.532   6.593  0.00  0.00    -0.387 OA
ATOM     11  H   LIG    1       28.949 -22.004   7.440  0.00  0.00    +0.210 HD
ENDBRANCH   9  10
BRANCH   9  12
ATOM     12  C   LIG    1       26.703 -20.485   6.970  0.00  0.00    +0.115 C 
BRANCH  12  13
ATOM     13  N   LIG    1       26.259 -21.570   6.083  0.00  0.00    -0.311 NA
ATOM     14  H   LIG    1       26.734 -21.441   5.185  0.00  0.00    +0.122 HD
BRANCH  13  16
ATOM     15  C   LIG    1       24.163 -20.831   7.062  0.00  0.00    +0.024 C 
ATOM     16  C   LIG    1       24.804 -21.572   5.887  0.00  0.00    +0.048 C 
ATOM     17  C   LIG    1       24.387 -20.892   4.579  0.00  0.00    +0.024 C 
ENDBRANCH  13  16
ENDBRANCH  12  13
ENDBRANCH   9  12
ENDBRANCH   8   9
ENDBRANCH   7   8
ENDBRANCH   1   7
BRANCH   4  18
ATOM     18  C   LIG    1       26.332 -14.001   2.792  0.00  0.00    +0.195 C 
BRANCH  18  19
ATOM     19  O   LIG    1       25.686 -13.288   3.838  0.00  0.00    -0.373 OA
BRANCH  19  20
ATOM     20  C   LIG    1       24.271 -13.233   3.638  0.00  0.00    +0.188 C 
BRANCH  20  21
ATOM     21  C   LIG    1       23.607 -14.123   4.681  0.00  0.00    +0.188 C 
BRANCH  21  22
ATOM     22  O   LIG    1       23.448 -15.460   4.204  0.00  0.00    -0.375 OA
BRANCH  22  23
ATOM     23  C   LIG    1       22.239 -16.080   4.673  0.00  0.00    +0.112 C 
ATOM     24  C   LIG    1       21.964 -15.589   6.093  0.00  0.00    +0.037 C 
ATOM     25  C   LIG    1       22.353 -17.604   4.667  0.00  0.00    +0.037 C 
ENDBRANCH  22  23
ENDBRANCH  21  22
ENDBRANCH  20  21
ENDBRANCH  19  20
ENDBRANCH  18  19
ENDBRANCH   4  18
TORSDOF 13
ENDMDL
MODEL 6
REMARK VINA RESULT:      -2.3      2.335      6.897
REMARK  Name = *****
REMARK                            x       y       z     vdW  Elec       q    Type
REMARK                         _______ _______ _______ _____ _____    ______ ____
ROOT
ATOM      1  C   LIG    1       26.635 -16.755   3.370  0.00  0.00    +0.121 A 
ATOM      2  C   LIG    1       27.782 -16.953   4.137  0.00  0.00    +0.046 A 
ATOM      3  C   LIG    1       27.960 -18.156   4.836  0.00  0.00    +0.009 A 
ATOM      4  C   LIG    1       26.973 -19.162   4.791  0.00  0.00    -0.022 A 
ATOM      5  C   LIG    1       25.853 -18.967   3.994  0.00  0.00    +0.009 A 
ATOM      6  C   LIG    1       25.676 -17.777   3.301  0.00  0.00    +0.046 A 
ENDROOT
BRANCH   1   7
ATOM      7  O   LIG    1       26.484 -15.547   2.746  0.00  0.00    -0.489 OA
BRANCH   7   8
ATOM      8  C   LIG    1       25.151 -15.026   2.754  0.00  0.00    +0.261 C 
BRANCH   8   9
ATOM      9  C   LIG    1       24.779 -14.459   4.126  0.00  0.00    +0.166 C 
BRANCH   9  10
ATOM     10  O   LIG    1       23.433 -14.842   4.451  0.00  0.00    -0.387 OA
ATOM     11  H   LIG    1       23.345 -15.786   4.232  0.00  0.00    +0.210 HD
ENDBRANCH   9  10
BRANCH   9  12
ATOM     12  C   LIG    1       24.893 -12.930   4.109  0.00  0.00    +0.115 C 
BRANCH  12  13
ATOM     13  N   LIG    1       25.950 -12.469   5.021  0.00  0.00    -0.311 NA
ATOM     14  H   LIG    1       26.257 -11.551   4.688  0.00  0.00    +0.122 HD
BRANCH  13  16
ATOM     15  C   LIG    1       28.299 -12.697   4.448  0.00  0.00    +0.024 C 
ATOM     16  C   LIG    1       27.088 -13.394   5.070  0.00  0.00    +0.048 C 
ATOM     17  C   LIG    1       27.437 -13.821   6.499  0.00  0.00    +0.024 C 
ENDBRANCH  13  16
ENDBRANCH  12  13
ENDBRANCH   9  12
ENDBRANCH   8   9
ENDBRANCH   7   8
ENDBRANCH   1   7
BRANCH   4  18
ATOM     18  C   LIG    1       27.120 -20.424   5.602  0.00  0.00    +0.195 C 
BRANCH  18  19
ATOM     19  O   LIG    1       26.061 -20.495   6.548  0.00  0.00    -0.373 OA
BRANCH  19  20
ATOM     20  C   LIG    1       25.168 -21.571   6.252  0.00  0.00    +0.188 C 
BRANCH  20  21
ATOM     21  C   LIG    1       23.841 -21.293   6.947  0.00  0.00    +0.188 C 
BRANCH  21  22
ATOM     22  O   LIG    1       23.300 -20.029   6.555  0.00  0.00    -0.375 OA
BRANCH  22  23
ATOM     23  C   LIG    1       22.450 -20.119   5.400  0.00  0.00    +0.112 C 
ATOM     24  C   LIG    1       23.052 -21.141   4.436  0.00  0.00    +0.037 C 
ATOM     25  C   LIG    1       22.313 -18.768   4.700  0.00  0.00    +0.037 C 
ENDBRANCH  22  23
ENDBRANCH  21  22
ENDBRANCH  20  21
ENDBRANCH  19  20
ENDBRANCH  18  19
ENDBRANCH   4  18
TORSDOF 13
ENDMDL
MODEL 7
REMARK VINA RESULT:      -2.1      2.052      7.082
REMARK  Name = *****
REMARK                            x       y       z     vdW  Elec       q    Type
REMARK                         _______ _______ _______ _____ _____    ______ ____
ROOT
ATOM      1  C   LIG    1       26.727 -14.760   3.340  0.00  0.00    +0.121 A 
ATOM      2  C   LIG    1       27.810 -14.668   4.213  0.00  0.00    +0.046 A 
ATOM      3  C   LIG    1       28.396 -15.832   4.730  0.00  0.00    +0.009 A 
ATOM      4  C   LIG    1       27.882 -17.101   4.396  0.00  0.00    -0.022 A 
ATOM      5  C   LIG    1       26.826 -17.181   3.497  0.00  0.00    +0.009 A 
ATOM      6  C   LIG    1       26.246 -16.029   2.984  0.00  0.00    +0.046 A 
ENDROOT
BRANCH   1   7
ATOM      7  O   LIG    1       26.159 -13.596   2.900  0.00  0.00    -0.489 OA
BRANCH   7   8
ATOM      8  C   LIG    1       24.889 -13.750   2.258  0.00  0.00    +0.261 C 
BRANCH   8   9
ATOM      9  C   LIG    1       23.755 -13.178   3.113  0.00  0.00    +0.166 C 
BRANCH   9  10
ATOM     10  O   LIG    1       23.960 -11.768   3.294  0.00  0.00    -0.387 OA
ATOM     11  H   LIG    1       23.455 -11.315   2.597  0.00  0.00    +0.210 HD
ENDBRANCH   9  10
BRANCH   9  12
ATOM     12  C   LIG    1       23.725 -13.878   4.477  0.00  0.00    +0.115 C 
BRANCH  12  13
ATOM     13  N   LIG    1       23.629 -15.336   4.321  0.00  0.00    -0.311 NA
ATOM     14  H   LIG    1       23.799 -15.547   3.334  0.00  0.00    +0.122 HD
BRANCH  13  16
ATOM     15  C   LIG    1       22.359 -17.383   4.631  0.00  0.00    +0.024 C 
ATOM     16  C   LIG    1       22.319 -15.857   4.729  0.00  0.00    +0.048 C 
ATOM     17  C   LIG    1       21.948 -15.458   6.162  0.00  0.00    +0.024 C 
ENDBRANCH  13  16
ENDBRANCH  12  13
ENDBRANCH   9  12
ENDBRANCH   8   9
ENDBRANCH   7   8
ENDBRANCH   1   7
BRANCH   4  18
ATOM     18  C   LIG    1       28.455 -18.352   5.010  0.00  0.00    +0.195 C 
BRANCH  18  19
ATOM     19  O   LIG    1       27.430 -19.332   5.114  0.00  0.00    -0.373 OA
BRANCH  19  20
ATOM     20  C   LIG    1       27.630 -20.179   6.248  0.00  0.00    +0.188 C 
BRANCH  20  21
ATOM     21  C   LIG    1       26.406 -21.074   6.396  0.00  0.00    +0.188 C 
BRANCH  21  22
ATOM     22  O   LIG    1       25.197 -20.347   6.171  0.00  0.00    -0.375 OA
BRANCH  22  23
ATOM     23  C   LIG    1       24.289 -21.033   5.292  0.00  0.00    +0.112 C 
ATOM     24  C   LIG    1       24.426 -20.433   3.893  0.00  0.00    +0.037 C 
ATOM     25  C   LIG    1       22.844 -20.904   5.769  0.00  0.00    +0.037 C 
ENDBRANCH  22  23
ENDBRANCH  21  22
ENDBRANCH  20  21
ENDBRANCH  19  20
ENDBRANCH  18  19
ENDBRANCH   4  18
TORSDOF 13
ENDMDL
