MODEL 1
REMARK VINA RESULT:      -8.7      0.000      0.000
REMARK  Name = *****
REMARK                            x       y       z     vdW  Elec       q    Type
REMARK                         _______ _______ _______ _____ _____    ______ ____
ROOT
ATOM      1  C   LIG    1       29.236 -19.786   6.494  0.00  0.00    +0.159 A 
ATOM      2  C   LIG    1       27.935 -19.708   6.044  0.00  0.00    +0.166 A 
ATOM      3  O   LIG    1       27.340 -19.125   4.956  0.00  0.00    -0.481 OA
ATOM      4  C   LIG    1       26.130 -19.954   4.769  0.00  0.00    +0.215 C 
ATOM      5  C   LIG    1       25.429 -20.137   6.107  0.00  0.00    +0.070 C 
ATOM      6  C   LIG    1       24.134 -21.364   6.041  0.00  0.00    +0.095 C 
ATOM      7  C   LIG    1       24.558 -22.799   7.316  0.00  0.00    +0.093 C 
ATOM      8  N   LIG    1       25.374 -23.699   6.617  0.00  0.00    -0.296 NA
ATOM      9  C   LIG    1       26.103 -22.515   6.236  0.00  0.00    +0.086 C 
ATOM     10  C   LIG    1       26.030 -22.498   8.559  0.00  0.00    +0.057 C 
ATOM     11  C   LIG    1       27.406 -21.438   7.971  0.00  0.00    -0.038 A 
ATOM     12  C   LIG    1       28.717 -21.473   8.361  0.00  0.00    +0.008 A 
ATOM     13  C   LIG    1       23.789 -21.546   4.533  0.00  0.00    +0.040 C 
ATOM     14  C   LIG    1       23.760 -20.163   3.803  0.00  0.00    +0.038 C 
ATOM     15  C   LIG    1       25.436 -20.908   7.240  0.00  0.00    +0.033 C 
ATOM     16  C   LIG    1       25.093 -19.355   3.815  0.00  0.00    +0.156 C 
ATOM     17  C   LIG    1       27.046 -20.433   6.769  0.00  0.00    +0.014 A 
ATOM     18  C   LIG    1       29.608 -20.627   7.622  0.00  0.00    +0.049 A 
ENDROOT
BRANCH   1  19
ATOM     19  O   LIG    1       30.200 -19.076   5.830  0.00  0.00    -0.503 OA
ATOM     20  H   LIG    1       30.878 -18.801   6.466  0.00  0.00    +0.292 HD
ENDBRANCH   1  19
BRANCH   6  21
ATOM     21  O   LIG    1       22.898 -20.755   6.553  0.00  0.00    -0.386 OA
ATOM     22  H   LIG    1       22.277 -20.709   5.803  0.00  0.00    +0.210 HD
ENDBRANCH   6  21
BRANCH  16  23
ATOM     23  O   LIG    1       25.629 -19.353   2.487  0.00  0.00    -0.388 OA
ATOM     24  H   LIG    1       25.540 -18.439   2.154  0.00  0.00    +0.210 HD
ENDBRANCH  16  23
BRANCH   8  25
ATOM     25  C   LIG    1       24.744 -24.527   5.609  0.00  0.00    +0.088 C 
BRANCH  25  26
ATOM     26  C   LIG    1       25.343 -25.931   5.624  0.00  0.00    +0.003 C 
ATOM     27  C   LIG    1       26.006 -26.396   6.951  0.00  0.00    +0.005 C 
ATOM     28  C   LIG    1       25.406 -27.791   6.679  0.00  0.00    +0.001 C 
ATOM     29  C   LIG    1       24.327 -27.085   5.834  0.00  0.00    +0.005 C 
ENDBRANCH  25  26
ENDBRANCH   8  25
TORSDOF 5
ENDMDL
MODEL 2
REMARK VINA RESULT:      -6.3      6.287      9.707
REMARK  Name = *****
REMARK                            x       y       z     vdW  Elec       q    Type
REMARK                         _______ _______ _______ _____ _____    ______ ____
ROOT
ATOM      1  C   LIG    1       25.408 -27.142   6.598  0.00  0.00    +0.159 A 
ATOM      2  C   LIG    1       25.912 -27.890   7.641  0.00  0.00    +0.166 A 
ATOM      3  O   LIG    1       26.666 -27.593   8.746  0.00  0.00    -0.481 OA
ATOM      4  C   LIG    1       26.280 -28.660   9.694  0.00  0.00    +0.215 C 
ATOM      5  C   LIG    1       26.327 -30.007   8.987  0.00  0.00    +0.070 C 
ATOM      6  C   LIG    1       25.593 -31.315   9.955  0.00  0.00    +0.095 C 
ATOM      7  C   LIG    1       24.088 -32.079   8.947  0.00  0.00    +0.093 C 
ATOM      8  N   LIG    1       22.976 -31.290   9.267  0.00  0.00    -0.296 NA
ATOM      9  C   LIG    1       23.859 -30.187   8.976  0.00  0.00    +0.086 C 
ATOM     10  C   LIG    1       23.881 -31.538   7.085  0.00  0.00    +0.057 C 
ATOM     11  C   LIG    1       24.436 -29.846   6.648  0.00  0.00    -0.038 A 
ATOM     12  C   LIG    1       23.970 -29.045   5.642  0.00  0.00    +0.008 A 
ATOM     13  C   LIG    1       25.545 -30.791  11.422  0.00  0.00    +0.040 C 
ATOM     14  C   LIG    1       26.867 -30.035  11.781  0.00  0.00    +0.038 C 
ATOM     15  C   LIG    1       25.588 -30.841   8.190  0.00  0.00    +0.033 C 
ATOM     16  C   LIG    1       27.194 -28.780  10.917  0.00  0.00    +0.156 C 
ATOM     17  C   LIG    1       25.512 -29.187   7.644  0.00  0.00    +0.014 A 
ATOM     18  C   LIG    1       24.483 -27.706   5.626  0.00  0.00    +0.049 A 
ENDROOT
BRANCH   1  19
ATOM     19  O   LIG    1       25.768 -25.824   6.507  0.00  0.00    -0.503 OA
ATOM     20  H   LIG    1       25.621 -25.400   7.367  0.00  0.00    +0.292 HD
ENDBRANCH   1  19
BRANCH   6  21
ATOM     21  O   LIG    1       26.570 -32.408  10.067  0.00  0.00    -0.386 OA
ATOM     22  H   LIG    1       26.885 -32.409  10.988  0.00  0.00    +0.210 HD
ENDBRANCH   6  21
BRANCH  16  23
ATOM     23  O   LIG    1       27.029 -27.617  11.736  0.00  0.00    -0.388 OA
ATOM     24  H   LIG    1       26.256 -27.788  12.308  0.00  0.00    +0.210 HD
ENDBRANCH  16  23
BRANCH   8  25
ATOM     25  C   LIG    1       22.408 -31.442  10.591  0.00  0.00    +0.088 C 
BRANCH  25  26
ATOM     26  C   LIG    1       21.666 -30.172  11.000  0.00  0.00    +0.003 C 
ATOM     27  C   LIG    1       20.443 -30.347  11.944  0.00  0.00    +0.005 C 
ATOM     28  C   LIG    1       20.897 -29.055  12.655  0.00  0.00    +0.001 C 
ATOM     29  C   LIG    1       22.321 -29.360  12.149  0.00  0.00    +0.005 C 
ENDBRANCH  25  26
ENDBRANCH   8  25
TORSDOF 5
ENDMDL
MODEL 3
REMARK VINA RESULT:      -6.3      6.476     11.054
REMARK  Name = *****
REMARK                            x       y       z     vdW  Elec       q    Type
REMARK                         _______ _______ _______ _____ _____    ______ ____
ROOT
ATOM      1  C   LIG    1       21.475 -32.526   9.965  0.00  0.00    +0.159 A 
ATOM      2  C   LIG    1       22.410 -32.734   8.974  0.00  0.00    +0.166 A 
ATOM      3  O   LIG    1       22.433 -33.493   7.833  0.00  0.00    -0.481 OA
ATOM      4  C   LIG    1       23.394 -32.762   6.980  0.00  0.00    +0.215 C 
ATOM      5  C   LIG    1       24.640 -32.432   7.789  0.00  0.00    +0.070 C 
ATOM      6  C   LIG    1       25.726 -31.295   6.943  0.00  0.00    +0.095 C 
ATOM      7  C   LIG    1       25.926 -29.676   8.040  0.00  0.00    +0.093 C 
ATOM      8  N   LIG    1       24.859 -28.840   7.683  0.00  0.00    -0.296 NA
ATOM      9  C   LIG    1       24.060 -30.027   7.867  0.00  0.00    +0.086 C 
ATOM     10  C   LIG    1       25.221 -29.724   9.858  0.00  0.00    +0.057 C 
ATOM     11  C   LIG    1       23.753 -30.783  10.148  0.00  0.00    -0.038 A 
ATOM     12  C   LIG    1       22.780 -30.625  11.098  0.00  0.00    +0.008 A 
ATOM     13  C   LIG    1       25.314 -31.342   5.441  0.00  0.00    +0.040 C 
ATOM     14  C   LIG    1       25.022 -32.814   4.996  0.00  0.00    +0.038 C 
ATOM     15  C   LIG    1       25.154 -31.511   8.665  0.00  0.00    +0.033 C 
ATOM     16  C   LIG    1       23.870 -33.541   5.750  0.00  0.00    +0.156 C 
ATOM     17  C   LIG    1       23.522 -31.962   9.080  0.00  0.00    +0.014 A 
ATOM     18  C   LIG    1       21.663 -31.518  10.998  0.00  0.00    +0.049 A 
ENDROOT
BRANCH   1  19
ATOM     19  O   LIG    1       20.326 -33.270   9.945  0.00  0.00    -0.503 OA
ATOM     20  H   LIG    1       20.505 -34.132  10.350  0.00  0.00    +0.292 HD
ENDBRANCH   1  19
BRANCH   6  21
ATOM     21  O   LIG    1       27.069 -31.891   6.897  0.00  0.00    -0.386 OA
ATOM     22  H   LIG    1       27.704 -31.152   6.906  0.00  0.00    +0.210 HD
ENDBRANCH   6  21
BRANCH  16  23
ATOM     23  O   LIG    1       22.770 -33.699   4.847  0.00  0.00    -0.388 OA
ATOM     24  H   LIG    1       22.857 -32.992   4.179  0.00  0.00    +0.210 HD
ENDBRANCH  16  23
BRANCH   8  25
ATOM     25  C   LIG    1       24.922 -28.195   6.387  0.00  0.00    +0.088 C 
BRANCH  25  26
ATOM     26  C   LIG    1       25.278 -26.719   6.546  0.00  0.00    +0.003 C 
ATOM     27  C   LIG    1       26.098 -26.068   5.396  0.00  0.00    +0.005 C 
ATOM     28  C   LIG    1       25.239 -24.802   5.596  0.00  0.00    +0.001 C 
ATOM     29  C   LIG    1       24.147 -25.720   6.182  0.00  0.00    +0.005 C 
ENDBRANCH  25  26
ENDBRANCH   8  25
TORSDOF 5
ENDMDL
MODEL 4
REMARK VINA RESULT:      -6.3      7.900     10.527
REMARK  Name = *****
REMARK                            x       y       z     vdW  Elec       q    Type
REMARK                         _______ _______ _______ _____ _____    ______ ____
ROOT
ATOM      1  C   LIG    1       22.592 -27.202  13.210  0.00  0.00    +0.159 A 
ATOM      2  C   LIG    1       22.321 -28.450  12.691  0.00  0.00    +0.166 A 
ATOM      3  O   LIG    1       21.174 -29.080  12.282  0.00  0.00    -0.481 OA
ATOM      4  C   LIG    1       21.679 -30.055  11.292  0.00  0.00    +0.215 C 
ATOM      5  C   LIG    1       22.876 -30.793  11.873  0.00  0.00    +0.070 C 
ATOM      6  C   LIG    1       23.738 -31.771  10.652  0.00  0.00    +0.095 C 
ATOM      7  C   LIG    1       25.592 -31.130  10.523  0.00  0.00    +0.093 C 
ATOM      8  N   LIG    1       25.568 -30.083   9.591  0.00  0.00    -0.296 NA
ATOM      9  C   LIG    1       24.447 -29.613  10.367  0.00  0.00    +0.086 C 
ATOM     10  C   LIG    1       26.205 -29.858  11.869  0.00  0.00    +0.057 C 
ATOM     11  C   LIG    1       24.948 -28.717  12.562  0.00  0.00    -0.038 A 
ATOM     12  C   LIG    1       25.146 -27.464  13.075  0.00  0.00    +0.008 A 
ATOM     13  C   LIG    1       22.744 -31.953   9.467  0.00  0.00    +0.040 C 
ATOM     14  C   LIG    1       21.300 -32.239   9.997  0.00  0.00    +0.038 C 
ATOM     15  C   LIG    1       24.232 -30.696  12.046  0.00  0.00    +0.033 C 
ATOM     16  C   LIG    1       20.665 -31.127  10.885  0.00  0.00    +0.156 C 
ATOM     17  C   LIG    1       23.420 -29.204  12.438  0.00  0.00    +0.014 A 
ATOM     18  C   LIG    1       23.957 -26.735  13.408  0.00  0.00    +0.049 A 
ENDROOT
BRANCH   1  19
ATOM     19  O   LIG    1       21.543 -26.376  13.508  0.00  0.00    -0.503 OA
ATOM     20  H   LIG    1       20.769 -26.656  12.994  0.00  0.00    +0.292 HD
ENDBRANCH   1  19
BRANCH   6  21
ATOM     21  O   LIG    1       23.846 -33.146  11.158  0.00  0.00    -0.386 OA
ATOM     22  H   LIG    1       24.724 -33.224  11.573  0.00  0.00    +0.210 HD
ENDBRANCH   6  21
BRANCH  16  23
ATOM     23  O   LIG    1       19.608 -30.509  10.143  0.00  0.00    -0.388 OA
ATOM     24  H   LIG    1       19.690 -29.547  10.293  0.00  0.00    +0.210 HD
ENDBRANCH  16  23
BRANCH   8  25
ATOM     25  C   LIG    1       25.396 -30.434   8.197  0.00  0.00    +0.088 C 
BRANCH  25  26
ATOM     26  C   LIG    1       24.535 -29.391   7.489  0.00  0.00    +0.003 C 
ATOM     27  C   LIG    1       25.253 -28.098   7.007  0.00  0.00    +0.005 C 
ATOM     28  C   LIG    1       24.364 -28.158   5.748  0.00  0.00    +0.001 C 
ATOM     29  C   LIG    1       24.242 -29.675   5.991  0.00  0.00    +0.005 C 
ENDBRANCH  25  26
ENDBRANCH   8  25
TORSDOF 5
ENDMDL
MODEL 5
REMARK VINA RESULT:      -6.1      7.341      9.989
REMARK  Name = *****
REMARK                            x       y       z     vdW  Elec       q    Type
REMARK                         _______ _______ _______ _____ _____    ______ ____
ROOT
ATOM      1  C   LIG    1       24.664 -27.030  13.266  0.00  0.00    +0.159 A 
ATOM      2  C   LIG    1       24.111 -28.214  12.825  0.00  0.00    +0.166 A 
ATOM      3  O   LIG    1       22.838 -28.721  12.815  0.00  0.00    -0.481 OA
ATOM      4  C   LIG    1       22.876 -29.660  11.673  0.00  0.00    +0.215 C 
ATOM      5  C   LIG    1       24.122 -30.529  11.773  0.00  0.00    +0.070 C 
ATOM      6  C   LIG    1       24.414 -31.481  10.291  0.00  0.00    +0.095 C 
ATOM      7  C   LIG    1       26.165 -30.979   9.552  0.00  0.00    +0.093 C 
ATOM      8  N   LIG    1       25.926 -29.870   8.728  0.00  0.00    -0.296 NA
ATOM      9  C   LIG    1       25.190 -29.371   9.863  0.00  0.00    +0.086 C 
ATOM     10  C   LIG    1       27.322 -29.857  10.650  0.00  0.00    +0.057 C 
ATOM     11  C   LIG    1       26.496 -28.674  11.781  0.00  0.00    -0.038 A 
ATOM     12  C   LIG    1       26.978 -27.479  12.242  0.00  0.00    +0.008 A 
ATOM     13  C   LIG    1       23.062 -31.502   9.518  0.00  0.00    +0.040 C 
ATOM     14  C   LIG    1       21.866 -31.711  10.506  0.00  0.00    +0.038 C 
ATOM     15  C   LIG    1       25.458 -30.550  11.468  0.00  0.00    +0.033 C 
ATOM     16  C   LIG    1       21.684 -30.619  11.602  0.00  0.00    +0.156 C 
ATOM     17  C   LIG    1       24.978 -29.031  12.176  0.00  0.00    +0.014 A 
ATOM     18  C   LIG    1       26.052 -26.685  12.996  0.00  0.00    +0.049 A 
ENDROOT
BRANCH   1  19
ATOM     19  O   LIG    1       23.865 -26.148  13.943  0.00  0.00    -0.503 OA
ATOM     20  H   LIG    1       24.407 -25.670  14.590  0.00  0.00    +0.292 HD
ENDBRANCH   1  19
BRANCH   6  21
ATOM     21  O   LIG    1       24.554 -32.894  10.673  0.00  0.00    -0.386 OA
ATOM     22  H   LIG    1       24.489 -33.414   9.852  0.00  0.00    +0.210 HD
ENDBRANCH   6  21
BRANCH  16  23
ATOM     23  O   LIG    1       20.503 -29.869  11.298  0.00  0.00    -0.388 OA
ATOM     24  H   LIG    1       19.941 -29.903  12.096  0.00  0.00    +0.210 HD
ENDBRANCH  16  23
BRANCH   8  25
ATOM     25  C   LIG    1       25.253 -30.107   7.468  0.00  0.00    +0.088 C 
BRANCH  25  26
ATOM     26  C   LIG    1       24.541 -28.841   7.000  0.00  0.00    +0.003 C 
ATOM     27  C   LIG    1       25.429 -27.593   6.736  0.00  0.00    +0.005 C 
ATOM     28  C   LIG    1       24.523 -27.291   5.524  0.00  0.00    +0.001 C 
ATOM     29  C   LIG    1       24.189 -28.796   5.488  0.00  0.00    +0.005 C 
ENDBRANCH  25  26
ENDBRANCH   8  25
TORSDOF 5
ENDMDL
MODEL 6
REMARK VINA RESULT:      -6.0      7.372     10.305
REMARK  Name = *****
REMARK                            x       y       z     vdW  Elec       q    Type
REMARK                         _______ _______ _______ _____ _____    ______ ____
ROOT
ATOM      1  C   LIG    1       25.800 -28.325   7.494  0.00  0.00    +0.159 A 
ATOM      2  C   LIG    1       26.174 -28.713   8.763  0.00  0.00    +0.166 A 
ATOM      3  O   LIG    1       27.027 -28.195   9.702  0.00  0.00    -0.481 OA
ATOM      4  C   LIG    1       26.459 -28.707  10.968  0.00  0.00    +0.215 C 
ATOM      5  C   LIG    1       26.173 -30.195  10.829  0.00  0.00    +0.070 C 
ATOM      6  C   LIG    1       25.213 -30.839  12.190  0.00  0.00    +0.095 C 
ATOM      7  C   LIG    1       23.530 -31.572  11.487  0.00  0.00    +0.093 C 
ATOM      8  N   LIG    1       22.637 -30.493  11.436  0.00  0.00    -0.296 NA
ATOM      9  C   LIG    1       23.728 -29.810  10.784  0.00  0.00    +0.086 C 
ATOM     10  C   LIG    1       23.359 -31.746   9.551  0.00  0.00    +0.057 C 
ATOM     11  C   LIG    1       24.256 -30.517   8.528  0.00  0.00    -0.038 A 
ATOM     12  C   LIG    1       23.931 -30.075   7.274  0.00  0.00    +0.008 A 
ATOM     13  C   LIG    1       25.352 -29.801  13.344  0.00  0.00    +0.040 C 
ATOM     14  C   LIG    1       26.824 -29.281  13.443  0.00  0.00    +0.038 C 
ATOM     15  C   LIG    1       25.230 -31.082  10.379  0.00  0.00    +0.033 C 
ATOM     16  C   LIG    1       27.380 -28.555  12.182  0.00  0.00    +0.156 C 
ATOM     17  C   LIG    1       25.497 -29.787   9.243  0.00  0.00    +0.014 A 
ATOM     18  C   LIG    1       24.728 -28.994   6.771  0.00  0.00    +0.049 A 
ENDROOT
BRANCH   1  19
ATOM     19  O   LIG    1       26.439 -27.257   6.923  0.00  0.00    -0.503 OA
ATOM     20  H   LIG    1       27.258 -27.568   6.509  0.00  0.00    +0.292 HD
ENDBRANCH   1  19
BRANCH   6  21
ATOM     21  O   LIG    1       25.927 -31.995  12.749  0.00  0.00    -0.386 OA
ATOM     22  H   LIG    1       26.486 -32.351  12.036  0.00  0.00    +0.210 HD
ENDBRANCH   6  21
BRANCH  16  23
ATOM     23  O   LIG    1       27.517 -27.163  12.489  0.00  0.00    -0.388 OA
ATOM     24  H   LIG    1       28.034 -26.768  11.760  0.00  0.00    +0.210 HD
ENDBRANCH  16  23
BRANCH   8  25
ATOM     25  C   LIG    1       22.113 -30.000  12.693  0.00  0.00    +0.088 C 
BRANCH  25  26
ATOM     26  C   LIG    1       21.570 -28.583  12.523  0.00  0.00    +0.003 C 
ATOM     27  C   LIG    1       20.448 -28.140  13.504  0.00  0.00    +0.005 C 
ATOM     28  C   LIG    1       21.122 -26.752  13.535  0.00  0.00    +0.001 C 
ATOM     29  C   LIG    1       22.437 -27.459  13.152  0.00  0.00    +0.005 C 
ENDBRANCH  25  26
ENDBRANCH   8  25
TORSDOF 5
ENDMDL
MODEL 7
REMARK VINA RESULT:      -5.7      1.638      2.708
REMARK  Name = *****
REMARK                            x       y       z     vdW  Elec       q    Type
REMARK                         _______ _______ _______ _____ _____    ______ ____
ROOT
ATOM      1  C   LIG    1       26.366 -19.011   4.044  0.00  0.00    +0.159 A 
ATOM      2  C   LIG    1       25.250 -19.565   4.633  0.00  0.00    +0.166 A 
ATOM      3  O   LIG    1       23.959 -19.767   4.219  0.00  0.00    -0.481 OA
ATOM      4  C   LIG    1       23.538 -20.925   5.036  0.00  0.00    +0.215 C 
ATOM      5  C   LIG    1       23.922 -20.688   6.489  0.00  0.00    +0.070 C 
ATOM      6  C   LIG    1       23.729 -22.149   7.497  0.00  0.00    +0.095 C 
ATOM      7  C   LIG    1       25.477 -22.624   8.262  0.00  0.00    +0.093 C 
ATOM      8  N   LIG    1       26.105 -23.432   7.304  0.00  0.00    -0.296 NA
ATOM      9  C   LIG    1       25.716 -22.391   6.384  0.00  0.00    +0.086 C 
ATOM     10  C   LIG    1       26.930 -21.338   8.064  0.00  0.00    +0.057 C 
ATOM     11  C   LIG    1       26.907 -20.289   6.560  0.00  0.00    -0.038 A 
ATOM     12  C   LIG    1       27.975 -19.724   5.917  0.00  0.00    +0.008 A 
ATOM     13  C   LIG    1       22.785 -23.099   6.702  0.00  0.00    +0.040 C 
ATOM     14  C   LIG    1       21.615 -22.293   6.047  0.00  0.00    +0.038 C 
ATOM     15  C   LIG    1       24.966 -20.809   7.369  0.00  0.00    +0.033 C 
ATOM     16  C   LIG    1       22.030 -21.193   5.025  0.00  0.00    +0.156 C 
ATOM     17  C   LIG    1       25.475 -20.118   5.851  0.00  0.00    +0.014 A 
ATOM     18  C   LIG    1       27.677 -19.076   4.673  0.00  0.00    +0.049 A 
ENDROOT
BRANCH   1  19
ATOM     19  O   LIG    1       26.231 -18.418   2.817  0.00  0.00    -0.503 OA
ATOM     20  H   LIG    1       27.097 -18.403   2.381  0.00  0.00    +0.292 HD
ENDBRANCH   1  19
BRANCH   6  21
ATOM     21  O   LIG    1       22.891 -21.802   8.652  0.00  0.00    -0.386 OA
ATOM     22  H   LIG    1       22.497 -20.931   8.462  0.00  0.00    +0.210 HD
ENDBRANCH   6  21
BRANCH  16  23
ATOM     23  O   LIG    1       21.645 -21.628   3.716  0.00  0.00    -0.388 OA
ATOM     24  H   LIG    1       22.462 -21.931   3.274  0.00  0.00    +0.210 HD
ENDBRANCH  16  23
BRANCH   8  25
ATOM     25  C   LIG    1       25.603 -24.780   7.135  0.00  0.00    +0.088 C 
BRANCH  25  26
ATOM     26  C   LIG    1       25.946 -25.305   5.743  0.00  0.00    +0.003 C 
ATOM     27  C   LIG    1       26.696 -26.665   5.671  0.00  0.00    +0.005 C 
ATOM     28  C   LIG    1       25.831 -26.996   4.437  0.00  0.00    +0.001 C 
ATOM     29  C   LIG    1       24.784 -26.011   4.994  0.00  0.00    +0.005 C 
ENDBRANCH  25  26
ENDBRANCH   8  25
TORSDOF 5
ENDMDL
