MODEL 1
REMARK VINA RESULT:      -6.5      0.000      0.000
REMARK  Name = *****
REMARK                            x       y       z     vdW  Elec       q    Type
REMARK                         _______ _______ _______ _____ _____    ______ ____
ROOT
ATOM      1  C   LIG    1       24.485 -23.029   5.983  0.00  0.00    +0.017 C 
ATOM      2  C   LIG    1       24.447 -22.212   4.673  0.00  0.00    +0.025 C 
ATOM      3  C   LIG    1       24.555 -20.709   4.986  0.00  0.00    -0.009 C 
ATOM      4  C   LIG    1       25.878 -20.437   5.722  0.00  0.00    +0.007 C 
ATOM      5  C   LIG    1       25.925 -21.237   7.035  0.00  0.00    -0.009 C 
ATOM      6  C   LIG    1       24.743 -20.821   7.926  0.00  0.00    +0.007 C 
ATOM      7  C   LIG    1       23.414 -21.091   7.201  0.00  0.00    -0.009 C 
ATOM      8  C   LIG    1       23.381 -20.292   5.887  0.00  0.00    +0.007 C 
ATOM      9  C   LIG    1       25.814 -22.739   6.717  0.00  0.00    +0.025 C 
ATOM     10  C   LIG    1       23.308 -22.593   6.883  0.00  0.00    +0.025 C 
ENDROOT
BRANCH   1  11
ATOM     11  N   LIG    1       24.371 -24.456   5.680  0.00  0.00    -0.325 NA
ATOM     12  H   LIG    1       24.372 -24.994   6.545  0.00  0.00    +0.119 HD
ATOM     13  H   LIG    1       23.476 -24.643   5.231  0.00  0.00    +0.119 HD
ENDBRANCH   1  11
TORSDOF 1
ENDMDL
MODEL 2
REMARK VINA RESULT:      -6.5      0.009      2.274
REMARK  Name = *****
REMARK                            x       y       z     vdW  Elec       q    Type
REMARK                         _______ _______ _______ _____ _____    ______ ____
ROOT
ATOM      1  C   LIG    1       24.484 -23.026   5.973  0.00  0.00    +0.017 C 
ATOM      2  C   LIG    1       23.305 -22.596   6.872  0.00  0.00    +0.025 C 
ATOM      3  C   LIG    1       23.409 -21.095   7.198  0.00  0.00    -0.009 C 
ATOM      4  C   LIG    1       23.377 -20.288   5.888  0.00  0.00    +0.007 C 
ATOM      5  C   LIG    1       24.553 -20.699   4.986  0.00  0.00    -0.009 C 
ATOM      6  C   LIG    1       25.876 -20.434   5.724  0.00  0.00    +0.007 C 
ATOM      7  C   LIG    1       25.921 -21.238   7.034  0.00  0.00    -0.009 C 
ATOM      8  C   LIG    1       24.737 -20.824   7.925  0.00  0.00    +0.007 C 
ATOM      9  C   LIG    1       24.446 -22.201   4.666  0.00  0.00    +0.025 C 
ATOM     10  C   LIG    1       25.810 -22.739   6.711  0.00  0.00    +0.025 C 
ENDROOT
BRANCH   1  11
ATOM     11  N   LIG    1       24.385 -24.455   5.676  0.00  0.00    -0.325 NA
ATOM     12  H   LIG    1       23.434 -24.778   5.845  0.00  0.00    +0.119 HD
ATOM     13  H   LIG    1       24.567 -24.616   4.687  0.00  0.00    +0.119 HD
ENDBRANCH   1  11
TORSDOF 1
ENDMDL
MODEL 3
REMARK VINA RESULT:      -6.5      0.011      2.275
REMARK  Name = *****
REMARK                            x       y       z     vdW  Elec       q    Type
REMARK                         _______ _______ _______ _____ _____    ______ ____
ROOT
ATOM      1  C   LIG    1       24.486 -23.026   5.974  0.00  0.00    +0.017 C 
ATOM      2  C   LIG    1       25.812 -22.739   6.711  0.00  0.00    +0.025 C 
ATOM      3  C   LIG    1       25.923 -21.238   7.034  0.00  0.00    -0.009 C 
ATOM      4  C   LIG    1       24.740 -20.822   7.925  0.00  0.00    +0.007 C 
ATOM      5  C   LIG    1       23.411 -21.092   7.198  0.00  0.00    -0.009 C 
ATOM      6  C   LIG    1       23.378 -20.290   5.887  0.00  0.00    +0.007 C 
ATOM      7  C   LIG    1       24.555 -20.700   4.986  0.00  0.00    -0.009 C 
ATOM      8  C   LIG    1       25.877 -20.432   5.725  0.00  0.00    +0.007 C 
ATOM      9  C   LIG    1       23.307 -22.594   6.875  0.00  0.00    +0.025 C 
ATOM     10  C   LIG    1       24.448 -22.202   4.667  0.00  0.00    +0.025 C 
ENDROOT
BRANCH   1  11
ATOM     11  N   LIG    1       24.392 -24.451   5.660  0.00  0.00    -0.325 NA
ATOM     12  H   LIG    1       24.057 -24.574   4.706  0.00  0.00    +0.119 HD
ATOM     13  H   LIG    1       25.318 -24.873   5.691  0.00  0.00    +0.119 HD
ENDBRANCH   1  11
TORSDOF 1
ENDMDL
MODEL 4
REMARK VINA RESULT:      -6.3      1.451      2.962
REMARK  Name = *****
REMARK                            x       y       z     vdW  Elec       q    Type
REMARK                         _______ _______ _______ _____ _____    ______ ____
ROOT
ATOM      1  C   LIG    1       25.082 -21.025   5.233  0.00  0.00    +0.017 C 
ATOM      2  C   LIG    1       24.844 -22.542   5.073  0.00  0.00    +0.025 C 
ATOM      3  C   LIG    1       24.469 -23.165   6.430  0.00  0.00    -0.009 C 
ATOM      4  C   LIG    1       23.187 -22.497   6.957  0.00  0.00    +0.007 C 
ATOM      5  C   LIG    1       23.412 -20.986   7.132  0.00  0.00    -0.009 C 
ATOM      6  C   LIG    1       24.562 -20.756   8.127  0.00  0.00    +0.007 C 
ATOM      7  C   LIG    1       25.850 -21.416   7.609  0.00  0.00    -0.009 C 
ATOM      8  C   LIG    1       25.611 -22.925   7.431  0.00  0.00    +0.007 C 
ATOM      9  C   LIG    1       23.790 -20.369   5.772  0.00  0.00    +0.025 C 
ATOM     10  C   LIG    1       26.223 -20.799   6.249  0.00  0.00    +0.025 C 
ENDROOT
BRANCH   1  11
ATOM     11  N   LIG    1       25.448 -20.442   3.943  0.00  0.00    -0.325 NA
ATOM     12  H   LIG    1       24.965 -20.931   3.192  0.00  0.00    +0.119 HD
ATOM     13  H   LIG    1       25.134 -19.474   3.899  0.00  0.00    +0.119 HD
ENDBRANCH   1  11
TORSDOF 1
ENDMDL
MODEL 5
REMARK VINA RESULT:      -6.3      1.591      2.782
REMARK  Name = *****
REMARK                            x       y       z     vdW  Elec       q    Type
REMARK                         _______ _______ _______ _____ _____    ______ ____
ROOT
ATOM      1  C   LIG    1       25.895 -21.310   7.476  0.00  0.00    +0.017 C 
ATOM      2  C   LIG    1       25.745 -22.840   7.329  0.00  0.00    +0.025 C 
ATOM      3  C   LIG    1       24.532 -23.168   6.439  0.00  0.00    -0.009 C 
ATOM      4  C   LIG    1       24.735 -22.535   5.052  0.00  0.00    +0.007 C 
ATOM      5  C   LIG    1       24.876 -21.009   5.182  0.00  0.00    -0.009 C 
ATOM      6  C   LIG    1       23.605 -20.436   5.831  0.00  0.00    +0.007 C 
ATOM      7  C   LIG    1       23.393 -21.059   7.221  0.00  0.00    -0.009 C 
ATOM      8  C   LIG    1       23.260 -22.585   7.079  0.00  0.00    +0.007 C 
ATOM      9  C   LIG    1       26.088 -20.687   6.075  0.00  0.00    +0.025 C 
ATOM     10  C   LIG    1       24.608 -20.737   8.109  0.00  0.00    +0.025 C 
ENDROOT
BRANCH   1  11
ATOM     11  N   LIG    1       27.042 -21.006   8.331  0.00  0.00    -0.325 NA
ATOM     12  H   LIG    1       27.503 -20.158   8.004  0.00  0.00    +0.119 HD
ATOM     13  H   LIG    1       26.724 -20.807   9.278  0.00  0.00    +0.119 HD
ENDBRANCH   1  11
TORSDOF 1
ENDMDL
MODEL 6
REMARK VINA RESULT:      -6.3      1.426      2.649
REMARK  Name = *****
REMARK                            x       y       z     vdW  Elec       q    Type
REMARK                         _______ _______ _______ _____ _____    ______ ____
ROOT
ATOM      1  C   LIG    1       24.630 -20.854   5.002  0.00  0.00    +0.017 C 
ATOM      2  C   LIG    1       23.431 -20.393   5.858  0.00  0.00    +0.025 C 
ATOM      3  C   LIG    1       23.463 -21.090   7.231  0.00  0.00    -0.009 C 
ATOM      4  C   LIG    1       24.775 -20.733   7.950  0.00  0.00    +0.007 C 
ATOM      5  C   LIG    1       25.979 -21.196   7.112  0.00  0.00    -0.009 C 
ATOM      6  C   LIG    1       25.899 -22.718   6.907  0.00  0.00    +0.007 C 
ATOM      7  C   LIG    1       24.593 -23.087   6.186  0.00  0.00    -0.009 C 
ATOM      8  C   LIG    1       23.396 -22.613   7.028  0.00  0.00    +0.007 C 
ATOM      9  C   LIG    1       25.940 -20.499   5.740  0.00  0.00    +0.025 C 
ATOM     10  C   LIG    1       24.556 -22.386   4.815  0.00  0.00    +0.025 C 
ENDROOT
BRANCH   1  11
ATOM     11  N   LIG    1       24.587 -20.197   3.696  0.00  0.00    -0.325 NA
ATOM     12  H   LIG    1       24.017 -20.743   3.052  0.00  0.00    +0.119 HD
ATOM     13  H   LIG    1       24.130 -19.291   3.780  0.00  0.00    +0.119 HD
ENDBRANCH   1  11
TORSDOF 1
ENDMDL
MODEL 7
REMARK VINA RESULT:      -6.3      1.452      2.700
REMARK  Name = *****
REMARK                            x       y       z     vdW  Elec       q    Type
REMARK                         _______ _______ _______ _____ _____    ______ ____
ROOT
ATOM      1  C   LIG    1       25.072 -21.027   5.219  0.00  0.00    +0.017 C 
ATOM      2  C   LIG    1       26.210 -20.797   6.238  0.00  0.00    +0.025 C 
ATOM      3  C   LIG    1       25.833 -21.413   7.598  0.00  0.00    -0.009 C 
ATOM      4  C   LIG    1       25.597 -22.923   7.423  0.00  0.00    +0.007 C 
ATOM      5  C   LIG    1       24.458 -23.167   6.418  0.00  0.00    -0.009 C 
ATOM      6  C   LIG    1       23.173 -22.499   6.935  0.00  0.00    +0.007 C 
ATOM      7  C   LIG    1       23.396 -20.988   7.111  0.00  0.00    -0.009 C 
ATOM      8  C   LIG    1       24.541 -20.756   8.112  0.00  0.00    +0.007 C 
ATOM      9  C   LIG    1       24.839 -22.546   5.061  0.00  0.00    +0.025 C 
ATOM     10  C   LIG    1       23.779 -20.372   5.753  0.00  0.00    +0.025 C 
ENDROOT
BRANCH   1  11
ATOM     11  N   LIG    1       25.432 -20.430   3.933  0.00  0.00    -0.325 NA
ATOM     12  H   LIG    1       26.184 -20.964   3.502  0.00  0.00    +0.119 HD
ATOM     13  H   LIG    1       24.642 -20.487   3.293  0.00  0.00    +0.119 HD
ENDBRANCH   1  11
TORSDOF 1
ENDMDL
MODEL 8
REMARK VINA RESULT:      -6.3      1.593      3.060
REMARK  Name = *****
REMARK                            x       y       z     vdW  Elec       q    Type
REMARK                         _______ _______ _______ _____ _____    ______ ____
ROOT
ATOM      1  C   LIG    1       25.896 -21.313   7.479  0.00  0.00    +0.017 C 
ATOM      2  C   LIG    1       24.611 -20.737   8.112  0.00  0.00    +0.025 C 
ATOM      3  C   LIG    1       23.395 -21.057   7.223  0.00  0.00    -0.009 C 
ATOM      4  C   LIG    1       23.259 -22.582   7.080  0.00  0.00    +0.007 C 
ATOM      5  C   LIG    1       24.529 -23.169   6.441  0.00  0.00    -0.009 C 
ATOM      6  C   LIG    1       24.737 -22.536   5.055  0.00  0.00    +0.007 C 
ATOM      7  C   LIG    1       24.878 -21.011   5.185  0.00  0.00    -0.009 C 
ATOM      8  C   LIG    1       23.606 -20.436   5.832  0.00  0.00    +0.007 C 
ATOM      9  C   LIG    1       25.741 -22.843   7.332  0.00  0.00    +0.025 C 
ATOM     10  C   LIG    1       26.090 -20.690   6.079  0.00  0.00    +0.025 C 
ENDROOT
BRANCH   1  11
ATOM     11  N   LIG    1       27.048 -20.996   8.322  0.00  0.00    -0.325 NA
ATOM     12  H   LIG    1       27.829 -20.691   7.742  0.00  0.00    +0.119 HD
ATOM     13  H   LIG    1       26.825 -20.211   8.932  0.00  0.00    +0.119 HD
ENDBRANCH   1  11
TORSDOF 1
ENDMDL
MODEL 9
REMARK VINA RESULT:      -6.3      1.587      2.780
REMARK  Name = *****
REMARK                            x       y       z     vdW  Elec       q    Type
REMARK                         _______ _______ _______ _____ _____    ______ ____
ROOT
ATOM      1  C   LIG    1       25.914 -21.331   7.477  0.00  0.00    +0.017 C 
ATOM      2  C   LIG    1       26.106 -20.701   6.080  0.00  0.00    +0.025 C 
ATOM      3  C   LIG    1       24.889 -21.008   5.190  0.00  0.00    -0.009 C 
ATOM      4  C   LIG    1       23.623 -20.428   5.844  0.00  0.00    +0.007 C 
ATOM      5  C   LIG    1       23.412 -21.055   7.233  0.00  0.00    -0.009 C 
ATOM      6  C   LIG    1       23.266 -22.579   7.085  0.00  0.00    +0.007 C 
ATOM      7  C   LIG    1       24.528 -23.170   6.434  0.00  0.00    -0.009 C 
ATOM      8  C   LIG    1       24.732 -22.531   5.050  0.00  0.00    +0.007 C 
ATOM      9  C   LIG    1       24.634 -20.748   8.118  0.00  0.00    +0.025 C 
ATOM     10  C   LIG    1       25.747 -22.859   7.321  0.00  0.00    +0.025 C 
ENDROOT
BRANCH   1  11
ATOM     11  N   LIG    1       27.078 -21.046   8.314  0.00  0.00    -0.325 NA
ATOM     12  H   LIG    1       27.055 -20.074   8.620  0.00  0.00    +0.119 HD
ATOM     13  H   LIG    1       27.042 -21.610   9.161  0.00  0.00    +0.119 HD
ENDBRANCH   1  11
TORSDOF 1
ENDMDL
