MODEL 1
REMARK VINA RESULT:      -7.8      0.000      0.000
REMARK  Name = *****
REMARK                            x       y       z     vdW  Elec       q    Type
REMARK                         _______ _______ _______ _____ _____    ______ ____
ROOT
ATOM      1  C   LIG    1       26.899 -21.951   7.031  0.00  0.00    +0.071 C 
ENDROOT
BRANCH   1   2
ATOM      2  C   LIG    1       26.274 -23.332   7.348  0.00  0.00    +0.021 C 
BRANCH   2   3
ATOM      3  C   LIG    1       25.515 -23.964   6.162  0.00  0.00    +0.036 C 
BRANCH   3   8
ATOM      4 CL   LIG    1       24.745 -29.944   6.592  0.00  0.00    -0.084 Cl
ATOM      5  C   LIG    1       24.959 -28.241   6.478  0.00  0.00    +0.041 A 
ATOM      6  C   LIG    1       24.185 -27.504   5.584  0.00  0.00    +0.020 A 
ATOM      7  C   LIG    1       24.358 -26.120   5.487  0.00  0.00    +0.005 A 
ATOM      8  C   LIG    1       25.299 -25.459   6.289  0.00  0.00    -0.047 A 
ATOM      9  C   LIG    1       26.079 -26.219   7.178  0.00  0.00    +0.005 A 
ATOM     10  C   LIG    1       25.908 -27.605   7.272  0.00  0.00    +0.020 A 
ENDBRANCH   3   8
ENDBRANCH   2   3
ENDBRANCH   1   2
BRANCH   1  11
ATOM     11  C   LIG    1       28.260 -21.711   7.735  0.00  0.00    +0.137 C 
BRANCH  11  12
ATOM     12  N   LIG    1       28.962 -20.500   7.358  0.00  0.00    -0.336 N 
ATOM     13  C   LIG    1       29.292 -20.099   6.095  0.00  0.00    +0.199 A 
ATOM     14  N   LIG    1       29.927 -18.955   6.098  0.00  0.00    -0.244 NA
ATOM     15  C   LIG    1       29.999 -18.586   7.417  0.00  0.00    +0.130 A 
ATOM     16  C   LIG    1       29.374 -19.511   8.212  0.00  0.00    +0.107 A 
ENDBRANCH  11  12
ENDBRANCH   1  11
BRANCH   1  17
ATOM     17  S   LIG    1       25.785 -20.505   7.439  0.00  0.00    -0.117 S 
BRANCH  17  18
ATOM     18  C   LIG    1       24.567 -20.521   6.126  0.00  0.00    +0.045 A 
ATOM     19  C   LIG    1       23.303 -21.117   6.303  0.00  0.00    +0.056 A 
ATOM     20 CL   LIG    1       22.866 -21.971   7.747  0.00  0.00    -0.082 Cl
ATOM     21  C   LIG    1       22.340 -21.072   5.287  0.00  0.00    +0.021 A 
ATOM     22  C   LIG    1       22.631 -20.470   4.067  0.00  0.00    +0.003 A 
ATOM     23  C   LIG    1       23.905 -19.960   3.841  0.00  0.00    +0.021 A 
ATOM     24  C   LIG    1       24.871 -19.997   4.853  0.00  0.00    +0.056 A 
ATOM     25 CL   LIG    1       26.440 -19.384   4.438  0.00  0.00    -0.082 Cl
ENDBRANCH  17  18
ENDBRANCH   1  17
TORSDOF 7
ENDMDL
MODEL 2
REMARK VINA RESULT:      -7.7      2.809      6.783
REMARK  Name = *****
REMARK                            x       y       z     vdW  Elec       q    Type
REMARK                         _______ _______ _______ _____ _____    ______ ____
ROOT
ATOM      1  C   LIG    1       25.496 -22.127   6.885  0.00  0.00    +0.071 C 
ENDROOT
BRANCH   1   2
ATOM      2  C   LIG    1       26.611 -21.080   7.123  0.00  0.00    +0.021 C 
BRANCH   2   3
ATOM      3  C   LIG    1       28.032 -21.679   7.186  0.00  0.00    +0.036 C 
BRANCH   3   8
ATOM      4 CL   LIG    1       32.274 -17.681   8.787  0.00  0.00    -0.084 Cl
ATOM      5  C   LIG    1       31.072 -18.823   8.324  0.00  0.00    +0.041 A 
ATOM      6  C   LIG    1       30.012 -18.423   7.514  0.00  0.00    +0.020 A 
ATOM      7  C   LIG    1       29.033 -19.347   7.139  0.00  0.00    +0.005 A 
ATOM      8  C   LIG    1       29.110 -20.682   7.561  0.00  0.00    -0.047 A 
ATOM      9  C   LIG    1       30.181 -21.066   8.387  0.00  0.00    +0.005 A 
ATOM     10  C   LIG    1       31.159 -20.139   8.765  0.00  0.00    +0.020 A 
ENDBRANCH   3   8
ENDBRANCH   2   3
ENDBRANCH   1   2
BRANCH   1  11
ATOM     11  C   LIG    1       25.847 -23.539   7.423  0.00  0.00    +0.137 C 
BRANCH  11  12
ATOM     12  N   LIG    1       25.300 -24.654   6.675  0.00  0.00    -0.336 N 
ATOM     13  C   LIG    1       23.980 -24.937   6.465  0.00  0.00    +0.199 A 
ATOM     14  N   LIG    1       23.823 -26.020   5.748  0.00  0.00    -0.244 NA
ATOM     15  C   LIG    1       25.094 -26.453   5.465  0.00  0.00    +0.130 A 
ATOM     16  C   LIG    1       26.024 -25.599   5.998  0.00  0.00    +0.107 A 
ENDBRANCH  11  12
ENDBRANCH   1  11
BRANCH   1  17
ATOM     17  S   LIG    1       25.001 -22.310   5.091  0.00  0.00    -0.117 S 
BRANCH  17  18
ATOM     18  C   LIG    1       24.011 -20.852   4.770  0.00  0.00    +0.045 A 
ATOM     19  C   LIG    1       24.592 -19.659   4.299  0.00  0.00    +0.056 A 
ATOM     20 CL   LIG    1       26.303 -19.467   4.099  0.00  0.00    -0.082 Cl
ATOM     21  C   LIG    1       23.799 -18.544   3.999  0.00  0.00    +0.021 A 
ATOM     22  C   LIG    1       22.422 -18.585   4.199  0.00  0.00    +0.003 A 
ATOM     23  C   LIG    1       21.844 -19.723   4.752  0.00  0.00    +0.021 A 
ATOM     24  C   LIG    1       22.629 -20.841   5.050  0.00  0.00    +0.056 A 
ATOM     25 CL   LIG    1       21.809 -22.180   5.788  0.00  0.00    -0.082 Cl
ENDBRANCH  17  18
ENDBRANCH   1  17
TORSDOF 7
ENDMDL
MODEL 3
REMARK VINA RESULT:      -7.6      2.845      6.538
REMARK  Name = *****
REMARK                            x       y       z     vdW  Elec       q    Type
REMARK                         _______ _______ _______ _____ _____    ______ ____
ROOT
ATOM      1  C   LIG    1       25.407 -21.962   6.906  0.00  0.00    +0.071 C 
ENDROOT
BRANCH   1   2
ATOM      2  C   LIG    1       26.543 -20.924   7.081  0.00  0.00    +0.021 C 
BRANCH   2   3
ATOM      3  C   LIG    1       27.962 -21.520   6.965  0.00  0.00    +0.036 C 
BRANCH   3   8
ATOM      4 CL   LIG    1       32.310 -17.738   8.791  0.00  0.00    -0.084 Cl
ATOM      5  C   LIG    1       31.078 -18.819   8.264  0.00  0.00    +0.041 A 
ATOM      6  C   LIG    1       30.107 -18.379   7.368  0.00  0.00    +0.020 A 
ATOM      7  C   LIG    1       29.103 -19.253   6.941  0.00  0.00    +0.005 A 
ATOM      8  C   LIG    1       29.068 -20.578   7.398  0.00  0.00    -0.047 A 
ATOM      9  C   LIG    1       30.050 -21.003   8.310  0.00  0.00    +0.005 A 
ATOM     10  C   LIG    1       31.052 -20.126   8.740  0.00  0.00    +0.020 A 
ENDBRANCH   3   8
ENDBRANCH   2   3
ENDBRANCH   1   2
BRANCH   1  11
ATOM     11  C   LIG    1       25.744 -23.355   7.499  0.00  0.00    +0.137 C 
BRANCH  11  12
ATOM     12  N   LIG    1       25.242 -24.495   6.759  0.00  0.00    -0.336 N 
ATOM     13  C   LIG    1       23.934 -24.827   6.544  0.00  0.00    +0.199 A 
ATOM     14  N   LIG    1       23.820 -25.922   5.836  0.00  0.00    -0.244 NA
ATOM     15  C   LIG    1       25.107 -26.311   5.563  0.00  0.00    +0.130 A 
ATOM     16  C   LIG    1       26.003 -25.420   6.094  0.00  0.00    +0.107 A 
ENDBRANCH  11  12
ENDBRANCH   1  11
BRANCH   1  17
ATOM     17  S   LIG    1       24.882 -22.214   5.128  0.00  0.00    -0.117 S 
BRANCH  17  18
ATOM     18  C   LIG    1       23.919 -20.750   4.756  0.00  0.00    +0.045 A 
ATOM     19  C   LIG    1       22.523 -20.722   4.942  0.00  0.00    +0.056 A 
ATOM     20 CL   LIG    1       21.617 -22.116   5.433  0.00  0.00    -0.082 Cl
ATOM     21  C   LIG    1       21.790 -19.554   4.700  0.00  0.00    +0.021 A 
ATOM     22  C   LIG    1       22.426 -18.408   4.233  0.00  0.00    +0.003 A 
ATOM     23  C   LIG    1       23.788 -18.445   3.954  0.00  0.00    +0.021 A 
ATOM     24  C   LIG    1       24.527 -19.608   4.197  0.00  0.00    +0.056 A 
ATOM     25 CL   LIG    1       26.205 -19.556   3.758  0.00  0.00    -0.082 Cl
ENDBRANCH  17  18
ENDBRANCH   1  17
TORSDOF 7
ENDMDL
MODEL 4
REMARK VINA RESULT:      -7.5      0.660      2.017
REMARK  Name = *****
REMARK                            x       y       z     vdW  Elec       q    Type
REMARK                         _______ _______ _______ _____ _____    ______ ____
ROOT
ATOM      1  C   LIG    1       27.066 -22.016   7.189  0.00  0.00    +0.071 C 
ENDROOT
BRANCH   1   2
ATOM      2  C   LIG    1       26.226 -23.290   7.453  0.00  0.00    +0.021 C 
BRANCH   2   3
ATOM      3  C   LIG    1       25.613 -23.912   6.181  0.00  0.00    +0.036 C 
BRANCH   3   8
ATOM      4 CL   LIG    1       24.639 -29.868   6.520  0.00  0.00    -0.084 Cl
ATOM      5  C   LIG    1       24.910 -28.171   6.432  0.00  0.00    +0.041 A 
ATOM      6  C   LIG    1       24.185 -27.400   5.527  0.00  0.00    +0.020 A 
ATOM      7  C   LIG    1       24.405 -26.022   5.450  0.00  0.00    +0.005 A 
ATOM      8  C   LIG    1       25.345 -25.400   6.285  0.00  0.00    -0.047 A 
ATOM      9  C   LIG    1       26.076 -26.196   7.184  0.00  0.00    +0.005 A 
ATOM     10  C   LIG    1       25.858 -27.576   7.258  0.00  0.00    +0.020 A 
ENDBRANCH   3   8
ENDBRANCH   2   3
ENDBRANCH   1   2
BRANCH   1  11
ATOM     11  C   LIG    1       28.337 -21.917   8.072  0.00  0.00    +0.137 C 
BRANCH  11  12
ATOM     12  N   LIG    1       29.333 -20.956   7.642  0.00  0.00    -0.336 N 
ATOM     13  C   LIG    1       30.521 -20.671   8.252  0.00  0.00    +0.199 A 
ATOM     14  N   LIG    1       31.190 -19.749   7.608  0.00  0.00    -0.244 NA
ATOM     15  C   LIG    1       30.413 -19.432   6.522  0.00  0.00    +0.130 A 
ATOM     16  C   LIG    1       29.275 -20.195   6.504  0.00  0.00    +0.107 A 
ENDBRANCH  11  12
ENDBRANCH   1  11
BRANCH   1  17
ATOM     17  S   LIG    1       26.108 -20.423   7.393  0.00  0.00    -0.117 S 
BRANCH  17  18
ATOM     18  C   LIG    1       24.868 -20.502   6.102  0.00  0.00    +0.045 A 
ATOM     19  C   LIG    1       25.128 -20.023   4.804  0.00  0.00    +0.056 A 
ATOM     20 CL   LIG    1       26.609 -19.226   4.380  0.00  0.00    -0.082 Cl
ATOM     21  C   LIG    1       24.170 -20.141   3.789  0.00  0.00    +0.021 A 
ATOM     22  C   LIG    1       22.925 -20.702   4.059  0.00  0.00    +0.003 A 
ATOM     23  C   LIG    1       22.617 -21.094   5.358  0.00  0.00    +0.021 A 
ATOM     24  C   LIG    1       23.571 -20.983   6.375  0.00  0.00    +0.056 A 
ATOM     25 CL   LIG    1       23.055 -21.450   7.964  0.00  0.00    -0.082 Cl
ENDBRANCH  17  18
ENDBRANCH   1  17
TORSDOF 7
ENDMDL
MODEL 5
REMARK VINA RESULT:      -7.3      2.355      5.094
REMARK  Name = *****
REMARK                            x       y       z     vdW  Elec       q    Type
REMARK                         _______ _______ _______ _____ _____    ______ ____
ROOT
ATOM      1  C   LIG    1       27.012 -21.797   8.041  0.00  0.00    +0.071 C 
ENDROOT
BRANCH   1   2
ATOM      2  C   LIG    1       26.109 -23.049   7.916  0.00  0.00    +0.021 C 
BRANCH   2   3
ATOM      3  C   LIG    1       26.082 -23.665   6.500  0.00  0.00    +0.036 C 
BRANCH   3   8
ATOM      4 CL   LIG    1       24.108 -29.372   6.228  0.00  0.00    -0.084 Cl
ATOM      5  C   LIG    1       24.665 -27.746   6.314  0.00  0.00    +0.041 A 
ATOM      6  C   LIG    1       24.047 -26.760   5.547  0.00  0.00    +0.020 A 
ATOM      7  C   LIG    1       24.499 -25.439   5.613  0.00  0.00    +0.005 A 
ATOM      8  C   LIG    1       25.566 -25.089   6.453  0.00  0.00    -0.047 A 
ATOM      9  C   LIG    1       26.185 -26.098   7.211  0.00  0.00    +0.005 A 
ATOM     10  C   LIG    1       25.734 -27.421   7.142  0.00  0.00    +0.020 A 
ENDBRANCH   3   8
ENDBRANCH   2   3
ENDBRANCH   1   2
BRANCH   1  11
ATOM     11  C   LIG    1       26.262 -20.464   7.786  0.00  0.00    +0.137 C 
BRANCH  11  12
ATOM     12  N   LIG    1       25.138 -20.536   6.874  0.00  0.00    -0.336 N 
ATOM     13  C   LIG    1       23.820 -20.688   7.201  0.00  0.00    +0.199 A 
ATOM     14  N   LIG    1       23.056 -20.718   6.139  0.00  0.00    -0.244 NA
ATOM     15  C   LIG    1       23.909 -20.562   5.076  0.00  0.00    +0.130 A 
ATOM     16  C   LIG    1       25.199 -20.410   5.511  0.00  0.00    +0.107 A 
ENDBRANCH  11  12
ENDBRANCH   1  11
BRANCH   1  17
ATOM     17  S   LIG    1       28.508 -21.830   6.920  0.00  0.00    -0.117 S 
BRANCH  17  18
ATOM     18  C   LIG    1       29.511 -20.466   7.506  0.00  0.00    +0.045 A 
ATOM     19  C   LIG    1       29.468 -19.203   6.885  0.00  0.00    +0.056 A 
ATOM     20 CL   LIG    1       28.539 -18.895   5.454  0.00  0.00    -0.082 Cl
ATOM     21  C   LIG    1       30.215 -18.130   7.388  0.00  0.00    +0.021 A 
ATOM     22  C   LIG    1       31.046 -18.307   8.490  0.00  0.00    +0.003 A 
ATOM     23  C   LIG    1       31.173 -19.570   9.057  0.00  0.00    +0.021 A 
ATOM     24  C   LIG    1       30.426 -20.645   8.563  0.00  0.00    +0.056 A 
ATOM     25 CL   LIG    1       30.709 -22.184   9.312  0.00  0.00    -0.082 Cl
ENDBRANCH  17  18
ENDBRANCH   1  17
TORSDOF 7
ENDMDL
MODEL 6
REMARK VINA RESULT:      -7.1      2.929      7.094
REMARK  Name = *****
REMARK                            x       y       z     vdW  Elec       q    Type
REMARK                         _______ _______ _______ _____ _____    ______ ____
ROOT
ATOM      1  C   LIG    1       27.266 -21.358   6.645  0.00  0.00    +0.071 C 
ENDROOT
BRANCH   1   2
ATOM      2  C   LIG    1       28.793 -21.205   6.850  0.00  0.00    +0.021 C 
BRANCH   2   3
ATOM      3  C   LIG    1       29.354 -19.840   6.398  0.00  0.00    +0.036 C 
BRANCH   3   8
ATOM      4 CL   LIG    1       32.272 -16.893  10.795  0.00  0.00    -0.084 Cl
ATOM      5  C   LIG    1       31.442 -17.724   9.537  0.00  0.00    +0.041 A 
ATOM      6  C   LIG    1       30.064 -17.912   9.624  0.00  0.00    +0.020 A 
ATOM      7  C   LIG    1       29.387 -18.589   8.606  0.00  0.00    +0.005 A 
ATOM      8  C   LIG    1       30.078 -19.075   7.487  0.00  0.00    -0.047 A 
ATOM      9  C   LIG    1       31.470 -18.885   7.421  0.00  0.00    +0.005 A 
ATOM     10  C   LIG    1       32.148 -18.211   8.442  0.00  0.00    +0.020 A 
ENDBRANCH   3   8
ENDBRANCH   2   3
ENDBRANCH   1   2
BRANCH   1  11
ATOM     11  C   LIG    1       26.571 -20.056   6.170  0.00  0.00    +0.137 C 
BRANCH  11  12
ATOM     12  N   LIG    1       25.745 -20.177   4.985  0.00  0.00    -0.336 N 
ATOM     13  C   LIG    1       24.972 -21.243   4.624  0.00  0.00    +0.199 A 
ATOM     14  N   LIG    1       24.351 -21.033   3.491  0.00  0.00    -0.244 NA
ATOM     15  C   LIG    1       24.722 -19.770   3.105  0.00  0.00    +0.130 A 
ATOM     16  C   LIG    1       25.556 -19.207   4.036  0.00  0.00    +0.107 A 
ENDBRANCH  11  12
ENDBRANCH   1  11
BRANCH   1  17
ATOM     17  S   LIG    1       26.357 -21.966   8.162  0.00  0.00    -0.117 S 
BRANCH  17  18
ATOM     18  C   LIG    1       24.869 -22.712   7.498  0.00  0.00    +0.045 A 
ATOM     19  C   LIG    1       24.878 -24.012   6.956  0.00  0.00    +0.056 A 
ATOM     20 CL   LIG    1       26.329 -24.944   6.785  0.00  0.00    -0.082 Cl
ATOM     21  C   LIG    1       23.696 -24.603   6.492  0.00  0.00    +0.021 A 
ATOM     22  C   LIG    1       22.496 -23.899   6.524  0.00  0.00    +0.003 A 
ATOM     23  C   LIG    1       22.487 -22.581   6.968  0.00  0.00    +0.021 A 
ATOM     24  C   LIG    1       23.663 -21.985   7.437  0.00  0.00    +0.056 A 
ATOM     25 CL   LIG    1       23.542 -20.320   7.912  0.00  0.00    -0.082 Cl
ENDBRANCH  17  18
ENDBRANCH   1  17
TORSDOF 7
ENDMDL
MODEL 7
REMARK VINA RESULT:      -6.9      2.345      4.936
REMARK  Name = *****
REMARK                            x       y       z     vdW  Elec       q    Type
REMARK                         _______ _______ _______ _____ _____    ______ ____
ROOT
ATOM      1  C   LIG    1       27.058 -21.804   7.994  0.00  0.00    +0.071 C 
ENDROOT
BRANCH   1   2
ATOM      2  C   LIG    1       26.152 -23.057   7.905  0.00  0.00    +0.021 C 
BRANCH   2   3
ATOM      3  C   LIG    1       26.043 -23.653   6.485  0.00  0.00    +0.036 C 
BRANCH   3   8
ATOM      4 CL   LIG    1       24.150 -29.389   6.261  0.00  0.00    -0.084 Cl
ATOM      5  C   LIG    1       24.684 -27.755   6.333  0.00  0.00    +0.041 A 
ATOM      6  C   LIG    1       24.048 -26.784   5.564  0.00  0.00    +0.020 A 
ATOM      7  C   LIG    1       24.481 -25.456   5.618  0.00  0.00    +0.005 A 
ATOM      8  C   LIG    1       25.547 -25.085   6.450  0.00  0.00    -0.047 A 
ATOM      9  C   LIG    1       26.185 -26.079   7.212  0.00  0.00    +0.005 A 
ATOM     10  C   LIG    1       25.753 -27.409   7.154  0.00  0.00    +0.020 A 
ENDBRANCH   3   8
ENDBRANCH   2   3
ENDBRANCH   1   2
BRANCH   1  11
ATOM     11  C   LIG    1       26.296 -20.471   7.779  0.00  0.00    +0.137 C 
BRANCH  11  12
ATOM     12  N   LIG    1       25.160 -20.530   6.881  0.00  0.00    -0.336 N 
ATOM     13  C   LIG    1       23.846 -20.676   7.223  0.00  0.00    +0.199 A 
ATOM     14  N   LIG    1       23.068 -20.694   6.170  0.00  0.00    -0.244 NA
ATOM     15  C   LIG    1       23.910 -20.537   5.098  0.00  0.00    +0.130 A 
ATOM     16  C   LIG    1       25.206 -20.396   5.518  0.00  0.00    +0.107 A 
ENDBRANCH  11  12
ENDBRANCH   1  11
BRANCH   1  17
ATOM     17  S   LIG    1       28.502 -21.831   6.805  0.00  0.00    -0.117 S 
BRANCH  17  18
ATOM     18  C   LIG    1       29.569 -20.520   7.400  0.00  0.00    +0.045 A 
ATOM     19  C   LIG    1       30.401 -20.702   8.522  0.00  0.00    +0.056 A 
ATOM     20 CL   LIG    1       30.383 -22.151   9.475  0.00  0.00    -0.082 Cl
ATOM     21  C   LIG    1       31.272 -19.689   8.942  0.00  0.00    +0.021 A 
ATOM     22  C   LIG    1       31.300 -18.466   8.279  0.00  0.00    +0.003 A 
ATOM     23  C   LIG    1       30.417 -18.235   7.229  0.00  0.00    +0.021 A 
ATOM     24  C   LIG    1       29.549 -19.244   6.801  0.00  0.00    +0.056 A 
ATOM     25 CL   LIG    1       28.456 -18.824   5.521  0.00  0.00    -0.082 Cl
ENDBRANCH  17  18
ENDBRANCH   1  17
TORSDOF 7
ENDMDL
MODEL 8
REMARK VINA RESULT:      -6.7      2.270      5.447
REMARK  Name = *****
REMARK                            x       y       z     vdW  Elec       q    Type
REMARK                         _______ _______ _______ _____ _____    ______ ____
ROOT
ATOM      1  C   LIG    1       26.991 -20.517   7.154  0.00  0.00    +0.071 C 
ENDROOT
BRANCH   1   2
ATOM      2  C   LIG    1       27.321 -20.004   5.731  0.00  0.00    +0.021 C 
BRANCH   2   3
ATOM      3  C   LIG    1       26.488 -20.670   4.615  0.00  0.00    +0.036 C 
BRANCH   3   8
ATOM      4 CL   LIG    1       21.066 -18.110   3.855  0.00  0.00    -0.084 Cl
ATOM      5  C   LIG    1       22.609 -18.841   4.062  0.00  0.00    +0.041 A 
ATOM      6  C   LIG    1       22.704 -20.115   4.618  0.00  0.00    +0.020 A 
ATOM      7  C   LIG    1       23.957 -20.710   4.790  0.00  0.00    +0.005 A 
ATOM      8  C   LIG    1       25.126 -20.043   4.398  0.00  0.00    -0.047 A 
ATOM      9  C   LIG    1       25.013 -18.754   3.849  0.00  0.00    +0.005 A 
ATOM     10  C   LIG    1       23.759 -18.156   3.680  0.00  0.00    +0.020 A 
ENDBRANCH   3   8
ENDBRANCH   2   3
ENDBRANCH   1   2
BRANCH   1  11
ATOM     11  C   LIG    1       27.885 -19.897   8.259  0.00  0.00    +0.137 C 
BRANCH  11  12
ATOM     12  N   LIG    1       29.296 -19.794   7.946  0.00  0.00    -0.336 N 
ATOM     13  C   LIG    1       30.255 -20.747   8.141  0.00  0.00    +0.199 A 
ATOM     14  N   LIG    1       31.435 -20.336   7.753  0.00  0.00    -0.244 NA
ATOM     15  C   LIG    1       31.235 -19.068   7.268  0.00  0.00    +0.130 A 
ATOM     16  C   LIG    1       29.910 -18.727   7.344  0.00  0.00    +0.107 A 
ENDBRANCH  11  12
ENDBRANCH   1  11
BRANCH   1  17
ATOM     17  S   LIG    1       27.083 -22.377   7.327  0.00  0.00    -0.117 S 
BRANCH  17  18
ATOM     18  C   LIG    1       25.381 -22.908   7.142  0.00  0.00    +0.045 A 
ATOM     19  C   LIG    1       24.309 -22.093   7.554  0.00  0.00    +0.056 A 
ATOM     20 CL   LIG    1       24.543 -20.578   8.364  0.00  0.00    -0.082 Cl
ATOM     21  C   LIG    1       22.983 -22.496   7.353  0.00  0.00    +0.021 A 
ATOM     22  C   LIG    1       22.702 -23.731   6.775  0.00  0.00    +0.003 A 
ATOM     23  C   LIG    1       23.748 -24.589   6.450  0.00  0.00    +0.021 A 
ATOM     24  C   LIG    1       25.075 -24.190   6.644  0.00  0.00    +0.056 A 
ATOM     25 CL   LIG    1       26.292 -25.364   6.255  0.00  0.00    -0.082 Cl
ENDBRANCH  17  18
ENDBRANCH   1  17
TORSDOF 7
ENDMDL
MODEL 9
REMARK VINA RESULT:      -6.7      5.069      9.835
REMARK  Name = *****
REMARK                            x       y       z     vdW  Elec       q    Type
REMARK                         _______ _______ _______ _____ _____    ______ ____
ROOT
ATOM      1  C   LIG    1       25.335 -29.340   5.998  0.00  0.00    +0.071 C 
ENDROOT
BRANCH   1   2
ATOM      2  C   LIG    1       25.472 -28.003   5.229  0.00  0.00    +0.021 C 
BRANCH   2   3
ATOM      3  C   LIG    1       26.283 -26.927   5.981  0.00  0.00    +0.036 C 
BRANCH   3   8
ATOM      4 CL   LIG    1       23.162 -21.937   7.357  0.00  0.00    -0.084 Cl
ATOM      5  C   LIG    1       24.053 -23.353   6.957  0.00  0.00    +0.041 A 
ATOM      6  C   LIG    1       23.385 -24.484   6.491  0.00  0.00    +0.020 A 
ATOM      7  C   LIG    1       24.106 -25.637   6.168  0.00  0.00    +0.005 A 
ATOM      8  C   LIG    1       25.501 -25.668   6.297  0.00  0.00    -0.047 A 
ATOM      9  C   LIG    1       26.158 -24.522   6.778  0.00  0.00    +0.005 A 
ATOM     10  C   LIG    1       25.436 -23.369   7.105  0.00  0.00    +0.020 A 
ENDBRANCH   3   8
ENDBRANCH   2   3
ENDBRANCH   1   2
BRANCH   1  11
ATOM     11  C   LIG    1       24.982 -30.545   5.087  0.00  0.00    +0.137 C 
BRANCH  11  12
ATOM     12  N   LIG    1       25.912 -31.656   5.122  0.00  0.00    -0.336 N 
ATOM     13  C   LIG    1       26.239 -32.489   4.090  0.00  0.00    +0.199 A 
ATOM     14  N   LIG    1       27.111 -33.395   4.453  0.00  0.00    -0.244 NA
ATOM     15  C   LIG    1       27.376 -33.131   5.773  0.00  0.00    +0.130 A 
ATOM     16  C   LIG    1       26.672 -32.035   6.197  0.00  0.00    +0.107 A 
ENDBRANCH  11  12
ENDBRANCH   1  11
BRANCH   1  17
ATOM     17  S   LIG    1       24.079 -29.290   7.383  0.00  0.00    -0.117 S 
BRANCH  17  18
ATOM     18  C   LIG    1       24.805 -30.322   8.655  0.00  0.00    +0.045 A 
ATOM     19  C   LIG    1       25.837 -29.846   9.488  0.00  0.00    +0.056 A 
ATOM     20 CL   LIG    1       26.557 -28.282   9.283  0.00  0.00    -0.082 Cl
ATOM     21  C   LIG    1       26.357 -30.644  10.514  0.00  0.00    +0.021 A 
ATOM     22  C   LIG    1       25.887 -31.940  10.705  0.00  0.00    +0.003 A 
ATOM     23  C   LIG    1       24.937 -32.460   9.832  0.00  0.00    +0.021 A 
ATOM     24  C   LIG    1       24.410 -31.666   8.808  0.00  0.00    +0.056 A 
ATOM     25 CL   LIG    1       23.273 -32.438   7.748  0.00  0.00    -0.082 Cl
ENDBRANCH  17  18
ENDBRANCH   1  17
TORSDOF 7
ENDMDL
