MODEL 1
REMARK VINA RESULT:      -7.3      0.000      0.000
REMARK  Name = *****
REMARK                            x       y       z     vdW  Elec       q    Type
REMARK                         _______ _______ _______ _____ _____    ______ ____
ROOT
ATOM      1  C   LIG    1       25.390 -21.110   6.049  0.00  0.00    +0.242 C 
ATOM      2  C   LIG    1       26.546 -20.758   7.069  0.00  0.00    +0.199 C 
ATOM      3  N   LIG    1       27.173 -19.951   6.036  0.00  0.00    -0.244 N 
ATOM      4  C   LIG    1       28.428 -19.388   6.129  0.00  0.00    +0.123 C 
ATOM      5  C   LIG    1       29.272 -19.763   7.135  0.00  0.00    -0.021 C 
ATOM      6  C   LIG    1       28.930 -20.878   8.117  0.00  0.00    +0.104 C 
ATOM      7  S   LIG    1       27.718 -22.072   7.495  0.00  0.00    -0.129 S 
ATOM      8  C   LIG    1       26.234 -20.142   5.079  0.00  0.00    +0.275 C 
ATOM      9  O   LIG    1       26.160 -19.835   3.912  0.00  0.00    -0.270 OA
ENDROOT
BRANCH   1  10
ATOM     10  N   LIG    1       25.349 -22.529   5.535  0.00  0.00    -0.277 N 
ATOM     11  H   LIG    1       26.005 -22.781   4.806  0.00  0.00    +0.152 HD
ATOM     12  C   LIG    1       24.683 -23.555   6.179  0.00  0.00    +0.225 C 
ATOM     13  O   LIG    1       24.125 -23.399   7.260  0.00  0.00    -0.275 OA
BRANCH  12  14
ATOM     14  C   LIG    1       24.673 -24.867   5.383  0.00  0.00    +0.165 C 
BRANCH  14  15
ATOM     15  S   LIG    1       25.702 -26.192   6.101  0.00  0.00    -0.137 S 
BRANCH  15  16
ATOM     16  C   LIG    1       25.259 -27.582   4.998  0.00  0.00    +0.187 C 
BRANCH  16  17
ATOM     17  C   LIG    1       24.415 -28.618   5.622  0.00  0.00    +0.073 C 
ATOM     18  N   LIG    1       23.748 -29.441   6.075  0.00  0.00    -0.196 NA
ENDBRANCH  16  17
ENDBRANCH  15  16
ENDBRANCH  14  15
ENDBRANCH  12  14
ENDBRANCH   1  10
BRANCH   1  20
ATOM     19  C   LIG    1       23.178 -20.314   5.349  0.00  0.00    +0.197 C 
ATOM     20  O   LIG    1       24.087 -20.565   6.412  0.00  0.00    -0.349 OA
ENDBRANCH   1  20
BRANCH   4  21
ATOM     21  C   LIG    1       28.772 -18.343   5.098  0.00  0.00    +0.351 C 
ATOM     22  O   LIG    1       28.018 -17.494   4.658  0.00  0.00    -0.244 OA
BRANCH  21  23
ATOM     23  O   LIG    1       30.044 -18.389   4.673  0.00  0.00    -0.476 OA
ATOM     24  H   LIG    1       30.485 -19.052   5.243  0.00  0.00    +0.295 HD
ENDBRANCH  21  23
ENDBRANCH   4  21
BRANCH   5  25
ATOM     25  C   LIG    1       30.690 -19.239   7.384  0.00  0.00    +0.111 C 
BRANCH  25  26
ATOM     26  S   LIG    1       31.153 -19.314   9.140  0.00  0.00    -0.080 S 
BRANCH  26  27
ATOM     27  C   LIG    1       31.752 -17.701   9.383  0.00  0.00    +0.209 A 
ATOM     28  N   LIG    1       31.777 -17.065  10.592  0.00  0.00    -0.223 N 
ATOM     29  C   LIG    1       31.184 -17.447  11.842  0.00  0.00    +0.177 C 
ATOM     30  N   LIG    1       32.373 -15.867  10.459  0.00  0.00    -0.043 NA
ATOM     31  N   LIG    1       32.657 -15.764   9.168  0.00  0.00    -0.022 NA
ATOM     32  N   LIG    1       32.267 -16.894   8.483  0.00  0.00    -0.102 NA
ENDBRANCH  26  27
ENDBRANCH  25  26
ENDBRANCH   5  25
TORSDOF 11
ENDMDL
MODEL 2
REMARK VINA RESULT:      -6.8      7.586     10.241
REMARK  Name = *****
REMARK                            x       y       z     vdW  Elec       q    Type
REMARK                         _______ _______ _______ _____ _____    ______ ____
ROOT
ATOM      1  C   LIG    1       25.332 -30.337   8.430  0.00  0.00    +0.242 C 
ATOM      2  C   LIG    1       26.095 -30.061   9.788  0.00  0.00    +0.199 C 
ATOM      3  N   LIG    1       24.810 -30.009  10.467  0.00  0.00    -0.244 N 
ATOM      4  C   LIG    1       24.626 -29.618  11.775  0.00  0.00    +0.123 C 
ATOM      5  C   LIG    1       25.644 -29.016  12.459  0.00  0.00    -0.021 C 
ATOM      6  C   LIG    1       26.967 -28.647  11.797  0.00  0.00    +0.104 C 
ATOM      7  S   LIG    1       26.869 -28.437  10.001  0.00  0.00    -0.129 S 
ATOM      8  C   LIG    1       24.038 -30.274   9.386  0.00  0.00    +0.275 C 
ATOM      9  O   LIG    1       22.844 -30.289   9.200  0.00  0.00    -0.270 OA
ENDROOT
BRANCH   1  10
ATOM     10  N   LIG    1       25.337 -29.222   7.412  0.00  0.00    -0.277 N 
ATOM     11  H   LIG    1       26.165 -28.641   7.359  0.00  0.00    +0.152 HD
ATOM     12  C   LIG    1       24.421 -29.126   6.382  0.00  0.00    +0.225 C 
ATOM     13  O   LIG    1       23.569 -29.984   6.180  0.00  0.00    -0.275 OA
BRANCH  12  14
ATOM     14  C   LIG    1       24.551 -27.830   5.571  0.00  0.00    +0.165 C 
BRANCH  14  15
ATOM     15  S   LIG    1       25.818 -26.674   6.197  0.00  0.00    -0.137 S 
BRANCH  15  16
ATOM     16  C   LIG    1       25.155 -25.091   5.564  0.00  0.00    +0.187 C 
BRANCH  16  17
ATOM     17  C   LIG    1       23.930 -24.623   6.239  0.00  0.00    +0.073 C 
ATOM     18  N   LIG    1       22.981 -24.222   6.755  0.00  0.00    -0.196 NA
ENDBRANCH  16  17
ENDBRANCH  15  16
ENDBRANCH  14  15
ENDBRANCH  12  14
ENDBRANCH   1  10
BRANCH   1  20
ATOM     19  C   LIG    1       26.879 -32.194   8.012  0.00  0.00    +0.197 C 
ATOM     20  O   LIG    1       25.569 -31.663   7.871  0.00  0.00    -0.349 OA
ENDBRANCH   1  20
BRANCH   4  21
ATOM     21  C   LIG    1       23.280 -29.925  12.383  0.00  0.00    +0.351 C 
ATOM     22  O   LIG    1       23.021 -30.863  13.115  0.00  0.00    -0.244 OA
BRANCH  21  23
ATOM     23  O   LIG    1       22.321 -29.041  12.067  0.00  0.00    -0.476 OA
ATOM     24  H   LIG    1       22.746 -28.403  11.457  0.00  0.00    +0.295 HD
ENDBRANCH  21  23
ENDBRANCH   4  21
BRANCH   5  25
ATOM     25  C   LIG    1       25.608 -28.525  13.909  0.00  0.00    +0.111 C 
BRANCH  25  26
ATOM     26  S   LIG    1       27.100 -27.586  14.355  0.00  0.00    -0.080 S 
BRANCH  26  27
ATOM     27  C   LIG    1       26.508 -25.958  14.212  0.00  0.00    +0.209 A 
ATOM     28  N   LIG    1       27.202 -24.851  14.609  0.00  0.00    -0.223 N 
ATOM     29  C   LIG    1       28.417 -24.753  15.367  0.00  0.00    +0.177 C 
ATOM     30  N   LIG    1       26.509 -23.744  14.289  0.00  0.00    -0.043 NA
ATOM     31  N   LIG    1       25.380 -24.188  13.751  0.00  0.00    -0.022 NA
ATOM     32  N   LIG    1       25.361 -25.565  13.706  0.00  0.00    -0.102 NA
ENDBRANCH  26  27
ENDBRANCH  25  26
ENDBRANCH   5  25
TORSDOF 11
ENDMDL
MODEL 3
REMARK VINA RESULT:      -6.7      7.855     11.237
REMARK  Name = *****
REMARK                            x       y       z     vdW  Elec       q    Type
REMARK                         _______ _______ _______ _____ _____    ______ ____
ROOT
ATOM      1  C   LIG    1       25.425 -30.374   8.064  0.00  0.00    +0.242 C 
ATOM      2  C   LIG    1       26.184 -30.408   9.451  0.00  0.00    +0.199 C 
ATOM      3  N   LIG    1       24.905 -30.605  10.114  0.00  0.00    -0.244 N 
ATOM      4  C   LIG    1       24.711 -30.571  11.478  0.00  0.00    +0.123 C 
ATOM      5  C   LIG    1       25.699 -30.104  12.297  0.00  0.00    -0.021 C 
ATOM      6  C   LIG    1       26.992 -29.502  11.757  0.00  0.00    +0.104 C 
ATOM      7  S   LIG    1       26.864 -28.849  10.073  0.00  0.00    -0.129 S 
ATOM      8  C   LIG    1       24.139 -30.632   8.997  0.00  0.00    +0.275 C 
ATOM      9  O   LIG    1       22.945 -30.669   8.808  0.00  0.00    -0.270 OA
ENDROOT
BRANCH   1  10
ATOM     10  N   LIG    1       25.355 -29.039   7.363  0.00  0.00    -0.277 N 
ATOM     11  H   LIG    1       26.137 -28.407   7.481  0.00  0.00    +0.152 HD
ATOM     12  C   LIG    1       24.443 -28.748   6.366  0.00  0.00    +0.225 C 
ATOM     13  O   LIG    1       23.658 -29.583   5.930  0.00  0.00    -0.275 OA
BRANCH  12  14
ATOM     14  C   LIG    1       24.483 -27.282   5.914  0.00  0.00    +0.165 C 
BRANCH  14  15
ATOM     15  S   LIG    1       25.836 -26.304   6.651  0.00  0.00    -0.137 S 
BRANCH  15  16
ATOM     16  C   LIG    1       25.297 -24.614   6.204  0.00  0.00    +0.187 C 
BRANCH  16  17
ATOM     17  C   LIG    1       23.882 -24.321   6.502  0.00  0.00    +0.073 C 
ATOM     18  N   LIG    1       22.787 -24.081   6.769  0.00  0.00    -0.196 NA
ENDBRANCH  16  17
ENDBRANCH  15  16
ENDBRANCH  14  15
ENDBRANCH  12  14
ENDBRANCH   1  10
BRANCH   1  20
ATOM     19  C   LIG    1       26.918 -32.228   7.471  0.00  0.00    +0.197 C 
ATOM     20  O   LIG    1       25.732 -31.498   7.188  0.00  0.00    -0.349 OA
ENDBRANCH   1  20
BRANCH   4  21
ATOM     21  C   LIG    1       23.392 -31.100  11.981  0.00  0.00    +0.351 C 
ATOM     22  O   LIG    1       23.189 -32.216  12.424  0.00  0.00    -0.244 OA
BRANCH  21  23
ATOM     23  O   LIG    1       22.387 -30.212  11.925  0.00  0.00    -0.476 OA
ATOM     24  H   LIG    1       22.167 -30.010  12.858  0.00  0.00    +0.295 HD
ENDBRANCH  21  23
ENDBRANCH   4  21
BRANCH   5  25
ATOM     25  C   LIG    1       25.650 -30.000  13.825  0.00  0.00    +0.111 C 
BRANCH  25  26
ATOM     26  S   LIG    1       25.822 -28.286  14.404  0.00  0.00    -0.080 S 
BRANCH  26  27
ATOM     27  C   LIG    1       24.256 -27.652  13.997  0.00  0.00    +0.209 A 
ATOM     28  N   LIG    1       24.020 -26.352  13.651  0.00  0.00    -0.223 N 
ATOM     29  C   LIG    1       24.891 -25.213  13.716  0.00  0.00    +0.177 C 
ATOM     30  N   LIG    1       22.726 -26.201  13.315  0.00  0.00    -0.043 NA
ATOM     31  N   LIG    1       22.179 -27.393  13.512  0.00  0.00    -0.022 NA
ATOM     32  N   LIG    1       23.117 -28.304  13.946  0.00  0.00    -0.102 NA
ENDBRANCH  26  27
ENDBRANCH  25  26
ENDBRANCH   5  25
TORSDOF 11
ENDMDL
MODEL 4
REMARK VINA RESULT:      -6.3      1.793      2.253
REMARK  Name = *****
REMARK                            x       y       z     vdW  Elec       q    Type
REMARK                         _______ _______ _______ _____ _____    ______ ____
ROOT
ATOM      1  C   LIG    1       24.578 -22.208   6.935  0.00  0.00    +0.242 C 
ATOM      2  C   LIG    1       25.929 -21.457   7.269  0.00  0.00    +0.199 C 
ATOM      3  N   LIG    1       25.865 -20.820   5.964  0.00  0.00    -0.244 N 
ATOM      4  C   LIG    1       26.873 -20.063   5.407  0.00  0.00    +0.123 C 
ATOM      5  C   LIG    1       28.118 -20.062   5.969  0.00  0.00    -0.021 C 
ATOM      6  C   LIG    1       28.485 -20.963   7.143  0.00  0.00    +0.104 C 
ATOM      7  S   LIG    1       27.450 -22.441   7.302  0.00  0.00    -0.129 S 
ATOM      8  C   LIG    1       24.692 -21.368   5.567  0.00  0.00    +0.275 C 
ATOM      9  O   LIG    1       24.076 -21.351   4.526  0.00  0.00    -0.270 OA
ENDROOT
BRANCH   1  10
ATOM     10  N   LIG    1       24.672 -23.696   6.694  0.00  0.00    -0.277 N 
ATOM     11  H   LIG    1       25.571 -24.137   6.839  0.00  0.00    +0.152 HD
ATOM     12  C   LIG    1       23.568 -24.518   6.566  0.00  0.00    +0.225 C 
ATOM     13  O   LIG    1       22.422 -24.106   6.706  0.00  0.00    -0.275 OA
BRANCH  12  14
ATOM     14  C   LIG    1       23.927 -25.961   6.186  0.00  0.00    +0.165 C 
BRANCH  14  15
ATOM     15  S   LIG    1       25.708 -26.346   6.287  0.00  0.00    -0.137 S 
BRANCH  15  16
ATOM     16  C   LIG    1       25.741 -27.962   5.431  0.00  0.00    +0.187 C 
BRANCH  16  17
ATOM     17  C   LIG    1       24.620 -28.859   5.766  0.00  0.00    +0.073 C 
ATOM     18  N   LIG    1       23.760 -29.568   6.061  0.00  0.00    -0.196 NA
ENDBRANCH  16  17
ENDBRANCH  15  16
ENDBRANCH  14  15
ENDBRANCH  12  14
ENDBRANCH   1  10
BRANCH   1  20
ATOM     19  C   LIG    1       23.036 -20.447   7.669  0.00  0.00    +0.197 C 
ATOM     20  O   LIG    1       23.449 -21.803   7.764  0.00  0.00    -0.349 OA
ENDBRANCH   1  20
BRANCH   4  21
ATOM     21  C   LIG    1       26.504 -19.241   4.199  0.00  0.00    +0.351 C 
ATOM     22  O   LIG    1       26.779 -18.068   4.017  0.00  0.00    -0.244 OA
BRANCH  21  23
ATOM     23  O   LIG    1       25.822 -19.917   3.262  0.00  0.00    -0.476 OA
ATOM     24  H   LIG    1       25.349 -20.626   3.745  0.00  0.00    +0.295 HD
ENDBRANCH  21  23
ENDBRANCH   4  21
BRANCH   5  25
ATOM     25  C   LIG    1       29.343 -19.282   5.482  0.00  0.00    +0.111 C 
BRANCH  25  26
ATOM     26  S   LIG    1       29.789 -17.927   6.609  0.00  0.00    -0.080 S 
BRANCH  26  27
ATOM     27  C   LIG    1       30.717 -18.791   7.797  0.00  0.00    +0.209 A 
ATOM     28  N   LIG    1       30.682 -18.530   9.137  0.00  0.00    -0.223 N 
ATOM     29  C   LIG    1       30.074 -17.438   9.844  0.00  0.00    +0.177 C 
ATOM     30  N   LIG    1       31.447 -19.423   9.791  0.00  0.00    -0.043 NA
ATOM     31  N   LIG    1       31.980 -20.180   8.842  0.00  0.00    -0.022 NA
ATOM     32  N   LIG    1       31.543 -19.793   7.594  0.00  0.00    -0.102 NA
ENDBRANCH  26  27
ENDBRANCH  25  26
ENDBRANCH   5  25
TORSDOF 11
ENDMDL
MODEL 5
REMARK VINA RESULT:      -6.2      8.481     11.308
REMARK  Name = *****
REMARK                            x       y       z     vdW  Elec       q    Type
REMARK                         _______ _______ _______ _____ _____    ______ ____
ROOT
ATOM      1  C   LIG    1       25.308 -30.423   8.466  0.00  0.00    +0.242 C 
ATOM      2  C   LIG    1       26.015 -29.906   9.783  0.00  0.00    +0.199 C 
ATOM      3  N   LIG    1       24.712 -29.844  10.424  0.00  0.00    -0.244 N 
ATOM      4  C   LIG    1       24.469 -29.283  11.659  0.00  0.00    +0.123 C 
ATOM      5  C   LIG    1       25.428 -28.523  12.267  0.00  0.00    -0.021 C 
ATOM      6  C   LIG    1       26.742 -28.165  11.581  0.00  0.00    +0.104 C 
ATOM      7  S   LIG    1       26.678 -28.220   9.772  0.00  0.00    -0.129 S 
ATOM      8  C   LIG    1       23.988 -30.311   9.380  0.00  0.00    +0.275 C 
ATOM      9  O   LIG    1       22.802 -30.431   9.178  0.00  0.00    -0.270 OA
ENDROOT
BRANCH   1  10
ATOM     10  N   LIG    1       25.269 -29.467   7.298  0.00  0.00    -0.277 N 
ATOM     11  H   LIG    1       26.045 -28.825   7.193  0.00  0.00    +0.152 HD
ATOM     12  C   LIG    1       24.401 -29.602   6.231  0.00  0.00    +0.225 C 
ATOM     13  O   LIG    1       23.636 -30.554   6.123  0.00  0.00    -0.275 OA
BRANCH  12  14
ATOM     14  C   LIG    1       24.461 -28.426   5.247  0.00  0.00    +0.165 C 
BRANCH  14  15
ATOM     15  S   LIG    1       25.912 -27.339   5.459  0.00  0.00    -0.137 S 
BRANCH  15  16
ATOM     16  C   LIG    1       25.187 -25.730   4.976  0.00  0.00    +0.187 C 
BRANCH  16  17
ATOM     17  C   LIG    1       24.166 -25.212   5.906  0.00  0.00    +0.073 C 
ATOM     18  N   LIG    1       23.374 -24.772   6.619  0.00  0.00    -0.196 NA
ENDBRANCH  16  17
ENDBRANCH  15  16
ENDBRANCH  14  15
ENDBRANCH  12  14
ENDBRANCH   1  10
BRANCH   1  20
ATOM     19  C   LIG    1       26.865 -32.312   8.617  0.00  0.00    +0.197 C 
ATOM     20  O   LIG    1       25.643 -31.796   8.108  0.00  0.00    -0.349 OA
ENDBRANCH   1  20
BRANCH   4  21
ATOM     21  C   LIG    1       23.130 -29.589  12.282  0.00  0.00    +0.351 C 
ATOM     22  O   LIG    1       22.111 -28.935  12.150  0.00  0.00    -0.244 OA
BRANCH  21  23
ATOM     23  O   LIG    1       23.114 -30.704  13.029  0.00  0.00    -0.476 OA
ATOM     24  H   LIG    1       23.976 -30.719  13.492  0.00  0.00    +0.295 HD
ENDBRANCH  21  23
ENDBRANCH   4  21
BRANCH   5  25
ATOM     25  C   LIG    1       25.323 -27.834  13.630  0.00  0.00    +0.111 C 
BRANCH  25  26
ATOM     26  S   LIG    1       26.903 -27.841  14.529  0.00  0.00    -0.080 S 
BRANCH  26  27
ATOM     27  C   LIG    1       27.120 -29.546  14.782  0.00  0.00    +0.209 A 
ATOM     28  N   LIG    1       28.288 -30.215  14.548  0.00  0.00    -0.223 N 
ATOM     29  C   LIG    1       29.488 -29.766  13.900  0.00  0.00    +0.177 C 
ATOM     30  N   LIG    1       28.154 -31.501  14.919  0.00  0.00    -0.043 NA
ATOM     31  N   LIG    1       26.896 -31.614  15.322  0.00  0.00    -0.022 NA
ATOM     32  N   LIG    1       26.237 -30.408  15.233  0.00  0.00    -0.102 NA
ENDBRANCH  26  27
ENDBRANCH  25  26
ENDBRANCH   5  25
TORSDOF 11
ENDMDL
MODEL 6
REMARK VINA RESULT:      -6.1      2.683      8.943
REMARK  Name = *****
REMARK                            x       y       z     vdW  Elec       q    Type
REMARK                         _______ _______ _______ _____ _____    ______ ____
ROOT
ATOM      1  C   LIG    1       29.297 -20.014   7.593  0.00  0.00    +0.242 C 
ATOM      2  C   LIG    1       27.947 -20.828   7.722  0.00  0.00    +0.199 C 
ATOM      3  N   LIG    1       27.511 -20.251   6.461  0.00  0.00    -0.244 N 
ATOM      4  C   LIG    1       26.244 -20.374   5.934  0.00  0.00    +0.123 C 
ATOM      5  C   LIG    1       25.229 -20.868   6.704  0.00  0.00    -0.021 C 
ATOM      6  C   LIG    1       25.408 -21.190   8.184  0.00  0.00    +0.104 C 
ATOM      7  S   LIG    1       26.763 -20.294   8.984  0.00  0.00    -0.129 S 
ATOM      8  C   LIG    1       28.630 -19.530   6.210  0.00  0.00    +0.275 C 
ATOM      9  O   LIG    1       28.926 -18.720   5.362  0.00  0.00    -0.270 OA
ENDROOT
BRANCH   1  10
ATOM     10  N   LIG    1       29.492 -18.869   8.557  0.00  0.00    -0.277 N 
ATOM     11  H   LIG    1       28.940 -18.874   9.406  0.00  0.00    +0.152 HD
ATOM     12  C   LIG    1       30.554 -17.987   8.489  0.00  0.00    +0.225 C 
ATOM     13  O   LIG    1       31.459 -18.111   7.671  0.00  0.00    -0.275 OA
BRANCH  12  14
ATOM     14  C   LIG    1       30.449 -16.831   9.492  0.00  0.00    +0.165 C 
BRANCH  14  15
ATOM     15  S   LIG    1       30.715 -17.315  11.232  0.00  0.00    -0.137 S 
BRANCH  15  16
ATOM     16  C   LIG    1       32.151 -16.262  11.648  0.00  0.00    +0.187 C 
BRANCH  16  17
ATOM     17  C   LIG    1       32.195 -15.808  13.050  0.00  0.00    +0.073 C 
ATOM     18  N   LIG    1       32.193 -15.454  14.147  0.00  0.00    -0.196 NA
ENDBRANCH  16  17
ENDBRANCH  15  16
ENDBRANCH  14  15
ENDBRANCH  12  14
ENDBRANCH   1  10
BRANCH   1  20
ATOM     19  C   LIG    1       30.938 -21.581   8.525  0.00  0.00    +0.197 C 
ATOM     20  O   LIG    1       30.480 -20.845   7.400  0.00  0.00    -0.349 OA
ENDBRANCH   1  20
BRANCH   4  21
ATOM     21  C   LIG    1       26.076 -19.974   4.490  0.00  0.00    +0.351 C 
ATOM     22  O   LIG    1       25.516 -20.624   3.626  0.00  0.00    -0.244 OA
BRANCH  21  23
ATOM     23  O   LIG    1       26.599 -18.776   4.189  0.00  0.00    -0.476 OA
ATOM     24  H   LIG    1       25.840 -18.157   4.176  0.00  0.00    +0.295 HD
ENDBRANCH  21  23
ENDBRANCH   4  21
BRANCH   5  25
ATOM     25  C   LIG    1       23.772 -21.072   6.278  0.00  0.00    +0.111 C 
BRANCH  25  26
ATOM     26  S   LIG    1       23.144 -22.715   6.736  0.00  0.00    -0.080 S 
BRANCH  26  27
ATOM     27  C   LIG    1       24.238 -23.734   5.851  0.00  0.00    +0.209 A 
ATOM     28  N   LIG    1       25.250 -24.452   6.421  0.00  0.00    -0.223 N 
ATOM     29  C   LIG    1       25.764 -24.408   7.761  0.00  0.00    +0.177 C 
ATOM     30  N   LIG    1       25.858 -25.199   5.483  0.00  0.00    -0.043 NA
ATOM     31  N   LIG    1       25.248 -24.890   4.347  0.00  0.00    -0.022 NA
ATOM     32  N   LIG    1       24.243 -23.971   4.558  0.00  0.00    -0.102 NA
ENDBRANCH  26  27
ENDBRANCH  25  26
ENDBRANCH   5  25
TORSDOF 11
ENDMDL
MODEL 7
REMARK VINA RESULT:      -5.9     10.826     12.733
REMARK  Name = *****
REMARK                            x       y       z     vdW  Elec       q    Type
REMARK                         _______ _______ _______ _____ _____    ______ ____
ROOT
ATOM      1  C   LIG    1       24.144 -29.267  13.487  0.00  0.00    +0.242 C 
ATOM      2  C   LIG    1       24.291 -30.657  12.746  0.00  0.00    +0.199 C 
ATOM      3  N   LIG    1       25.272 -30.050  11.861  0.00  0.00    -0.244 N 
ATOM      4  C   LIG    1       25.798 -30.650  10.738  0.00  0.00    +0.123 C 
ATOM      5  C   LIG    1       25.236 -31.795  10.249  0.00  0.00    -0.021 C 
ATOM      6  C   LIG    1       23.959 -32.393  10.831  0.00  0.00    +0.104 C 
ATOM      7  S   LIG    1       22.912 -31.204  11.707  0.00  0.00    -0.129 S 
ATOM      8  C   LIG    1       25.269 -28.819  12.427  0.00  0.00    +0.275 C 
ATOM      9  O   LIG    1       25.789 -27.767  12.133  0.00  0.00    -0.270 OA
ENDROOT
BRANCH   1  10
ATOM     10  N   LIG    1       22.846 -28.524  13.280  0.00  0.00    -0.277 N 
ATOM     11  H   LIG    1       22.020 -29.073  13.074  0.00  0.00    +0.152 HD
ATOM     12  C   LIG    1       22.663 -27.198  13.626  0.00  0.00    +0.225 C 
ATOM     13  O   LIG    1       23.530 -26.541  14.191  0.00  0.00    -0.275 OA
BRANCH  12  14
ATOM     14  C   LIG    1       21.304 -26.638  13.186  0.00  0.00    +0.165 C 
BRANCH  14  15
ATOM     15  S   LIG    1       19.869 -27.400  14.017  0.00  0.00    -0.137 S 
BRANCH  15  16
ATOM     16  C   LIG    1       18.656 -26.036  13.889  0.00  0.00    +0.187 C 
BRANCH  16  17
ATOM     17  C   LIG    1       17.257 -26.432  14.132  0.00  0.00    +0.073 C 
ATOM     18  N   LIG    1       16.174 -26.777  14.325  0.00  0.00    -0.196 NA
ENDBRANCH  16  17
ENDBRANCH  15  16
ENDBRANCH  14  15
ENDBRANCH  12  14
ENDBRANCH   1  10
BRANCH   1  20
ATOM     19  C   LIG    1       25.226 -30.469  15.331  0.00  0.00    +0.197 C 
ATOM     20  O   LIG    1       24.622 -29.270  14.864  0.00  0.00    -0.349 OA
ENDBRANCH   1  20
BRANCH   4  21
ATOM     21  C   LIG    1       27.014 -29.995  10.135  0.00  0.00    +0.351 C 
ATOM     22  O   LIG    1       28.153 -30.069  10.558  0.00  0.00    -0.244 OA
BRANCH  21  23
ATOM     23  O   LIG    1       26.761 -29.290   9.021  0.00  0.00    -0.476 OA
ATOM     24  H   LIG    1       26.040 -29.771   8.566  0.00  0.00    +0.295 HD
ENDBRANCH  21  23
ENDBRANCH   4  21
BRANCH   5  25
ATOM     25  C   LIG    1       25.693 -32.588   9.020  0.00  0.00    +0.111 C 
BRANCH  25  26
ATOM     26  S   LIG    1       24.420 -32.645   7.724  0.00  0.00    -0.080 S 
BRANCH  26  27
ATOM     27  C   LIG    1       24.536 -31.031   7.090  0.00  0.00    +0.209 A 
ATOM     28  N   LIG    1       25.137 -30.713   5.905  0.00  0.00    -0.223 N 
ATOM     29  C   LIG    1       25.940 -31.526   5.037  0.00  0.00    +0.177 C 
ATOM     30  N   LIG    1       24.986 -29.399   5.661  0.00  0.00    -0.043 NA
ATOM     31  N   LIG    1       24.344 -28.923   6.720  0.00  0.00    -0.022 NA
ATOM     32  N   LIG    1       24.066 -29.926   7.622  0.00  0.00    -0.102 NA
ENDBRANCH  26  27
ENDBRANCH  25  26
ENDBRANCH   5  25
TORSDOF 11
ENDMDL
MODEL 8
REMARK VINA RESULT:      -5.9      3.425      5.914
REMARK  Name = *****
REMARK                            x       y       z     vdW  Elec       q    Type
REMARK                         _______ _______ _______ _____ _____    ______ ____
ROOT
ATOM      1  C   LIG    1       24.654 -20.492   4.646  0.00  0.00    +0.242 C 
ATOM      2  C   LIG    1       26.202 -20.564   4.960  0.00  0.00    +0.199 C 
ATOM      3  N   LIG    1       25.883 -20.628   6.377  0.00  0.00    -0.244 N 
ATOM      4  C   LIG    1       26.806 -20.544   7.397  0.00  0.00    +0.123 C 
ATOM      5  C   LIG    1       28.087 -20.152   7.129  0.00  0.00    -0.021 C 
ATOM      6  C   LIG    1       28.527 -19.684   5.746  0.00  0.00    +0.104 C 
ATOM      7  S   LIG    1       27.181 -19.061   4.708  0.00  0.00    -0.129 S 
ATOM      8  C   LIG    1       24.535 -20.609   6.247  0.00  0.00    +0.275 C 
ATOM      9  O   LIG    1       23.624 -20.539   7.039  0.00  0.00    -0.270 OA
ENDROOT
BRANCH   1  10
ATOM     10  N   LIG    1       24.128 -19.172   4.135  0.00  0.00    -0.277 N 
ATOM     11  H   LIG    1       24.718 -18.646   3.503  0.00  0.00    +0.152 HD
ATOM     12  C   LIG    1       22.806 -18.783   4.250  0.00  0.00    +0.225 C 
ATOM     13  O   LIG    1       21.944 -19.516   4.721  0.00  0.00    -0.275 OA
BRANCH  12  14
ATOM     14  C   LIG    1       22.554 -17.343   3.782  0.00  0.00    +0.165 C 
BRANCH  14  15
ATOM     15  S   LIG    1       22.560 -16.104   5.121  0.00  0.00    -0.137 S 
BRANCH  15  16
ATOM     16  C   LIG    1       23.459 -14.740   4.299  0.00  0.00    +0.187 C 
BRANCH  16  17
ATOM     17  C   LIG    1       24.830 -15.075   3.872  0.00  0.00    +0.073 C 
ATOM     18  N   LIG    1       25.895 -15.322   3.506  0.00  0.00    -0.196 NA
ENDBRANCH  16  17
ENDBRANCH  15  16
ENDBRANCH  14  15
ENDBRANCH  12  14
ENDBRANCH   1  10
BRANCH   1  20
ATOM     19  C   LIG    1       24.376 -22.927   4.539  0.00  0.00    +0.197 C 
ATOM     20  O   LIG    1       24.132 -21.659   3.945  0.00  0.00    -0.349 OA
ENDBRANCH   1  20
BRANCH   4  21
ATOM     21  C   LIG    1       26.325 -20.938   8.771  0.00  0.00    +0.351 C 
ATOM     22  O   LIG    1       25.970 -20.176   9.652  0.00  0.00    -0.244 OA
BRANCH  21  23
ATOM     23  O   LIG    1       26.291 -22.263   8.982  0.00  0.00    -0.476 OA
ATOM     24  H   LIG    1       26.521 -22.669   8.121  0.00  0.00    +0.295 HD
ENDBRANCH  21  23
ENDBRANCH   4  21
BRANCH   5  25
ATOM     25  C   LIG    1       29.231 -20.009   8.138  0.00  0.00    +0.111 C 
BRANCH  25  26
ATOM     26  S   LIG    1       30.314 -18.600   7.756  0.00  0.00    -0.080 S 
BRANCH  26  27
ATOM     27  C   LIG    1       30.404 -17.835   9.314  0.00  0.00    +0.209 A 
ATOM     28  N   LIG    1       31.360 -16.926   9.669  0.00  0.00    -0.223 N 
ATOM     29  C   LIG    1       32.560 -16.541   8.981  0.00  0.00    +0.177 C 
ATOM     30  N   LIG    1       31.105 -16.462  10.906  0.00  0.00    -0.043 NA
ATOM     31  N   LIG    1       30.032 -17.129  11.309  0.00  0.00    -0.022 NA
ATOM     32  N   LIG    1       29.590 -17.994  10.333  0.00  0.00    -0.102 NA
ENDBRANCH  26  27
ENDBRANCH  25  26
ENDBRANCH   5  25
TORSDOF 11
ENDMDL
MODEL 9
REMARK VINA RESULT:      -5.8      1.861      2.231
REMARK  Name = *****
REMARK                            x       y       z     vdW  Elec       q    Type
REMARK                         _______ _______ _______ _____ _____    ______ ____
ROOT
ATOM      1  C   LIG    1       24.436 -21.980   5.501  0.00  0.00    +0.242 C 
ATOM      2  C   LIG    1       25.508 -21.215   6.377  0.00  0.00    +0.199 C 
ATOM      3  N   LIG    1       25.773 -20.346   5.242  0.00  0.00    -0.244 N 
ATOM      4  C   LIG    1       26.799 -19.428   5.176  0.00  0.00    +0.123 C 
ATOM      5  C   LIG    1       27.796 -19.448   6.111  0.00  0.00    -0.021 C 
ATOM      6  C   LIG    1       27.890 -20.530   7.181  0.00  0.00    +0.104 C 
ATOM      7  S   LIG    1       27.055 -22.078   6.753  0.00  0.00    -0.129 S 
ATOM      8  C   LIG    1       24.863 -20.888   4.398  0.00  0.00    +0.275 C 
ATOM      9  O   LIG    1       24.606 -20.714   3.229  0.00  0.00    -0.270 OA
ENDROOT
BRANCH   1  10
ATOM     10  N   LIG    1       24.790 -23.384   5.072  0.00  0.00    -0.277 N 
ATOM     11  H   LIG    1       25.500 -23.490   4.359  0.00  0.00    +0.152 HD
ATOM     12  C   LIG    1       24.415 -24.513   5.776  0.00  0.00    +0.225 C 
ATOM     13  O   LIG    1       23.819 -24.453   6.845  0.00  0.00    -0.275 OA
BRANCH  12  14
ATOM     14  C   LIG    1       24.774 -25.822   5.059  0.00  0.00    +0.165 C 
BRANCH  14  15
ATOM     15  S   LIG    1       24.564 -27.321   6.079  0.00  0.00    -0.137 S 
BRANCH  15  16
ATOM     16  C   LIG    1       26.025 -27.180   7.170  0.00  0.00    +0.187 C 
BRANCH  16  17
ATOM     17  C   LIG    1       26.097 -28.196   8.237  0.00  0.00    +0.073 C 
ATOM     18  N   LIG    1       26.120 -28.978   9.084  0.00  0.00    -0.196 NA
ENDBRANCH  16  17
ENDBRANCH  15  16
ENDBRANCH  14  15
ENDBRANCH  12  14
ENDBRANCH   1  10
BRANCH   1  20
ATOM     19  C   LIG    1       22.247 -20.903   5.249  0.00  0.00    +0.197 C 
ATOM     20  O   LIG    1       23.062 -21.821   5.964  0.00  0.00    -0.349 OA
ENDBRANCH   1  20
BRANCH   4  21
ATOM     21  C   LIG    1       26.724 -18.417   4.060  0.00  0.00    +0.351 C 
ATOM     22  O   LIG    1       25.773 -18.233   3.322  0.00  0.00    -0.244 OA
BRANCH  21  23
ATOM     23  O   LIG    1       27.829 -17.668   3.923  0.00  0.00    -0.476 OA
ATOM     24  H   LIG    1       27.523 -16.740   3.983  0.00  0.00    +0.295 HD
ENDBRANCH  21  23
ENDBRANCH   4  21
BRANCH   5  25
ATOM     25  C   LIG    1       29.001 -18.506   6.185  0.00  0.00    +0.111 C 
BRANCH  25  26
ATOM     26  S   LIG    1       30.579 -19.407   6.208  0.00  0.00    -0.080 S 
BRANCH  26  27
ATOM     27  C   LIG    1       31.222 -18.888   7.737  0.00  0.00    +0.209 A 
ATOM     28  N   LIG    1       31.433 -19.716   8.802  0.00  0.00    -0.223 N 
ATOM     29  C   LIG    1       31.030 -21.080   8.997  0.00  0.00    +0.177 C 
ATOM     30  N   LIG    1       32.013 -19.028   9.801  0.00  0.00    -0.043 NA
ATOM     31  N   LIG    1       32.101 -17.782   9.356  0.00  0.00    -0.022 NA
ATOM     32  N   LIG    1       31.603 -17.677   8.076  0.00  0.00    -0.102 NA
ENDBRANCH  26  27
ENDBRANCH  25  26
ENDBRANCH   5  25
TORSDOF 11
ENDMDL
