MODEL 1
REMARK VINA RESULT:      -7.8      0.000      0.000
REMARK  Name = *****
REMARK                            x       y       z     vdW  Elec       q    Type
REMARK                         _______ _______ _______ _____ _____    ______ ____
ROOT
ATOM      1  C   LIG    1       31.422 -18.475   9.089  0.00  0.00    +0.036 C 
ATOM      2  C   LIG    1       29.896 -18.439   8.859  0.00  0.00    +0.004 C 
ATOM      3  C   LIG    1       29.475 -18.691   7.283  0.00  0.00    +0.039 C 
ATOM      4  C   LIG    1       30.505 -18.852   6.358  0.00  0.00    +0.066 C 
ATOM      5  C   LIG    1       29.073 -18.558   5.304  0.00  0.00    +0.035 C 
ATOM      6  C   LIG    1       27.856 -19.493   6.021  0.00  0.00    +0.045 C 
ATOM      7  C   LIG    1       27.636 -19.921   7.633  0.00  0.00    +0.103 C 
ATOM      8  C   LIG    1       29.257 -20.494   8.424  0.00  0.00    +0.081 C 
ATOM      9  N   LIG    1       26.592 -20.991   7.580  0.00  0.00    -0.327 N 
ATOM     10  C   LIG    1       25.774 -21.184   8.769  0.00  0.00    +0.130 C 
ATOM     11  C   LIG    1       25.911 -20.786   6.342  0.00  0.00    +0.034 A 
ATOM     12  C   LIG    1       24.701 -21.354   5.969  0.00  0.00    +0.023 A 
ATOM     13  C   LIG    1       24.206 -21.119   4.681  0.00  0.00    +0.002 A 
ATOM     14  C   LIG    1       24.922 -20.334   3.767  0.00  0.00    +0.000 A 
ATOM     15  C   LIG    1       26.148 -19.772   4.126  0.00  0.00    +0.006 A 
ATOM     16  C   LIG    1       26.632 -20.012   5.401  0.00  0.00    -0.016 A 
ATOM     17  N   LIG    1       30.775 -20.137   7.439  0.00  0.00    -0.269 NA
ATOM     18  C   LIG    1       29.015 -20.294   6.180  0.00  0.00    +0.132 C 
ATOM     19  C   LIG    1       29.324 -19.599   9.616  0.00  0.00    +0.025 C 
ATOM     20  C   LIG    1       31.868 -19.718   8.319  0.00  0.00    +0.189 C 
ENDROOT
BRANCH   1  22
ATOM     21  C   LIG    1       32.647 -16.390   9.882  0.00  0.00    +0.004 C 
ATOM     22  C   LIG    1       32.138 -17.174   8.678  0.00  0.00    +0.004 C 
ENDBRANCH   1  22
BRANCH  18  23
ATOM     23  O   LIG    1       28.864 -21.698   6.497  0.00  0.00    -0.391 OA
ATOM     24  H   LIG    1       28.799 -21.818   7.467  0.00  0.00    +0.210 HD
ENDBRANCH  18  23
BRANCH  20  25
ATOM     25  O   LIG    1       32.145 -20.789   9.192  0.00  0.00    -0.377 OA
ATOM     26  H   LIG    1       31.513 -20.624   9.916  0.00  0.00    +0.211 HD
ENDBRANCH  20  25
TORSDOF 3
ENDMDL
MODEL 2
REMARK VINA RESULT:      -6.0      1.618      6.550
REMARK  Name = *****
REMARK                            x       y       z     vdW  Elec       q    Type
REMARK                         _______ _______ _______ _____ _____    ______ ____
ROOT
ATOM      1  C   LIG    1       23.800 -21.587   5.705  0.00  0.00    +0.036 C 
ATOM      2  C   LIG    1       24.718 -20.379   5.988  0.00  0.00    +0.004 C 
ATOM      3  C   LIG    1       25.790 -20.657   7.212  0.00  0.00    +0.039 C 
ATOM      4  C   LIG    1       25.718 -21.886   7.867  0.00  0.00    +0.066 C 
ATOM      5  C   LIG    1       26.742 -20.906   8.981  0.00  0.00    +0.035 C 
ATOM      6  C   LIG    1       27.792 -20.087   7.936  0.00  0.00    +0.045 C 
ATOM      7  C   LIG    1       27.551 -19.574   6.351  0.00  0.00    +0.103 C 
ATOM      8  C   LIG    1       26.733 -20.922   5.304  0.00  0.00    +0.081 C 
ATOM      9  N   LIG    1       28.924 -19.210   5.880  0.00  0.00    -0.327 N 
ATOM     10  C   LIG    1       29.022 -18.233   4.807  0.00  0.00    +0.130 C 
ATOM     11  C   LIG    1       29.671 -18.955   7.070  0.00  0.00    +0.034 A 
ATOM     12  C   LIG    1       30.907 -18.330   7.143  0.00  0.00    +0.023 A 
ATOM     13  C   LIG    1       31.550 -18.230   8.382  0.00  0.00    +0.002 A 
ATOM     14  C   LIG    1       30.967 -18.766   9.539  0.00  0.00    +0.000 A 
ATOM     15  C   LIG    1       29.732 -19.412   9.475  0.00  0.00    +0.006 A 
ATOM     16  C   LIG    1       29.105 -19.508   8.244  0.00  0.00    -0.016 A 
ATOM     17  N   LIG    1       26.042 -22.340   6.261  0.00  0.00    -0.269 NA
ATOM     18  C   LIG    1       27.658 -21.361   7.327  0.00  0.00    +0.132 C 
ATOM     19  C   LIG    1       25.556 -20.185   4.760  0.00  0.00    +0.025 C 
ATOM     20  C   LIG    1       24.767 -22.772   5.685  0.00  0.00    +0.189 C 
ENDROOT
BRANCH   1  22
ATOM     21  C   LIG    1       22.249 -23.181   6.943  0.00  0.00    +0.004 C 
ATOM     22  C   LIG    1       22.638 -21.725   6.706  0.00  0.00    +0.004 C 
ENDBRANCH   1  22
BRANCH  18  23
ATOM     23  O   LIG    1       28.620 -21.768   6.325  0.00  0.00    -0.391 OA
ATOM     24  H   LIG    1       29.261 -22.400   6.712  0.00  0.00    +0.210 HD
ENDBRANCH  18  23
BRANCH  20  25
ATOM     25  O   LIG    1       25.020 -23.204   4.368  0.00  0.00    -0.377 OA
ATOM     26  H   LIG    1       24.136 -23.131   3.961  0.00  0.00    +0.211 HD
ENDBRANCH  20  25
TORSDOF 3
ENDMDL
MODEL 3
REMARK VINA RESULT:      -6.0      9.925     11.367
REMARK  Name = *****
REMARK                            x       y       z     vdW  Elec       q    Type
REMARK                         _______ _______ _______ _____ _____    ______ ____
ROOT
ATOM      1  C   LIG    1       26.705 -28.497  13.732  0.00  0.00    +0.036 C 
ATOM      2  C   LIG    1       25.542 -28.825  12.771  0.00  0.00    +0.004 C 
ATOM      3  C   LIG    1       26.001 -28.842  11.186  0.00  0.00    +0.039 C 
ATOM      4  C   LIG    1       27.326 -28.520  10.894  0.00  0.00    +0.066 C 
ATOM      5  C   LIG    1       26.529 -28.406   9.281  0.00  0.00    +0.035 C 
ATOM      6  C   LIG    1       25.517 -29.763   9.243  0.00  0.00    +0.045 C 
ATOM      7  C   LIG    1       24.744 -30.566  10.504  0.00  0.00    +0.103 C 
ATOM      8  C   LIG    1       25.911 -30.837  11.970  0.00  0.00    +0.081 C 
ATOM      9  N   LIG    1       24.272 -31.841   9.880  0.00  0.00    -0.327 N 
ATOM     10  C   LIG    1       23.121 -32.494  10.488  0.00  0.00    +0.130 C 
ATOM     11  C   LIG    1       24.207 -31.570   8.480  0.00  0.00    +0.034 A 
ATOM     12  C   LIG    1       23.575 -32.350   7.523  0.00  0.00    +0.023 A 
ATOM     13  C   LIG    1       23.675 -31.990   6.174  0.00  0.00    +0.002 A 
ATOM     14  C   LIG    1       24.416 -30.866   5.784  0.00  0.00    +0.000 A 
ATOM     15  C   LIG    1       25.071 -30.084   6.736  0.00  0.00    +0.006 A 
ATOM     16  C   LIG    1       24.968 -30.450   8.068  0.00  0.00    -0.016 A 
ATOM     17  N   LIG    1       27.488 -29.884  11.897  0.00  0.00    -0.269 NA
ATOM     18  C   LIG    1       26.669 -30.238   9.919  0.00  0.00    +0.132 C 
ATOM     19  C   LIG    1       25.119 -30.230  13.080  0.00  0.00    +0.025 C 
ATOM     20  C   LIG    1       27.845 -29.383  13.226  0.00  0.00    +0.189 C 
ENDROOT
BRANCH   1  22
ATOM     21  C   LIG    1       25.809 -26.118  13.612  0.00  0.00    +0.004 C 
ATOM     22  C   LIG    1       27.042 -26.996  13.802  0.00  0.00    +0.004 C 
ENDBRANCH   1  22
BRANCH  18  23
ATOM     23  O   LIG    1       26.874 -31.665  10.046  0.00  0.00    -0.391 OA
ATOM     24  H   LIG    1       27.829 -31.860  10.148  0.00  0.00    +0.210 HD
ENDBRANCH  18  23
BRANCH  20  25
ATOM     25  O   LIG    1       28.037 -30.499  14.064  0.00  0.00    -0.377 OA
ATOM     26  H   LIG    1       28.386 -31.160  13.437  0.00  0.00    +0.211 HD
ENDBRANCH  20  25
TORSDOF 3
ENDMDL
MODEL 4
REMARK VINA RESULT:      -5.8     10.445     12.063
REMARK  Name = *****
REMARK                            x       y       z     vdW  Elec       q    Type
REMARK                         _______ _______ _______ _____ _____    ______ ____
ROOT
ATOM      1  C   LIG    1       25.314 -29.234  13.055  0.00  0.00    +0.036 C 
ATOM      2  C   LIG    1       24.531 -29.802  11.852  0.00  0.00    +0.004 C 
ATOM      3  C   LIG    1       25.308 -29.577  10.413  0.00  0.00    +0.039 C 
ATOM      4  C   LIG    1       26.515 -28.880  10.433  0.00  0.00    +0.066 C 
ATOM      5  C   LIG    1       26.088 -28.876   8.682  0.00  0.00    +0.035 C 
ATOM      6  C   LIG    1       25.541 -30.455   8.405  0.00  0.00    +0.045 C 
ATOM      7  C   LIG    1       24.776 -31.529   9.451  0.00  0.00    +0.103 C 
ATOM      8  C   LIG    1       25.625 -31.569  11.142  0.00  0.00    +0.081 C 
ATOM      9  N   LIG    1       24.837 -32.837   8.727  0.00  0.00    -0.327 N 
ATOM     10  C   LIG    1       23.819 -33.825   9.052  0.00  0.00    +0.130 C 
ATOM     11  C   LIG    1       25.002 -32.495   7.351  0.00  0.00    +0.034 A 
ATOM     12  C   LIG    1       24.843 -33.349   6.270  0.00  0.00    +0.023 A 
ATOM     13  C   LIG    1       25.126 -32.879   4.982  0.00  0.00    +0.002 A 
ATOM     14  C   LIG    1       25.579 -31.568   4.779  0.00  0.00    +0.000 A 
ATOM     15  C   LIG    1       25.759 -30.706   5.860  0.00  0.00    +0.006 A 
ATOM     16  C   LIG    1       25.480 -31.180   7.131  0.00  0.00    -0.016 A 
ATOM     17  N   LIG    1       26.840 -30.213  11.438  0.00  0.00    -0.269 NA
ATOM     18  C   LIG    1       26.606 -30.638   9.323  0.00  0.00    +0.132 C 
ATOM     19  C   LIG    1       24.472 -31.287  12.046  0.00  0.00    +0.025 C 
ATOM     20  C   LIG    1       26.741 -29.729  12.817  0.00  0.00    +0.189 C 
ENDROOT
BRANCH   1  22
ATOM     21  C   LIG    1       23.727 -27.257  13.279  0.00  0.00    +0.004 C 
ATOM     22  C   LIG    1       25.183 -27.707  13.210  0.00  0.00    +0.004 C 
ENDBRANCH   1  22
BRANCH  18  23
ATOM     23  O   LIG    1       27.179 -31.957   9.483  0.00  0.00    -0.391 OA
ATOM     24  H   LIG    1       28.148 -31.889   9.608  0.00  0.00    +0.210 HD
ENDBRANCH  18  23
BRANCH  20  25
ATOM     25  O   LIG    1       27.059 -30.805  13.668  0.00  0.00    -0.377 OA
ATOM     26  H   LIG    1       27.232 -31.521  13.028  0.00  0.00    +0.211 HD
ENDBRANCH  20  25
TORSDOF 3
ENDMDL
MODEL 5
REMARK VINA RESULT:      -5.7     10.674     12.615
REMARK  Name = *****
REMARK                            x       y       z     vdW  Elec       q    Type
REMARK                         _______ _______ _______ _____ _____    ______ ____
ROOT
ATOM      1  C   LIG    1       26.308 -31.899   7.960  0.00  0.00    +0.036 C 
ATOM      2  C   LIG    1       25.984 -30.526   8.588  0.00  0.00    +0.004 C 
ATOM      3  C   LIG    1       24.571 -30.526   9.441  0.00  0.00    +0.039 C 
ATOM      4  C   LIG    1       23.826 -31.704   9.458  0.00  0.00    +0.066 C 
ATOM      5  C   LIG    1       22.647 -30.485  10.070  0.00  0.00    +0.035 C 
ATOM      6  C   LIG    1       23.566 -29.551  11.142  0.00  0.00    +0.045 C 
ATOM      7  C   LIG    1       25.209 -29.189  11.121  0.00  0.00    +0.103 C 
ATOM      8  C   LIG    1       26.251 -30.727  10.759  0.00  0.00    +0.081 C 
ATOM      9  N   LIG    1       25.465 -28.606  12.475  0.00  0.00    -0.327 N 
ATOM     10  C   LIG    1       26.592 -27.695  12.605  0.00  0.00    +0.130 C 
ATOM     11  C   LIG    1       24.193 -28.144  12.929  0.00  0.00    +0.034 A 
ATOM     12  C   LIG    1       23.964 -27.297  14.004  0.00  0.00    +0.023 A 
ATOM     13  C   LIG    1       22.647 -27.005  14.374  0.00  0.00    +0.002 A 
ATOM     14  C   LIG    1       21.564 -27.568  13.683  0.00  0.00    +0.000 A 
ATOM     15  C   LIG    1       21.782 -28.434  12.612  0.00  0.00    +0.006 A 
ATOM     16  C   LIG    1       23.089 -28.720  12.254  0.00  0.00    -0.016 A 
ATOM     17  N   LIG    1       25.301 -32.187  10.153  0.00  0.00    -0.269 NA
ATOM     18  C   LIG    1       24.066 -30.862  11.346  0.00  0.00    +0.132 C 
ATOM     19  C   LIG    1       27.059 -30.256   9.596  0.00  0.00    +0.025 C 
ATOM     20  C   LIG    1       26.048 -32.883   9.102  0.00  0.00    +0.189 C 
ENDROOT
BRANCH   1  22
ATOM     21  C   LIG    1       25.491 -30.991   5.727  0.00  0.00    +0.004 C 
ATOM     22  C   LIG    1       25.517 -32.189   6.671  0.00  0.00    +0.004 C 
ENDBRANCH   1  22
BRANCH  18  23
ATOM     23  O   LIG    1       24.841 -31.144  12.535  0.00  0.00    -0.391 OA
ATOM     24  H   LIG    1       24.258 -31.486  13.244  0.00  0.00    +0.210 HD
ENDBRANCH  18  23
BRANCH  20  25
ATOM     25  O   LIG    1       27.254 -33.340   9.669  0.00  0.00    -0.377 OA
ATOM     26  H   LIG    1       26.963 -33.618  10.558  0.00  0.00    +0.211 HD
ENDBRANCH  20  25
TORSDOF 3
ENDMDL
MODEL 6
REMARK VINA RESULT:      -5.6     11.690     13.268
REMARK  Name = *****
REMARK                            x       y       z     vdW  Elec       q    Type
REMARK                         _______ _______ _______ _____ _____    ______ ____
ROOT
ATOM      1  C   LIG    1       26.428 -33.576   7.286  0.00  0.00    +0.036 C 
ATOM      2  C   LIG    1       25.547 -33.445   8.548  0.00  0.00    +0.004 C 
ATOM      3  C   LIG    1       25.660 -31.960   9.259  0.00  0.00    +0.039 C 
ATOM      4  C   LIG    1       26.541 -31.038   8.697  0.00  0.00    +0.066 C 
ATOM      5  C   LIG    1       26.187 -30.309  10.306  0.00  0.00    +0.035 C 
ATOM      6  C   LIG    1       24.516 -30.523  10.477  0.00  0.00    +0.045 C 
ATOM      7  C   LIG    1       23.515 -31.730   9.866  0.00  0.00    +0.103 C 
ATOM      8  C   LIG    1       23.895 -32.087   8.047  0.00  0.00    +0.081 C 
ATOM      9  N   LIG    1       22.135 -31.199  10.090  0.00  0.00    -0.327 N 
ATOM     10  C   LIG    1       21.058 -32.171  10.207  0.00  0.00    +0.130 C 
ATOM     11  C   LIG    1       22.269 -30.240  11.139  0.00  0.00    +0.034 A 
ATOM     12  C   LIG    1       21.235 -29.679  11.874  0.00  0.00    +0.023 A 
ATOM     13  C   LIG    1       21.528 -28.685  12.815  0.00  0.00    +0.002 A 
ATOM     14  C   LIG    1       22.844 -28.245  13.010  0.00  0.00    +0.000 A 
ATOM     15  C   LIG    1       23.890 -28.790  12.264  0.00  0.00    +0.006 A 
ATOM     16  C   LIG    1       23.591 -29.770  11.333  0.00  0.00    -0.016 A 
ATOM     17  N   LIG    1       25.464 -31.349   7.418  0.00  0.00    -0.269 NA
ATOM     18  C   LIG    1       24.665 -30.233   9.098  0.00  0.00    +0.132 C 
ATOM     19  C   LIG    1       24.126 -33.561   8.088  0.00  0.00    +0.025 C 
ATOM     20  C   LIG    1       26.144 -32.284   6.518  0.00  0.00    +0.189 C 
ENDROOT
BRANCH   1  22
ATOM     21  C   LIG    1       28.792 -33.712   6.354  0.00  0.00    +0.004 C 
ATOM     22  C   LIG    1       27.916 -33.825   7.597  0.00  0.00    +0.004 C 
ENDBRANCH   1  22
BRANCH  18  23
ATOM     23  O   LIG    1       23.504 -29.833   8.331  0.00  0.00    -0.391 OA
ATOM     24  H   LIG    1       22.877 -29.342   8.902  0.00  0.00    +0.210 HD
ENDBRANCH  18  23
BRANCH  20  25
ATOM     25  O   LIG    1       25.291 -32.516   5.422  0.00  0.00    -0.377 OA
ATOM     26  H   LIG    1       25.186 -31.617   5.057  0.00  0.00    +0.211 HD
ENDBRANCH  20  25
TORSDOF 3
ENDMDL
MODEL 7
REMARK VINA RESULT:      -5.6     10.624     13.275
REMARK  Name = *****
REMARK                            x       y       z     vdW  Elec       q    Type
REMARK                         _______ _______ _______ _____ _____    ______ ____
ROOT
ATOM      1  C   LIG    1       19.300 -27.788  13.955  0.00  0.00    +0.036 C 
ATOM      2  C   LIG    1       20.345 -27.943  12.829  0.00  0.00    +0.004 C 
ATOM      3  C   LIG    1       21.853 -27.448  13.279  0.00  0.00    +0.039 C 
ATOM      4  C   LIG    1       22.005 -26.916  14.558  0.00  0.00    +0.066 C 
ATOM      5  C   LIG    1       23.535 -26.421  13.744  0.00  0.00    +0.035 C 
ATOM      6  C   LIG    1       23.992 -27.808  12.886  0.00  0.00    +0.045 C 
ATOM      7  C   LIG    1       23.040 -29.021  12.213  0.00  0.00    +0.103 C 
ATOM      8  C   LIG    1       21.686 -29.582  13.411  0.00  0.00    +0.081 C 
ATOM      9  N   LIG    1       24.020 -30.102  11.880  0.00  0.00    -0.327 N 
ATOM     10  C   LIG    1       23.658 -31.022  10.811  0.00  0.00    +0.130 C 
ATOM     11  C   LIG    1       25.282 -29.442  11.778  0.00  0.00    +0.034 A 
ATOM     12  C   LIG    1       26.441 -29.972  11.229  0.00  0.00    +0.023 A 
ATOM     13  C   LIG    1       27.623 -29.225  11.282  0.00  0.00    +0.002 A 
ATOM     14  C   LIG    1       27.650 -27.964  11.893  0.00  0.00    +0.000 A 
ATOM     15  C   LIG    1       26.495 -27.429  12.463  0.00  0.00    +0.006 A 
ATOM     16  C   LIG    1       25.330 -28.176  12.409  0.00  0.00    -0.016 A 
ATOM     17  N   LIG    1       21.437 -28.487  14.875  0.00  0.00    -0.269 NA
ATOM     18  C   LIG    1       23.453 -28.334  14.088  0.00  0.00    +0.132 C 
ATOM     19  C   LIG    1       20.469 -29.413  12.565  0.00  0.00    +0.025 C 
ATOM     20  C   LIG    1       20.011 -28.361  15.182  0.00  0.00    +0.189 C 
ENDROOT
BRANCH   1  22
ATOM     21  C   LIG    1       17.282 -26.291  14.362  0.00  0.00    +0.004 C 
ATOM     22  C   LIG    1       18.787 -26.346  14.126  0.00  0.00    +0.004 C 
ENDBRANCH   1  22
BRANCH  18  23
ATOM     23  O   LIG    1       23.741 -29.706  14.448  0.00  0.00    -0.391 OA
ATOM     24  H   LIG    1       23.947 -29.766  15.404  0.00  0.00    +0.210 HD
ENDBRANCH  18  23
BRANCH  20  25
ATOM     25  O   LIG    1       19.529 -29.646  15.500  0.00  0.00    -0.377 OA
ATOM     26  H   LIG    1       18.787 -29.438  16.098  0.00  0.00    +0.211 HD
ENDBRANCH  20  25
TORSDOF 3
ENDMDL
MODEL 8
REMARK VINA RESULT:      -5.6     10.507     14.127
REMARK  Name = *****
REMARK                            x       y       z     vdW  Elec       q    Type
REMARK                         _______ _______ _______ _____ _____    ______ ____
ROOT
ATOM      1  C   LIG    1       19.748 -31.816  11.399  0.00  0.00    +0.036 C 
ATOM      2  C   LIG    1       20.801 -30.764  10.988  0.00  0.00    +0.004 C 
ATOM      3  C   LIG    1       20.987 -29.568  12.110  0.00  0.00    +0.039 C 
ATOM      4  C   LIG    1       20.169 -29.607  13.238  0.00  0.00    +0.066 C 
ATOM      5  C   LIG    1       20.833 -27.932  13.292  0.00  0.00    +0.035 C 
ATOM      6  C   LIG    1       22.468 -28.143  12.904  0.00  0.00    +0.045 C 
ATOM      7  C   LIG    1       23.205 -29.305  11.935  0.00  0.00    +0.103 C 
ATOM      8  C   LIG    1       22.538 -31.037  12.304  0.00  0.00    +0.081 C 
ATOM      9  N   LIG    1       24.662 -29.154  12.240  0.00  0.00    -0.327 N 
ATOM     10  C   LIG    1       25.604 -29.577  11.214  0.00  0.00    +0.130 C 
ATOM     11  C   LIG    1       24.801 -27.828  12.751  0.00  0.00    +0.034 A 
ATOM     12  C   LIG    1       25.991 -27.137  12.921  0.00  0.00    +0.023 A 
ATOM     13  C   LIG    1       25.966 -25.870  13.516  0.00  0.00    +0.002 A 
ATOM     14  C   LIG    1       24.759 -25.306  13.953  0.00  0.00    +0.000 A 
ATOM     15  C   LIG    1       23.558 -26.000  13.803  0.00  0.00    +0.006 A 
ATOM     16  C   LIG    1       23.593 -27.253  13.215  0.00  0.00    -0.016 A 
ATOM     17  N   LIG    1       21.012 -31.081  13.340  0.00  0.00    -0.269 NA
ATOM     18  C   LIG    1       22.174 -29.284  13.693  0.00  0.00    +0.132 C 
ATOM     19  C   LIG    1       22.118 -31.477  10.942  0.00  0.00    +0.025 C 
ATOM     20  C   LIG    1       20.096 -32.118  12.857  0.00  0.00    +0.189 C 
ENDROOT
BRANCH   1  22
ATOM     21  C   LIG    1       17.951 -31.257   9.685  0.00  0.00    +0.004 C 
ATOM     22  C   LIG    1       18.296 -31.358  11.167  0.00  0.00    +0.004 C 
ENDBRANCH   1  22
BRANCH  18  23
ATOM     23  O   LIG    1       23.263 -30.051  14.258  0.00  0.00    -0.391 OA
ATOM     24  H   LIG    1       23.679 -29.554  14.993  0.00  0.00    +0.210 HD
ENDBRANCH  18  23
BRANCH  20  25
ATOM     25  O   LIG    1       20.754 -33.357  12.981  0.00  0.00    -0.377 OA
ATOM     26  H   LIG    1       21.421 -33.300  12.272  0.00  0.00    +0.211 HD
ENDBRANCH  20  25
TORSDOF 3
ENDMDL
MODEL 9
REMARK VINA RESULT:      -5.4     10.114     11.921
REMARK  Name = *****
REMARK                            x       y       z     vdW  Elec       q    Type
REMARK                         _______ _______ _______ _____ _____    ______ ____
ROOT
ATOM      1  C   LIG    1       27.353 -29.044  11.496  0.00  0.00    +0.036 C 
ATOM      2  C   LIG    1       26.285 -27.965  11.777  0.00  0.00    +0.004 C 
ATOM      3  C   LIG    1       24.772 -28.593  11.977  0.00  0.00    +0.039 C 
ATOM      4  C   LIG    1       24.619 -29.970  11.826  0.00  0.00    +0.066 C 
ATOM      5  C   LIG    1       22.918 -29.378  11.764  0.00  0.00    +0.035 C 
ATOM      6  C   LIG    1       22.856 -28.224  13.002  0.00  0.00    +0.045 C 
ATOM      7  C   LIG    1       24.069 -27.226  13.607  0.00  0.00    +0.103 C 
ATOM      8  C   LIG    1       25.680 -28.182  13.877  0.00  0.00    +0.081 C 
ATOM      9  N   LIG    1       23.485 -26.680  14.872  0.00  0.00    -0.327 N 
ATOM     10  C   LIG    1       23.995 -25.401  15.342  0.00  0.00    +0.130 C 
ATOM     11  C   LIG    1       22.072 -26.805  14.715  0.00  0.00    +0.034 A 
ATOM     12  C   LIG    1       21.104 -26.196  15.500  0.00  0.00    +0.023 A 
ATOM     13  C   LIG    1       19.754 -26.488  15.268  0.00  0.00    +0.002 A 
ATOM     14  C   LIG    1       19.377 -27.395  14.268  0.00  0.00    +0.000 A 
ATOM     15  C   LIG    1       20.343 -28.026  13.484  0.00  0.00    +0.006 A 
ATOM     16  C   LIG    1       21.675 -27.733  13.722  0.00  0.00    -0.016 A 
ATOM     17  N   LIG    1       25.730 -29.859  13.110  0.00  0.00    -0.269 NA
ATOM     18  C   LIG    1       23.698 -29.230  13.539  0.00  0.00    +0.132 C 
ATOM     19  C   LIG    1       26.640 -27.349  13.096  0.00  0.00    +0.025 C 
ATOM     20  C   LIG    1       27.053 -30.121  12.539  0.00  0.00    +0.189 C 
ENDROOT
BRANCH   1  22
ATOM     21  C   LIG    1       26.651 -28.576   9.095  0.00  0.00    +0.004 C 
ATOM     22  C   LIG    1       27.355 -29.544  10.039  0.00  0.00    +0.004 C 
ENDBRANCH   1  22
BRANCH  18  23
ATOM     23  O   LIG    1       23.950 -29.251  14.964  0.00  0.00    -0.391 OA
ATOM     24  H   LIG    1       24.894 -29.055  15.142  0.00  0.00    +0.210 HD
ENDBRANCH  18  23
BRANCH  20  25
ATOM     25  O   LIG    1       27.985 -30.086  13.595  0.00  0.00    -0.377 OA
ATOM     26  H   LIG    1       27.499 -30.545  14.305  0.00  0.00    +0.211 HD
ENDBRANCH  20  25
TORSDOF 3
ENDMDL
