MODEL 1
REMARK VINA RESULT:       0.9      0.000      0.000
REMARK  Name = *****
REMARK                            x       y       z     vdW  Elec       q    Type
REMARK                         _______ _______ _______ _____ _____    ______ ____
ROOT
ATOM      1  C   LIG    1       24.642 -17.518   3.877  0.00  0.00    +0.092 A 
ATOM      2  C   LIG    1       25.864 -16.765   3.843  0.00  0.00    +0.044 A 
ATOM      3  I   LIG    1       27.814 -17.840   4.075  0.00  0.00    -0.041 I 
ATOM      4  C   LIG    1       25.900 -15.342   3.704  0.00  0.00    -0.018 A 
ATOM      5  C   LIG    1       24.653 -14.696   3.570  0.00  0.00    +0.019 A 
ATOM      6  I   LIG    1       24.410 -12.724   2.844  0.00  0.00    -0.043 I 
ATOM      7  C   LIG    1       23.451 -15.379   3.781  0.00  0.00    +0.031 A 
ATOM      8  C   LIG    1       23.448 -16.769   3.941  0.00  0.00    +0.041 A 
ATOM      9  I   LIG    1       21.548 -17.632   4.257  0.00  0.00    -0.042 I 
ENDROOT
BRANCH   1  11
ATOM     10  C   LIG    1       24.431 -19.541   5.011  0.00  0.00    +0.184 C 
ATOM     11  N   LIG    1       24.575 -18.945   3.872  0.00  0.00    -0.238 NA
BRANCH  10  13
ATOM     12  C   LIG    1       23.026 -21.545   5.308  0.00  0.00    +0.130 C 
ATOM     13  N   LIG    1       24.316 -20.882   5.304  0.00  0.00    -0.327 N 
ATOM     14  C   LIG    1       25.412 -21.572   5.971  0.00  0.00    +0.130 C 
ENDBRANCH  10  13
ENDBRANCH   1  11
BRANCH   4  15
ATOM     15  C   LIG    1       27.210 -14.569   3.665  0.00  0.00    +0.048 C 
BRANCH  15  16
ATOM     16  C   LIG    1       27.481 -13.536   4.768  0.00  0.00    +0.125 C 
BRANCH  16  17
ATOM     17  C   LIG    1       28.716 -12.679   4.562  0.00  0.00    +0.305 C 
ATOM     18  O   LIG    1       29.450 -12.777   3.618  0.00  0.00    -0.251 OA
BRANCH  17  19
ATOM     19  O   LIG    1       28.964 -11.817   5.587  0.00  0.00    -0.481 OA
ATOM     20  H   LIG    1       29.208 -10.910   5.343  0.00  0.00    +0.295 HD
ENDBRANCH  17  19
ENDBRANCH  16  17
ENDBRANCH  15  16
ENDBRANCH   4  15
TORSDOF 6
ENDMDL
MODEL 2
REMARK VINA RESULT:       1.7      2.896      4.094
REMARK  Name = *****
REMARK                            x       y       z     vdW  Elec       q    Type
REMARK                         _______ _______ _______ _____ _____    ______ ____
ROOT
ATOM      1  C   LIG    1       25.130 -19.051   4.534  0.00  0.00    +0.092 A 
ATOM      2  C   LIG    1       24.959 -17.713   4.045  0.00  0.00    +0.044 A 
ATOM      3  I   LIG    1       26.768 -16.461   3.632  0.00  0.00    -0.041 I 
ATOM      4  C   LIG    1       23.675 -17.116   3.838  0.00  0.00    -0.018 A 
ATOM      5  C   LIG    1       22.556 -17.929   4.117  0.00  0.00    +0.019 A 
ATOM      6  I   LIG    1       20.596 -17.525   3.433  0.00  0.00    -0.043 I 
ATOM      7  C   LIG    1       22.694 -19.162   4.763  0.00  0.00    +0.031 A 
ATOM      8  C   LIG    1       23.963 -19.710   4.976  0.00  0.00    +0.041 A 
ATOM      9  I   LIG    1       23.983 -21.572   5.971  0.00  0.00    -0.042 I 
ENDROOT
BRANCH   1  11
ATOM     10  C   LIG    1       27.040 -19.638   5.730  0.00  0.00    +0.184 C 
ATOM     11  N   LIG    1       26.389 -19.724   4.617  0.00  0.00    -0.238 NA
BRANCH  10  13
ATOM     12  C   LIG    1       28.310 -21.345   6.977  0.00  0.00    +0.130 C 
ATOM     13  N   LIG    1       28.246 -20.192   6.099  0.00  0.00    -0.327 N 
ATOM     14  C   LIG    1       29.474 -19.427   5.928  0.00  0.00    +0.130 C 
ENDBRANCH  10  13
ENDBRANCH   1  11
BRANCH   4  15
ATOM     15  C   LIG    1       23.522 -15.696   3.312  0.00  0.00    +0.048 C 
BRANCH  15  16
ATOM     16  C   LIG    1       23.534 -14.540   4.321  0.00  0.00    +0.125 C 
BRANCH  16  17
ATOM     17  C   LIG    1       23.989 -13.202   3.766  0.00  0.00    +0.305 C 
ATOM     18  O   LIG    1       23.931 -12.170   4.374  0.00  0.00    -0.251 OA
BRANCH  17  19
ATOM     19  O   LIG    1       24.418 -13.261   2.474  0.00  0.00    -0.481 OA
ATOM     20  H   LIG    1       24.939 -12.507   2.155  0.00  0.00    +0.295 HD
ENDBRANCH  17  19
ENDBRANCH  16  17
ENDBRANCH  15  16
ENDBRANCH   4  15
TORSDOF 6
ENDMDL
MODEL 3
REMARK VINA RESULT:       2.1      4.217      7.103
REMARK  Name = *****
REMARK                            x       y       z     vdW  Elec       q    Type
REMARK                         _______ _______ _______ _____ _____    ______ ____
ROOT
ATOM      1  C   LIG    1       24.629 -15.712   4.130  0.00  0.00    +0.092 A 
ATOM      2  C   LIG    1       23.612 -16.706   4.328  0.00  0.00    +0.044 A 
ATOM      3  I   LIG    1       21.698 -16.124   5.333  0.00  0.00    -0.041 I 
ATOM      4  C   LIG    1       23.774 -18.075   3.945  0.00  0.00    -0.018 A 
ATOM      5  C   LIG    1       24.996 -18.409   3.323  0.00  0.00    +0.019 A 
ATOM      6  I   LIG    1       25.314 -20.177   2.207  0.00  0.00    -0.043 I 
ATOM      7  C   LIG    1       26.065 -17.508   3.284  0.00  0.00    +0.031 A 
ATOM      8  C   LIG    1       25.885 -16.181   3.690  0.00  0.00    +0.041 A 
ATOM      9  I   LIG    1       27.606 -14.965   3.571  0.00  0.00    -0.042 I 
ENDROOT
BRANCH   1  11
ATOM     10  C   LIG    1       24.109 -13.576   3.362  0.00  0.00    +0.184 C 
ATOM     11  N   LIG    1       24.447 -14.315   4.368  0.00  0.00    -0.238 NA
BRANCH  10  13
ATOM     12  C   LIG    1       24.178 -11.447   2.120  0.00  0.00    +0.130 C 
ATOM     13  N   LIG    1       23.849 -12.225   3.300  0.00  0.00    -0.327 N 
ATOM     14  C   LIG    1       23.591 -11.482   4.527  0.00  0.00    +0.130 C 
ENDBRANCH  10  13
ENDBRANCH   1  11
BRANCH   4  15
ATOM     15  C   LIG    1       22.678 -19.107   4.162  0.00  0.00    +0.048 C 
BRANCH  15  16
ATOM     16  C   LIG    1       23.073 -20.490   4.699  0.00  0.00    +0.125 C 
BRANCH  16  17
ATOM     17  C   LIG    1       23.683 -20.494   6.088  0.00  0.00    +0.305 C 
ATOM     18  O   LIG    1       23.137 -20.050   7.061  0.00  0.00    -0.251 OA
BRANCH  17  19
ATOM     19  O   LIG    1       24.949 -20.993   6.132  0.00  0.00    -0.481 OA
ATOM     20  H   LIG    1       25.660 -20.361   6.323  0.00  0.00    +0.295 HD
ENDBRANCH  17  19
ENDBRANCH  16  17
ENDBRANCH  15  16
ENDBRANCH   4  15
TORSDOF 6
ENDMDL
MODEL 4
REMARK VINA RESULT:       2.2      4.312      7.101
REMARK  Name = *****
REMARK                            x       y       z     vdW  Elec       q    Type
REMARK                         _______ _______ _______ _____ _____    ______ ____
ROOT
ATOM      1  C   LIG    1       26.972 -17.303   4.156  0.00  0.00    +0.092 A 
ATOM      2  C   LIG    1       25.584 -17.276   3.790  0.00  0.00    +0.044 A 
ATOM      3  I   LIG    1       24.627 -15.316   3.285  0.00  0.00    -0.041 I 
ATOM      4  C   LIG    1       24.761 -18.445   3.765  0.00  0.00    -0.018 A 
ATOM      5  C   LIG    1       25.394 -19.662   4.098  0.00  0.00    +0.019 A 
ATOM      6  I   LIG    1       24.599 -21.572   3.657  0.00  0.00    -0.043 I 
ATOM      7  C   LIG    1       26.687 -19.689   4.631  0.00  0.00    +0.031 A 
ATOM      8  C   LIG    1       27.460 -18.524   4.667  0.00  0.00    +0.041 A 
ATOM      9  I   LIG    1       29.383 -18.749   5.510  0.00  0.00    -0.042 I 
ENDROOT
BRANCH   1  11
ATOM     10  C   LIG    1       27.404 -15.032   4.433  0.00  0.00    +0.184 C 
ATOM     11  N   LIG    1       27.855 -16.183   4.054  0.00  0.00    -0.238 NA
BRANCH  10  13
ATOM     12  C   LIG    1       27.710 -12.827   5.493  0.00  0.00    +0.130 C 
ATOM     13  N   LIG    1       28.026 -13.803   4.468  0.00  0.00    -0.327 N 
ATOM     14  C   LIG    1       28.723 -13.313   3.286  0.00  0.00    +0.130 C 
ENDBRANCH  10  13
ENDBRANCH   1  11
BRANCH   4  15
ATOM     15  C   LIG    1       23.293 -18.389   3.368  0.00  0.00    +0.048 C 
BRANCH  15  16
ATOM     16  C   LIG    1       22.235 -18.422   4.479  0.00  0.00    +0.125 C 
BRANCH  16  17
ATOM     17  C   LIG    1       22.226 -19.681   5.326  0.00  0.00    +0.305 C 
ATOM     18  O   LIG    1       22.819 -19.795   6.364  0.00  0.00    -0.251 OA
BRANCH  17  19
ATOM     19  O   LIG    1       21.531 -20.712   4.773  0.00  0.00    -0.481 OA
ATOM     20  H   LIG    1       21.971 -21.577   4.760  0.00  0.00    +0.295 HD
ENDBRANCH  17  19
ENDBRANCH  16  17
ENDBRANCH  15  16
ENDBRANCH   4  15
TORSDOF 6
ENDMDL
MODEL 5
REMARK VINA RESULT:       2.5      4.284      7.055
REMARK  Name = *****
REMARK                            x       y       z     vdW  Elec       q    Type
REMARK                         _______ _______ _______ _____ _____    ______ ____
ROOT
ATOM      1  C   LIG    1       26.087 -16.245   3.645  0.00  0.00    +0.092 A 
ATOM      2  C   LIG    1       25.678 -17.600   3.883  0.00  0.00    +0.044 A 
ATOM      3  I   LIG    1       23.588 -18.215   3.369  0.00  0.00    -0.041 I 
ATOM      4  C   LIG    1       26.535 -18.581   4.474  0.00  0.00    -0.018 A 
ATOM      5  C   LIG    1       27.842 -18.157   4.795  0.00  0.00    +0.019 A 
ATOM      6  I   LIG    1       29.454 -19.470   5.181  0.00  0.00    -0.043 I 
ATOM      7  C   LIG    1       28.204 -16.807   4.742  0.00  0.00    +0.031 A 
ATOM      8  C   LIG    1       27.334 -15.864   4.183  0.00  0.00    +0.041 A 
ATOM      9  I   LIG    1       28.041 -13.875   4.193  0.00  0.00    -0.042 I 
ENDROOT
BRANCH   1  11
ATOM     10  C   LIG    1       24.924 -14.228   3.575  0.00  0.00    +0.184 C 
ATOM     11  N   LIG    1       25.309 -15.282   2.931  0.00  0.00    -0.238 NA
BRANCH  10  13
ATOM     12  C   LIG    1       24.369 -12.595   1.813  0.00  0.00    +0.130 C 
ATOM     13  N   LIG    1       24.195 -13.141   3.145  0.00  0.00    -0.327 N 
ATOM     14  C   LIG    1       23.519 -12.295   4.120  0.00  0.00    +0.130 C 
ENDBRANCH  10  13
ENDBRANCH   1  11
BRANCH   4  15
ATOM     15  C   LIG    1       26.077 -20.013   4.710  0.00  0.00    +0.048 C 
BRANCH  15  16
ATOM     16  C   LIG    1       25.521 -20.382   6.092  0.00  0.00    +0.125 C 
BRANCH  16  17
ATOM     17  C   LIG    1       24.141 -21.012   6.087  0.00  0.00    +0.305 C 
ATOM     18  O   LIG    1       23.446 -21.113   7.060  0.00  0.00    -0.251 OA
BRANCH  17  19
ATOM     19  O   LIG    1       23.774 -21.522   4.878  0.00  0.00    -0.481 OA
ATOM     20  H   LIG    1       23.285 -22.360   4.890  0.00  0.00    +0.295 HD
ENDBRANCH  17  19
ENDBRANCH  16  17
ENDBRANCH  15  16
ENDBRANCH   4  15
TORSDOF 6
ENDMDL
MODEL 6
REMARK VINA RESULT:       2.5      2.520      3.811
REMARK  Name = *****
REMARK                            x       y       z     vdW  Elec       q    Type
REMARK                         _______ _______ _______ _____ _____    ______ ____
ROOT
ATOM      1  C   LIG    1       26.676 -18.305   4.456  0.00  0.00    +0.092 A 
ATOM      2  C   LIG    1       25.838 -17.383   3.745  0.00  0.00    +0.044 A 
ATOM      3  I   LIG    1       23.897 -18.106   2.894  0.00  0.00    -0.041 I 
ATOM      4  C   LIG    1       26.197 -16.018   3.516  0.00  0.00    -0.018 A 
ATOM      5  C   LIG    1       27.431 -15.598   4.058  0.00  0.00    +0.019 A 
ATOM      6  I   LIG    1       27.979 -13.574   4.332  0.00  0.00    -0.043 I 
ATOM      7  C   LIG    1       28.342 -16.515   4.592  0.00  0.00    +0.031 A 
ATOM      8  C   LIG    1       27.972 -17.851   4.780  0.00  0.00    +0.041 A 
ATOM      9  I   LIG    1       29.474 -19.093   5.590  0.00  0.00    -0.042 I 
ENDROOT
BRANCH   1  11
ATOM     10  C   LIG    1       25.139 -19.777   5.402  0.00  0.00    +0.184 C 
ATOM     11  N   LIG    1       26.286 -19.631   4.824  0.00  0.00    -0.238 NA
BRANCH  10  13
ATOM     12  C   LIG    1       23.190 -21.286   5.349  0.00  0.00    +0.130 C 
ATOM     13  N   LIG    1       24.504 -20.918   5.841  0.00  0.00    -0.327 N 
ATOM     14  C   LIG    1       24.957 -21.572   7.062  0.00  0.00    +0.130 C 
ENDBRANCH  10  13
ENDBRANCH   1  11
BRANCH   4  15
ATOM     15  C   LIG    1       25.287 -15.059   2.763  0.00  0.00    +0.048 C 
BRANCH  15  16
ATOM     16  C   LIG    1       24.188 -14.328   3.548  0.00  0.00    +0.125 C 
BRANCH  16  17
ATOM     17  C   LIG    1       24.128 -12.828   3.331  0.00  0.00    +0.305 C 
ATOM     18  O   LIG    1       23.918 -12.032   4.205  0.00  0.00    -0.251 OA
BRANCH  17  19
ATOM     19  O   LIG    1       24.273 -12.454   2.029  0.00  0.00    -0.481 OA
ATOM     20  H   LIG    1       24.094 -13.133   1.360  0.00  0.00    +0.295 HD
ENDBRANCH  17  19
ENDBRANCH  16  17
ENDBRANCH  15  16
ENDBRANCH   4  15
TORSDOF 6
ENDMDL
MODEL 7
REMARK VINA RESULT:       2.6      1.325      1.465
REMARK  Name = *****
REMARK                            x       y       z     vdW  Elec       q    Type
REMARK                         _______ _______ _______ _____ _____    ______ ____
ROOT
ATOM      1  C   LIG    1       24.730 -16.606   4.081  0.00  0.00    +0.092 A 
ATOM      2  C   LIG    1       25.968 -15.974   3.722  0.00  0.00    +0.044 A 
ATOM      3  I   LIG    1       27.881 -17.114   3.951  0.00  0.00    -0.041 I 
ATOM      4  C   LIG    1       26.049 -14.625   3.254  0.00  0.00    -0.018 A 
ATOM      5  C   LIG    1       24.825 -13.933   3.131  0.00  0.00    +0.019 A 
ATOM      6  I   LIG    1       24.573 -12.160   2.006  0.00  0.00    -0.043 I 
ATOM      7  C   LIG    1       23.635 -14.459   3.643  0.00  0.00    +0.031 A 
ATOM      8  C   LIG    1       23.591 -15.774   4.119  0.00  0.00    +0.041 A 
ATOM      9  I   LIG    1       21.716 -16.399   4.860  0.00  0.00    -0.042 I 
ENDROOT
BRANCH   1  11
ATOM     10  C   LIG    1       23.698 -18.672   3.786  0.00  0.00    +0.184 C 
ATOM     11  N   LIG    1       24.598 -17.990   4.414  0.00  0.00    -0.238 NA
BRANCH  10  13
ATOM     12  C   LIG    1       22.364 -20.467   4.824  0.00  0.00    +0.130 C 
ATOM     13  N   LIG    1       23.365 -20.006   3.882  0.00  0.00    -0.327 N 
ATOM     14  C   LIG    1       24.256 -21.014   3.322  0.00  0.00    +0.130 C 
ENDBRANCH  10  13
ENDBRANCH   1  11
BRANCH   4  15
ATOM     15  C   LIG    1       27.374 -13.981   2.875  0.00  0.00    +0.048 C 
BRANCH  15  16
ATOM     16  C   LIG    1       27.795 -12.697   3.601  0.00  0.00    +0.125 C 
BRANCH  16  17
ATOM     17  C   LIG    1       27.971 -12.831   5.103  0.00  0.00    +0.305 C 
ATOM     18  O   LIG    1       27.288 -13.531   5.798  0.00  0.00    -0.251 OA
BRANCH  17  19
ATOM     19  O   LIG    1       28.943 -12.027   5.616  0.00  0.00    -0.481 OA
ATOM     20  H   LIG    1       29.458 -11.506   4.980  0.00  0.00    +0.295 HD
ENDBRANCH  17  19
ENDBRANCH  16  17
ENDBRANCH  15  16
ENDBRANCH   4  15
TORSDOF 6
ENDMDL
MODEL 8
REMARK VINA RESULT:       3.1      4.103      6.838
REMARK  Name = *****
REMARK                            x       y       z     vdW  Elec       q    Type
REMARK                         _______ _______ _______ _____ _____    ______ ____
ROOT
ATOM      1  C   LIG    1       26.858 -16.355   3.910  0.00  0.00    +0.092 A 
ATOM      2  C   LIG    1       26.905 -17.746   4.259  0.00  0.00    +0.044 A 
ATOM      3  I   LIG    1       28.849 -18.641   4.919  0.00  0.00    -0.041 I 
ATOM      4  C   LIG    1       25.770 -18.611   4.172  0.00  0.00    -0.018 A 
ATOM      5  C   LIG    1       24.563 -18.017   3.744  0.00  0.00    +0.019 A 
ATOM      6  I   LIG    1       22.654 -18.887   4.007  0.00  0.00    -0.043 I 
ATOM      7  C   LIG    1       24.534 -16.718   3.227  0.00  0.00    +0.031 A 
ATOM      8  C   LIG    1       25.668 -15.902   3.302  0.00  0.00    +0.041 A 
ATOM      9  I   LIG    1       25.446 -13.976   2.468  0.00  0.00    -0.042 I 
ENDROOT
BRANCH   1  11
ATOM     10  C   LIG    1       27.625 -14.195   4.321  0.00  0.00    +0.184 C 
ATOM     11  N   LIG    1       27.932 -15.435   4.120  0.00  0.00    -0.238 NA
BRANCH  10  13
ATOM     12  C   LIG    1       28.175 -12.213   5.680  0.00  0.00    +0.130 C 
ATOM     13  N   LIG    1       28.434 -13.108   4.569  0.00  0.00    -0.327 N 
ATOM     14  C   LIG    1       29.328 -12.620   3.526  0.00  0.00    +0.130 C 
ENDBRANCH  10  13
ENDBRANCH   1  11
BRANCH   4  15
ATOM     15  C   LIG    1       25.846 -20.082   4.554  0.00  0.00    +0.048 C 
BRANCH  15  16
ATOM     16  C   LIG    1       24.556 -20.790   4.991  0.00  0.00    +0.125 C 
BRANCH  16  17
ATOM     17  C   LIG    1       24.543 -21.282   6.427  0.00  0.00    +0.305 C 
ATOM     18  O   LIG    1       23.542 -21.478   7.059  0.00  0.00    -0.251 OA
BRANCH  17  19
ATOM     19  O   LIG    1       25.783 -21.424   6.970  0.00  0.00    -0.481 OA
ATOM     20  H   LIG    1       25.909 -22.171   7.577  0.00  0.00    +0.295 HD
ENDBRANCH  17  19
ENDBRANCH  16  17
ENDBRANCH  15  16
ENDBRANCH   4  15
TORSDOF 6
ENDMDL
MODEL 9
REMARK VINA RESULT:       3.3      4.145      6.838
REMARK  Name = *****
REMARK                            x       y       z     vdW  Elec       q    Type
REMARK                         _______ _______ _______ _____ _____    ______ ____
ROOT
ATOM      1  C   LIG    1       26.498 -16.050   3.781  0.00  0.00    +0.092 A 
ATOM      2  C   LIG    1       26.514 -17.460   4.046  0.00  0.00    +0.044 A 
ATOM      3  I   LIG    1       28.463 -18.463   4.499  0.00  0.00    -0.041 I 
ATOM      4  C   LIG    1       25.340 -18.276   3.999  0.00  0.00    -0.018 A 
ATOM      5  C   LIG    1       24.131 -17.614   3.701  0.00  0.00    +0.019 A 
ATOM      6  I   LIG    1       22.212 -18.426   4.064  0.00  0.00    -0.043 I 
ATOM      7  C   LIG    1       24.116 -16.285   3.264  0.00  0.00    +0.031 A 
ATOM      8  C   LIG    1       25.285 -15.518   3.295  0.00  0.00    +0.041 A 
ATOM      9  I   LIG    1       25.080 -13.538   2.592  0.00  0.00    -0.042 I 
ENDROOT
BRANCH   1  11
ATOM     10  C   LIG    1       27.383 -13.952   4.272  0.00  0.00    +0.184 C 
ATOM     11  N   LIG    1       27.622 -15.183   3.958  0.00  0.00    -0.238 NA
BRANCH  10  13
ATOM     12  C   LIG    1       29.474 -12.753   3.756  0.00  0.00    +0.130 C 
ATOM     13  N   LIG    1       28.253 -12.914   4.522  0.00  0.00    -0.327 N 
ATOM     14  C   LIG    1       28.165 -12.185   5.781  0.00  0.00    +0.130 C 
ENDBRANCH  10  13
ENDBRANCH   1  11
BRANCH   4  15
ATOM     15  C   LIG    1       25.385 -19.769   4.290  0.00  0.00    +0.048 C 
BRANCH  15  16
ATOM     16  C   LIG    1       25.169 -20.238   5.735  0.00  0.00    +0.125 C 
BRANCH  16  17
ATOM     17  C   LIG    1       23.923 -21.073   5.965  0.00  0.00    +0.305 C 
ATOM     18  O   LIG    1       23.478 -21.330   7.050  0.00  0.00    -0.251 OA
BRANCH  17  19
ATOM     19  O   LIG    1       23.376 -21.571   4.821  0.00  0.00    -0.481 OA
ATOM     20  H   LIG    1       22.840 -22.374   4.909  0.00  0.00    +0.295 HD
ENDBRANCH  17  19
ENDBRANCH  16  17
ENDBRANCH  15  16
ENDBRANCH   4  15
TORSDOF 6
ENDMDL
