MODEL 1
REMARK VINA RESULT:      -6.5      0.000      0.000
REMARK  Name = *****
REMARK                            x       y       z     vdW  Elec       q    Type
REMARK                         _______ _______ _______ _____ _____    ______ ____
ROOT
ATOM      1  C   LIG    1       25.821 -19.366   4.162  0.00  0.00    +0.213 C 
ENDROOT
BRANCH   1   2
ATOM      2  C   LIG    1       24.627 -20.035   4.866  0.00  0.00    -0.001 A 
ATOM      3  C   LIG    1       23.419 -20.282   4.186  0.00  0.00    +0.007 A 
ATOM      4  C   LIG    1       22.334 -20.893   4.824  0.00  0.00    +0.000 A 
ATOM      5  C   LIG    1       22.433 -21.267   6.160  0.00  0.00    +0.000 A 
ATOM      6  C   LIG    1       23.611 -21.025   6.858  0.00  0.00    +0.000 A 
ATOM      7  C   LIG    1       24.699 -20.420   6.218  0.00  0.00    +0.007 A 
ENDBRANCH   1   2
BRANCH   1   8
ATOM      8  C   LIG    1       27.117 -19.422   5.011  0.00  0.00    -0.001 A 
ATOM      9  C   LIG    1       27.256 -20.379   6.039  0.00  0.00    +0.007 A 
ATOM     10  C   LIG    1       28.425 -20.466   6.803  0.00  0.00    +0.000 A 
ATOM     11  C   LIG    1       29.475 -19.584   6.571  0.00  0.00    +0.000 A 
ATOM     12  C   LIG    1       29.349 -18.609   5.585  0.00  0.00    +0.000 A 
ATOM     13  C   LIG    1       28.180 -18.522   4.818  0.00  0.00    +0.007 A 
ENDBRANCH   1   8
BRANCH   1  14
ATOM     14  C   LIG    1       25.473 -17.906   3.677  0.00  0.00    +0.349 C 
ATOM     15  O   LIG    1       24.375 -17.351   3.677  0.00  0.00    -0.247 OA
BRANCH  14  16
ATOM     16  O   LIG    1       26.625 -17.264   3.282  0.00  0.00    -0.454 OA
BRANCH  16  20
ATOM     17  C   LIG    1       23.683 -13.604   4.577  0.00  0.00    +0.192 C 
ATOM     18  N   LIG    1       25.009 -13.872   3.849  0.00  0.00    +0.242 N 
ATOM     19  C   LIG    1       25.150 -15.391   3.653  0.00  0.00    +0.178 C 
ATOM     20  C   LIG    1       26.538 -15.826   3.159  0.00  0.00    +0.221 C 
ATOM     21  C   LIG    1       27.660 -15.215   4.002  0.00  0.00    +0.055 C 
ATOM     22  C   LIG    1       27.511 -13.709   4.156  0.00  0.00    +0.055 C 
ATOM     23  C   LIG    1       26.148 -13.330   4.721  0.00  0.00    +0.133 C 
ATOM     24  C   LIG    1       24.943 -13.147   2.504  0.00  0.00    +0.192 C 
ENDBRANCH  16  20
ENDBRANCH  14  16
ENDBRANCH   1  14
BRANCH   1  25
ATOM     25  O   LIG    1       26.089 -20.095   2.939  0.00  0.00    -0.370 OA
ATOM     26  H   LIG    1       26.054 -21.035   3.185  0.00  0.00    +0.212 HD
ENDBRANCH   1  25
TORSDOF 6
ENDMDL
MODEL 2
REMARK VINA RESULT:      -6.3      0.903      1.756
REMARK  Name = *****
REMARK                            x       y       z     vdW  Elec       q    Type
REMARK                         _______ _______ _______ _____ _____    ______ ____
ROOT
ATOM      1  C   LIG    1       25.628 -19.247   4.096  0.00  0.00    +0.213 C 
ENDROOT
BRANCH   1   2
ATOM      2  C   LIG    1       24.571 -20.066   4.859  0.00  0.00    -0.001 A 
ATOM      3  C   LIG    1       23.238 -20.142   4.411  0.00  0.00    +0.007 A 
ATOM      4  C   LIG    1       22.278 -20.888   5.102  0.00  0.00    +0.000 A 
ATOM      5  C   LIG    1       22.629 -21.572   6.262  0.00  0.00    +0.000 A 
ATOM      6  C   LIG    1       23.936 -21.504   6.732  0.00  0.00    +0.000 A 
ATOM      7  C   LIG    1       24.899 -20.764   6.037  0.00  0.00    +0.007 A 
ENDBRANCH   1   2
BRANCH   1   8
ATOM      8  C   LIG    1       26.977 -19.168   4.854  0.00  0.00    -0.001 A 
ATOM      9  C   LIG    1       27.249 -20.051   5.921  0.00  0.00    +0.007 A 
ATOM     10  C   LIG    1       28.469 -20.016   6.606  0.00  0.00    +0.000 A 
ATOM     11  C   LIG    1       29.439 -19.084   6.252  0.00  0.00    +0.000 A 
ATOM     12  C   LIG    1       29.181 -18.179   5.225  0.00  0.00    +0.000 A 
ATOM     13  C   LIG    1       27.961 -18.214   4.538  0.00  0.00    +0.007 A 
ENDBRANCH   1   8
BRANCH   1  14
ATOM     14  C   LIG    1       25.080 -17.828   3.677  0.00  0.00    +0.349 C 
ATOM     15  O   LIG    1       23.920 -17.423   3.720  0.00  0.00    -0.247 OA
BRANCH  14  16
ATOM     16  O   LIG    1       26.129 -17.026   3.287  0.00  0.00    -0.454 OA
BRANCH  16  20
ATOM     17  C   LIG    1       29.037 -13.143   3.724  0.00  0.00    +0.192 C 
ATOM     18  N   LIG    1       27.578 -13.575   3.937  0.00  0.00    +0.242 N 
ATOM     19  C   LIG    1       27.500 -15.102   3.772  0.00  0.00    +0.178 C 
ATOM     20  C   LIG    1       26.065 -15.646   3.715  0.00  0.00    +0.221 C 
ATOM     21  C   LIG    1       25.205 -14.882   2.707  0.00  0.00    +0.055 C 
ATOM     22  C   LIG    1       25.279 -13.376   2.911  0.00  0.00    +0.055 C 
ATOM     23  C   LIG    1       26.715 -12.871   2.883  0.00  0.00    +0.133 C 
ATOM     24  C   LIG    1       27.182 -13.153   5.353  0.00  0.00    +0.192 C 
ENDBRANCH  16  20
ENDBRANCH  14  16
ENDBRANCH   1  14
BRANCH   1  25
ATOM     25  O   LIG    1       25.892 -19.915   2.838  0.00  0.00    -0.370 OA
ATOM     26  H   LIG    1       26.543 -20.607   3.043  0.00  0.00    +0.212 HD
ENDBRANCH   1  25
TORSDOF 6
ENDMDL
MODEL 3
REMARK VINA RESULT:      -6.0      1.077      2.398
REMARK  Name = *****
REMARK                            x       y       z     vdW  Elec       q    Type
REMARK                         _______ _______ _______ _____ _____    ______ ____
ROOT
ATOM      1  C   LIG    1       25.339 -19.365   3.794  0.00  0.00    +0.213 C 
ENDROOT
BRANCH   1   2
ATOM      2  C   LIG    1       23.839 -19.581   4.058  0.00  0.00    -0.001 A 
ATOM      3  C   LIG    1       22.895 -18.567   3.799  0.00  0.00    +0.007 A 
ATOM      4  C   LIG    1       21.531 -18.764   4.036  0.00  0.00    +0.000 A 
ATOM      5  C   LIG    1       21.079 -19.979   4.542  0.00  0.00    +0.000 A 
ATOM      6  C   LIG    1       21.991 -20.992   4.817  0.00  0.00    +0.000 A 
ATOM      7  C   LIG    1       23.356 -20.799   4.574  0.00  0.00    +0.007 A 
ENDBRANCH   1   2
BRANCH   1   8
ATOM      8  C   LIG    1       26.226 -19.891   4.951  0.00  0.00    -0.001 A 
ATOM      9  C   LIG    1       27.582 -19.508   5.041  0.00  0.00    +0.007 A 
ATOM     10  C   LIG    1       28.398 -19.949   6.089  0.00  0.00    +0.000 A 
ATOM     11  C   LIG    1       27.883 -20.799   7.062  0.00  0.00    +0.000 A 
ATOM     12  C   LIG    1       26.557 -21.218   6.977  0.00  0.00    +0.000 A 
ATOM     13  C   LIG    1       25.739 -20.776   5.929  0.00  0.00    +0.007 A 
ENDBRANCH   1   8
BRANCH   1  14
ATOM     14  C   LIG    1       25.659 -17.867   3.415  0.00  0.00    +0.349 C 
ATOM     15  O   LIG    1       26.685 -17.419   2.906  0.00  0.00    -0.247 OA
BRANCH  14  16
ATOM     16  O   LIG    1       24.563 -17.079   3.686  0.00  0.00    -0.454 OA
BRANCH  16  20
ATOM     17  C   LIG    1       27.466 -13.269   2.798  0.00  0.00    +0.192 C 
ATOM     18  N   LIG    1       26.355 -13.729   3.755  0.00  0.00    +0.242 N 
ATOM     19  C   LIG    1       26.095 -15.224   3.505  0.00  0.00    +0.178 C 
ATOM     20  C   LIG    1       24.845 -15.763   4.216  0.00  0.00    +0.221 C 
ATOM     21  C   LIG    1       23.620 -14.883   3.960  0.00  0.00    +0.055 C 
ATOM     22  C   LIG    1       23.897 -13.413   4.241  0.00  0.00    +0.055 C 
ATOM     23  C   LIG    1       25.098 -12.903   3.456  0.00  0.00    +0.133 C 
ATOM     24  C   LIG    1       26.855 -13.487   5.180  0.00  0.00    +0.192 C 
ENDBRANCH  16  20
ENDBRANCH  14  16
ENDBRANCH   1  14
BRANCH   1  25
ATOM     25  O   LIG    1       25.702 -20.118   2.611  0.00  0.00    -0.370 OA
ATOM     26  H   LIG    1       24.897 -20.601   2.355  0.00  0.00    +0.212 HD
ENDBRANCH   1  25
TORSDOF 6
ENDMDL
MODEL 4
REMARK VINA RESULT:      -5.3      1.115      1.929
REMARK  Name = *****
REMARK                            x       y       z     vdW  Elec       q    Type
REMARK                         _______ _______ _______ _____ _____    ______ ____
ROOT
ATOM      1  C   LIG    1       25.249 -19.692   3.641  0.00  0.00    +0.213 C 
ENDROOT
BRANCH   1   2
ATOM      2  C   LIG    1       23.750 -19.688   3.988  0.00  0.00    -0.001 A 
ATOM      3  C   LIG    1       23.036 -20.888   4.171  0.00  0.00    +0.007 A 
ATOM      4  C   LIG    1       21.674 -20.886   4.489  0.00  0.00    +0.000 A 
ATOM      5  C   LIG    1       20.993 -19.680   4.627  0.00  0.00    +0.000 A 
ATOM      6  C   LIG    1       21.672 -18.480   4.440  0.00  0.00    +0.000 A 
ATOM      7  C   LIG    1       23.036 -18.482   4.129  0.00  0.00    +0.007 A 
ENDBRANCH   1   2
BRANCH   1   8
ATOM      8  C   LIG    1       26.136 -20.094   4.847  0.00  0.00    -0.001 A 
ATOM      9  C   LIG    1       27.473 -19.650   4.928  0.00  0.00    +0.007 A 
ATOM     10  C   LIG    1       28.287 -19.979   6.018  0.00  0.00    +0.000 A 
ATOM     11  C   LIG    1       27.789 -20.775   7.043  0.00  0.00    +0.000 A 
ATOM     12  C   LIG    1       26.483 -21.254   6.970  0.00  0.00    +0.000 A 
ATOM     13  C   LIG    1       25.666 -20.925   5.880  0.00  0.00    +0.007 A 
ENDBRANCH   1   8
BRANCH   1  14
ATOM     14  C   LIG    1       25.702 -18.333   2.980  0.00  0.00    +0.349 C 
ATOM     15  O   LIG    1       26.449 -18.173   2.016  0.00  0.00    -0.247 OA
BRANCH  14  16
ATOM     16  O   LIG    1       25.078 -17.281   3.612  0.00  0.00    -0.454 OA
BRANCH  16  20
ATOM     17  C   LIG    1       23.992 -12.615   4.492  0.00  0.00    +0.192 C 
ATOM     18  N   LIG    1       24.955 -13.484   3.669  0.00  0.00    +0.242 N 
ATOM     19  C   LIG    1       24.492 -14.947   3.776  0.00  0.00    +0.178 C 
ATOM     20  C   LIG    1       25.498 -15.958   3.205  0.00  0.00    +0.221 C 
ATOM     21  C   LIG    1       26.909 -15.726   3.747  0.00  0.00    +0.055 C 
ATOM     22  C   LIG    1       27.351 -14.278   3.604  0.00  0.00    +0.055 C 
ATOM     23  C   LIG    1       26.363 -13.317   4.251  0.00  0.00    +0.133 C 
ATOM     24  C   LIG    1       24.887 -12.990   2.222  0.00  0.00    +0.192 C 
ENDBRANCH  16  20
ENDBRANCH  14  16
ENDBRANCH   1  14
BRANCH   1  25
ATOM     25  O   LIG    1       25.470 -20.683   2.608  0.00  0.00    -0.370 OA
ATOM     26  H   LIG    1       24.674 -21.242   2.611  0.00  0.00    +0.212 HD
ENDBRANCH   1  25
TORSDOF 6
ENDMDL
