MODEL 1
REMARK VINA RESULT:      -4.3      0.000      0.000
REMARK  Name = *****
REMARK                            x       y       z     vdW  Elec       q    Type
REMARK                         _______ _______ _______ _____ _____    ______ ____
ROOT
ATOM      1  C   LIG    1       24.922 -28.332  12.587  0.00  0.00    +0.062 A 
ATOM      2  C   LIG    1       23.652 -27.970  13.087  0.00  0.00    +0.051 A 
ATOM      3  I   LIG    1       23.625 -26.300  14.453  0.00  0.00    -0.041 I 
ATOM      4  C   LIG    1       22.503 -28.678  12.692  0.00  0.00    +0.089 A 
ATOM      5  C   LIG    1       22.629 -29.760  11.787  0.00  0.00    +0.051 A 
ATOM      6  I   LIG    1       21.034 -31.231  11.566  0.00  0.00    -0.041 I 
ATOM      7  C   LIG    1       23.889 -30.040  11.166  0.00  0.00    +0.062 A 
ATOM      8  C   LIG    1       25.004 -29.280  11.552  0.00  0.00    +0.058 A 
ATOM      9  I   LIG    1       26.741 -29.256  10.258  0.00  0.00    -0.040 I 
ENDROOT
BRANCH   1  12
ATOM     10  C   LIG    1       27.951 -27.695  14.714  0.00  0.00    +0.109 C 
ATOM     11  C   LIG    1       26.787 -28.462  14.144  0.00  0.00    +0.214 C 
ATOM     12  N   LIG    1       26.099 -27.764  13.154  0.00  0.00    -0.284 N 
ATOM     13  H   LIG    1       26.083 -26.760  13.306  0.00  0.00    +0.155 HD
ATOM     14  O   LIG    1       26.455 -29.558  14.583  0.00  0.00    -0.276 OA
ENDBRANCH   1  12
BRANCH   7  15
ATOM     15  N   LIG    1       24.095 -31.100  10.238  0.00  0.00    -0.284 N 
ATOM     16  H   LIG    1       24.891 -31.699  10.437  0.00  0.00    +0.155 HD
ATOM     17  C   LIG    1       23.831 -30.948   8.883  0.00  0.00    +0.214 C 
ATOM     18  O   LIG    1       23.451 -29.913   8.358  0.00  0.00    -0.276 OA
ATOM     19  C   LIG    1       24.058 -32.212   8.091  0.00  0.00    +0.109 C 
ENDBRANCH   7  15
BRANCH   4  20
ATOM     20  C   LIG    1       21.146 -28.262  13.174  0.00  0.00    +0.339 C 
ATOM     21  O   LIG    1       20.692 -28.722  14.231  0.00  0.00    -0.245 OA
BRANCH  20  22
ATOM     22  O   LIG    1       20.466 -27.362  12.443  0.00  0.00    -0.477 OA
ATOM     23  H   LIG    1       20.600 -26.467  12.716  0.00  0.00    +0.295 HD
ENDBRANCH  20  22
ENDBRANCH   4  20
TORSDOF 4
ENDMDL
MODEL 2
REMARK VINA RESULT:      -4.2      2.556      4.361
REMARK  Name = *****
REMARK                            x       y       z     vdW  Elec       q    Type
REMARK                         _______ _______ _______ _____ _____    ______ ____
ROOT
ATOM      1  C   LIG    1       24.289 -29.123  12.794  0.00  0.00    +0.062 A 
ATOM      2  C   LIG    1       25.347 -28.777  11.924  0.00  0.00    +0.051 A 
ATOM      3  I   LIG    1       26.634 -27.183  12.599  0.00  0.00    -0.041 I 
ATOM      4  C   LIG    1       25.515 -29.457  10.704  0.00  0.00    +0.089 A 
ATOM      5  C   LIG    1       24.614 -30.492  10.353  0.00  0.00    +0.051 A 
ATOM      6  I   LIG    1       24.456 -31.194   8.295  0.00  0.00    -0.041 I 
ATOM      7  C   LIG    1       23.632 -30.944  11.292  0.00  0.00    +0.062 A 
ATOM      8  C   LIG    1       23.525 -30.270  12.520  0.00  0.00    +0.058 A 
ATOM      9  I   LIG    1       22.504 -31.253  14.157  0.00  0.00    -0.040 I 
ENDROOT
BRANCH   1  12
ATOM     10  C   LIG    1       22.815 -26.502  15.045  0.00  0.00    +0.109 C 
ATOM     11  C   LIG    1       22.950 -27.371  13.822  0.00  0.00    +0.214 C 
ATOM     12  N   LIG    1       23.990 -28.294  13.914  0.00  0.00    -0.284 N 
ATOM     13  H   LIG    1       24.785 -27.953  14.444  0.00  0.00    +0.155 HD
ATOM     14  O   LIG    1       22.249 -27.206  12.829  0.00  0.00    -0.276 OA
ENDBRANCH   1  12
BRANCH   7  15
ATOM     15  N   LIG    1       22.699 -31.985  11.022  0.00  0.00    -0.284 N 
ATOM     16  H   LIG    1       23.108 -32.861  10.711  0.00  0.00    +0.155 HD
ATOM     17  C   LIG    1       21.449 -31.723  10.477  0.00  0.00    +0.214 C 
ATOM     18  O   LIG    1       21.050 -30.618  10.143  0.00  0.00    -0.276 OA
ATOM     19  C   LIG    1       20.596 -32.960  10.332  0.00  0.00    +0.109 C 
ENDBRANCH   7  15
BRANCH   4  20
ATOM     20  C   LIG    1       26.668 -29.134   9.802  0.00  0.00    +0.339 C 
ATOM     21  O   LIG    1       27.740 -29.744   9.916  0.00  0.00    -0.245 OA
BRANCH  20  22
ATOM     22  O   LIG    1       26.485 -28.194   8.860  0.00  0.00    -0.477 OA
ATOM     23  H   LIG    1       26.920 -28.381   8.041  0.00  0.00    +0.295 HD
ENDBRANCH  20  22
ENDBRANCH   4  20
TORSDOF 4
ENDMDL
MODEL 3
REMARK VINA RESULT:      -4.1      2.077      2.461
REMARK  Name = *****
REMARK                            x       y       z     vdW  Elec       q    Type
REMARK                         _______ _______ _______ _____ _____    ______ ____
ROOT
ATOM      1  C   LIG    1       23.816 -29.495  11.479  0.00  0.00    +0.062 A 
ATOM      2  C   LIG    1       22.432 -29.705  11.665  0.00  0.00    +0.051 A 
ATOM      3  I   LIG    1       21.459 -28.370  13.052  0.00  0.00    -0.041 I 
ATOM      4  C   LIG    1       21.768 -30.730  10.967  0.00  0.00    +0.089 A 
ATOM      5  C   LIG    1       22.499 -31.553  10.076  0.00  0.00    +0.051 A 
ATOM      6  I   LIG    1       21.702 -33.468   9.404  0.00  0.00    -0.041 I 
ATOM      7  C   LIG    1       23.867 -31.254   9.774  0.00  0.00    +0.062 A 
ATOM      8  C   LIG    1       24.482 -30.193  10.456  0.00  0.00    +0.058 A 
ATOM      9  I   LIG    1       26.298 -29.345   9.634  0.00  0.00    -0.040 I 
ENDROOT
BRANCH   1  12
ATOM     10  C   LIG    1       25.817 -28.066  14.318  0.00  0.00    +0.109 C 
ATOM     11  C   LIG    1       25.199 -29.128  13.446  0.00  0.00    +0.214 C 
ATOM     12  N   LIG    1       24.524 -28.610  12.343  0.00  0.00    -0.284 N 
ATOM     13  H   LIG    1       24.083 -27.714  12.524  0.00  0.00    +0.155 HD
ATOM     14  O   LIG    1       25.237 -30.316  13.746  0.00  0.00    -0.276 OA
ENDBRANCH   1  12
BRANCH   7  15
ATOM     15  N   LIG    1       24.666 -32.023   8.881  0.00  0.00    -0.284 N 
ATOM     16  H   LIG    1       25.622 -32.183   9.187  0.00  0.00    +0.155 HD
ATOM     17  C   LIG    1       24.525 -31.923   7.504  0.00  0.00    +0.214 C 
ATOM     18  O   LIG    1       23.761 -31.162   6.933  0.00  0.00    -0.276 OA
ATOM     19  C   LIG    1       25.424 -32.871   6.747  0.00  0.00    +0.109 C 
ENDBRANCH   7  15
BRANCH   4  20
ATOM     20  C   LIG    1       20.288 -30.922  11.117  0.00  0.00    +0.339 C 
ATOM     21  O   LIG    1       19.834 -31.534  12.093  0.00  0.00    -0.245 OA
BRANCH  20  22
ATOM     22  O   LIG    1       19.487 -30.385  10.181  0.00  0.00    -0.477 OA
ATOM     23  H   LIG    1       19.069 -29.581  10.450  0.00  0.00    +0.295 HD
ENDBRANCH  20  22
ENDBRANCH   4  20
TORSDOF 4
ENDMDL
MODEL 4
REMARK VINA RESULT:      -4.1      1.437      5.033
REMARK  Name = *****
REMARK                            x       y       z     vdW  Elec       q    Type
REMARK                         _______ _______ _______ _____ _____    ______ ____
ROOT
ATOM      1  C   LIG    1       24.833 -30.155  10.920  0.00  0.00    +0.062 A 
ATOM      2  C   LIG    1       23.496 -30.378  11.315  0.00  0.00    +0.051 A 
ATOM      3  I   LIG    1       22.545 -32.119  10.466  0.00  0.00    -0.041 I 
ATOM      4  C   LIG    1       22.862 -29.498  12.211  0.00  0.00    +0.089 A 
ATOM      5  C   LIG    1       23.576 -28.382  12.712  0.00  0.00    +0.051 A 
ATOM      6  I   LIG    1       22.533 -26.700  13.628  0.00  0.00    -0.041 I 
ATOM      7  C   LIG    1       24.972 -28.231  12.431  0.00  0.00    +0.062 A 
ATOM      8  C   LIG    1       25.581 -29.158  11.570  0.00  0.00    +0.058 A 
ATOM      9  I   LIG    1       27.740 -29.325  11.586  0.00  0.00    -0.040 I 
ENDROOT
BRANCH   1  12
ATOM     10  C   LIG    1       25.899 -31.357   7.525  0.00  0.00    +0.109 C 
ATOM     11  C   LIG    1       25.355 -30.404   8.557  0.00  0.00    +0.214 C 
ATOM     12  N   LIG    1       25.396 -30.914   9.853  0.00  0.00    -0.284 N 
ATOM     13  H   LIG    1       25.255 -31.918   9.895  0.00  0.00    +0.155 HD
ATOM     14  O   LIG    1       24.862 -29.325   8.247  0.00  0.00    -0.276 OA
ENDBRANCH   1  12
BRANCH   7  15
ATOM     15  N   LIG    1       25.763 -27.147  12.907  0.00  0.00    -0.284 N 
ATOM     16  H   LIG    1       26.349 -26.701  12.208  0.00  0.00    +0.155 HD
ATOM     17  C   LIG    1       26.310 -27.147  14.183  0.00  0.00    +0.214 C 
ATOM     18  O   LIG    1       26.212 -28.062  14.985  0.00  0.00    -0.276 OA
ATOM     19  C   LIG    1       27.058 -25.875  14.506  0.00  0.00    +0.109 C 
ENDBRANCH   7  15
BRANCH   4  20
ATOM     20  C   LIG    1       21.462 -29.760  12.679  0.00  0.00    +0.339 C 
ATOM     21  O   LIG    1       21.262 -30.332  13.758  0.00  0.00    -0.245 OA
BRANCH  20  22
ATOM     22  O   LIG    1       20.450 -29.328  11.907  0.00  0.00    -0.477 OA
ATOM     23  H   LIG    1       20.453 -29.688  11.033  0.00  0.00    +0.295 HD
ENDBRANCH  20  22
ENDBRANCH   4  20
TORSDOF 4
ENDMDL
MODEL 5
REMARK VINA RESULT:      -4.0      2.809      6.263
REMARK  Name = *****
REMARK                            x       y       z     vdW  Elec       q    Type
REMARK                         _______ _______ _______ _____ _____    ______ ____
ROOT
ATOM      1  C   LIG    1       23.209 -30.023  11.038  0.00  0.00    +0.062 A 
ATOM      2  C   LIG    1       24.359 -30.286  10.262  0.00  0.00    +0.051 A 
ATOM      3  I   LIG    1       24.009 -31.274   8.376  0.00  0.00    -0.041 I 
ATOM      4  C   LIG    1       25.633 -29.910  10.725  0.00  0.00    +0.089 A 
ATOM      5  C   LIG    1       25.754 -29.265  11.980  0.00  0.00    +0.051 A 
ATOM      6  I   LIG    1       27.674 -29.160  13.008  0.00  0.00    -0.041 I 
ATOM      7  C   LIG    1       24.584 -28.865  12.704  0.00  0.00    +0.062 A 
ATOM      8  C   LIG    1       23.328 -29.217  12.185  0.00  0.00    +0.058 A 
ATOM      9  I   LIG    1       21.578 -28.158  12.896  0.00  0.00    -0.040 I 
ENDROOT
BRANCH   1  12
ATOM     10  C   LIG    1       20.262 -32.328  10.708  0.00  0.00    +0.109 C 
ATOM     11  C   LIG    1       21.558 -31.795  11.261  0.00  0.00    +0.214 C 
ATOM     12  N   LIG    1       21.957 -30.597  10.674  0.00  0.00    -0.284 N 
ATOM     13  H   LIG    1       21.698 -30.522   9.695  0.00  0.00    +0.155 HD
ATOM     14  O   LIG    1       22.213 -32.417  12.091  0.00  0.00    -0.276 OA
ENDBRANCH   1  12
BRANCH   7  15
ATOM     15  N   LIG    1       24.621 -28.202  13.963  0.00  0.00    -0.284 N 
ATOM     16  H   LIG    1       23.925 -28.513  14.635  0.00  0.00    +0.155 HD
ATOM     17  C   LIG    1       24.945 -26.856  14.071  0.00  0.00    +0.214 C 
ATOM     18  O   LIG    1       25.181 -26.116  13.128  0.00  0.00    -0.276 OA
ATOM     19  C   LIG    1       24.988 -26.370  15.500  0.00  0.00    +0.109 C 
ENDBRANCH   7  15
BRANCH   4  20
ATOM     20  C   LIG    1       26.850 -30.136   9.881  0.00  0.00    +0.339 C 
ATOM     21  O   LIG    1       27.394 -31.248   9.855  0.00  0.00    -0.245 OA
BRANCH  20  22
ATOM     22  O   LIG    1       27.302 -29.109   9.141  0.00  0.00    -0.477 OA
ATOM     23  H   LIG    1       26.652 -28.444   8.971  0.00  0.00    +0.295 HD
ENDBRANCH  20  22
ENDBRANCH   4  20
TORSDOF 4
ENDMDL
MODEL 6
REMARK VINA RESULT:      -4.0      1.505      4.287
REMARK  Name = *****
REMARK                            x       y       z     vdW  Elec       q    Type
REMARK                         _______ _______ _______ _____ _____    ______ ____
ROOT
ATOM      1  C   LIG    1       22.838 -28.397  12.526  0.00  0.00    +0.062 A 
ATOM      2  C   LIG    1       24.078 -27.870  12.947  0.00  0.00    +0.051 A 
ATOM      3  I   LIG    1       23.974 -26.240  14.357  0.00  0.00    -0.041 I 
ATOM      4  C   LIG    1       25.283 -28.405  12.456  0.00  0.00    +0.089 A 
ATOM      5  C   LIG    1       25.242 -29.477  11.531  0.00  0.00    +0.051 A 
ATOM      6  I   LIG    1       26.982 -29.980  10.317  0.00  0.00    -0.041 I 
ATOM      7  C   LIG    1       23.998 -30.111  11.213  0.00  0.00    +0.062 A 
ATOM      8  C   LIG    1       22.821 -29.577  11.761  0.00  0.00    +0.058 A 
ATOM      9  I   LIG    1       21.041 -30.810  11.795  0.00  0.00    -0.040 I 
ENDROOT
BRANCH   1  12
ATOM     10  C   LIG    1       19.662 -27.293  14.199  0.00  0.00    +0.109 C 
ATOM     11  C   LIG    1       20.973 -28.019  14.040  0.00  0.00    +0.214 C 
ATOM     12  N   LIG    1       21.629 -27.717  12.849  0.00  0.00    -0.284 N 
ATOM     13  H   LIG    1       20.996 -27.536  12.076  0.00  0.00    +0.155 HD
ATOM     14  O   LIG    1       21.359 -28.845  14.860  0.00  0.00    -0.276 OA
ENDBRANCH   1  12
BRANCH   7  15
ATOM     15  N   LIG    1       23.874 -31.200  10.306  0.00  0.00    -0.284 N 
ATOM     16  H   LIG    1       24.455 -32.007  10.517  0.00  0.00    +0.155 HD
ATOM     17  C   LIG    1       23.664 -31.001   8.948  0.00  0.00    +0.214 C 
ATOM     18  O   LIG    1       23.608 -29.909   8.403  0.00  0.00    -0.276 OA
ATOM     19  C   LIG    1       23.498 -32.289   8.179  0.00  0.00    +0.109 C 
ENDBRANCH   7  15
BRANCH   4  20
ATOM     20  C   LIG    1       26.603 -27.888  12.942  0.00  0.00    +0.339 C 
ATOM     21  O   LIG    1       27.173 -28.431  13.897  0.00  0.00    -0.245 OA
BRANCH  20  22
ATOM     22  O   LIG    1       27.150 -26.848  12.289  0.00  0.00    -0.477 OA
ATOM     23  H   LIG    1       27.308 -27.011  11.371  0.00  0.00    +0.295 HD
ENDBRANCH  20  22
ENDBRANCH   4  20
TORSDOF 4
ENDMDL
MODEL 7
REMARK VINA RESULT:      -4.0      3.368      5.613
REMARK  Name = *****
REMARK                            x       y       z     vdW  Elec       q    Type
REMARK                         _______ _______ _______ _____ _____    ______ ____
ROOT
ATOM      1  C   LIG    1       23.019 -32.309  10.285  0.00  0.00    +0.062 A 
ATOM      2  C   LIG    1       23.621 -31.799  11.455  0.00  0.00    +0.051 A 
ATOM      3  I   LIG    1       22.696 -32.379  13.315  0.00  0.00    -0.041 I 
ATOM      4  C   LIG    1       24.755 -30.969  11.369  0.00  0.00    +0.089 A 
ATOM      5  C   LIG    1       25.286 -30.648  10.096  0.00  0.00    +0.051 A 
ATOM      6  I   LIG    1       26.649 -28.965   9.841  0.00  0.00    -0.041 I 
ATOM      7  C   LIG    1       24.771 -31.277   8.917  0.00  0.00    +0.062 A 
ATOM      8  C   LIG    1       23.668 -32.136   9.050  0.00  0.00    +0.058 A 
ATOM      9  I   LIG    1       23.241 -33.530   7.448  0.00  0.00    -0.040 I 
ENDROOT
BRANCH   1  12
ATOM     10  C   LIG    1       19.332 -33.013  10.432  0.00  0.00    +0.109 C 
ATOM     11  C   LIG    1       20.589 -32.206  10.233  0.00  0.00    +0.214 C 
ATOM     12  N   LIG    1       21.753 -32.960  10.361  0.00  0.00    -0.284 N 
ATOM     13  H   LIG    1       21.676 -33.708  11.042  0.00  0.00    +0.155 HD
ATOM     14  O   LIG    1       20.559 -30.993  10.054  0.00  0.00    -0.276 OA
ENDBRANCH   1  12
BRANCH   7  15
ATOM     15  N   LIG    1       25.258 -31.018   7.605  0.00  0.00    -0.284 N 
ATOM     16  H   LIG    1       26.263 -31.113   7.491  0.00  0.00    +0.155 HD
ATOM     17  C   LIG    1       24.690 -30.046   6.793  0.00  0.00    +0.214 C 
ATOM     18  O   LIG    1       23.775 -29.308   7.123  0.00  0.00    -0.276 OA
ATOM     19  C   LIG    1       25.317 -29.981   5.421  0.00  0.00    +0.109 C 
ENDBRANCH   7  15
BRANCH   4  20
ATOM     20  C   LIG    1       25.433 -30.471  12.609  0.00  0.00    +0.339 C 
ATOM     21  O   LIG    1       25.014 -29.458  13.185  0.00  0.00    -0.245 OA
BRANCH  20  22
ATOM     22  O   LIG    1       26.477 -31.173  13.081  0.00  0.00    -0.477 OA
ATOM     23  H   LIG    1       27.252 -31.116  12.543  0.00  0.00    +0.295 HD
ENDBRANCH  20  22
ENDBRANCH   4  20
TORSDOF 4
ENDMDL
MODEL 8
REMARK VINA RESULT:      -4.0      2.253      4.752
REMARK  Name = *****
REMARK                            x       y       z     vdW  Elec       q    Type
REMARK                         _______ _______ _______ _____ _____    ______ ____
ROOT
ATOM      1  C   LIG    1       23.280 -28.138  13.995  0.00  0.00    +0.062 A 
ATOM      2  C   LIG    1       24.392 -27.267  14.003  0.00  0.00    +0.051 A 
ATOM      3  I   LIG    1       24.319 -25.667  15.449  0.00  0.00    -0.041 I 
ATOM      4  C   LIG    1       25.459 -27.467  13.109  0.00  0.00    +0.089 A 
ATOM      5  C   LIG    1       25.410 -28.549  12.197  0.00  0.00    +0.051 A 
ATOM      6  I   LIG    1       26.707 -28.603  10.445  0.00  0.00    -0.041 I 
ATOM      7  C   LIG    1       24.359 -29.519  12.282  0.00  0.00    +0.062 A 
ATOM      8  C   LIG    1       23.336 -29.309  13.220  0.00  0.00    +0.058 A 
ATOM      9  I   LIG    1       22.088 -30.987  13.785  0.00  0.00    -0.040 I 
ENDROOT
BRANCH   1  12
ATOM     10  C   LIG    1       19.953 -26.752  15.052  0.00  0.00    +0.109 C 
ATOM     11  C   LIG    1       21.077 -27.114  14.117  0.00  0.00    +0.214 C 
ATOM     12  N   LIG    1       22.112 -27.807  14.740  0.00  0.00    -0.284 N 
ATOM     13  H   LIG    1       22.260 -27.528  15.705  0.00  0.00    +0.155 HD
ATOM     14  O   LIG    1       21.087 -26.753  12.945  0.00  0.00    -0.276 OA
ENDBRANCH   1  12
BRANCH   7  15
ATOM     15  N   LIG    1       24.246 -30.640  11.413  0.00  0.00    -0.284 N 
ATOM     16  H   LIG    1       23.306 -30.835  11.079  0.00  0.00    +0.155 HD
ATOM     17  C   LIG    1       25.029 -31.775  11.578  0.00  0.00    +0.214 C 
ATOM     18  O   LIG    1       25.837 -31.941  12.479  0.00  0.00    -0.276 OA
ATOM     19  C   LIG    1       24.793 -32.817  10.512  0.00  0.00    +0.109 C 
ENDBRANCH   7  15
BRANCH   4  20
ATOM     20  C   LIG    1       26.667 -26.580  13.150  0.00  0.00    +0.339 C 
ATOM     21  O   LIG    1       26.624 -25.443  12.660  0.00  0.00    -0.245 OA
BRANCH  20  22
ATOM     22  O   LIG    1       27.770 -27.047  13.759  0.00  0.00    -0.477 OA
ATOM     23  H   LIG    1       28.348 -26.371  14.078  0.00  0.00    +0.295 HD
ENDBRANCH  20  22
ENDBRANCH   4  20
TORSDOF 4
ENDMDL
MODEL 9
REMARK VINA RESULT:      -3.8      1.737      5.470
REMARK  Name = *****
REMARK                            x       y       z     vdW  Elec       q    Type
REMARK                         _______ _______ _______ _____ _____    ______ ____
ROOT
ATOM      1  C   LIG    1       22.339 -29.256  12.564  0.00  0.00    +0.062 A 
ATOM      2  C   LIG    1       22.439 -30.037  11.391  0.00  0.00    +0.051 A 
ATOM      3  I   LIG    1       20.636 -31.058  10.789  0.00  0.00    -0.041 I 
ATOM      4  C   LIG    1       23.655 -30.114  10.689  0.00  0.00    +0.089 A 
ATOM      5  C   LIG    1       24.782 -29.403  11.169  0.00  0.00    +0.051 A 
ATOM      6  I   LIG    1       26.795 -29.899  10.492  0.00  0.00    -0.041 I 
ATOM      7  C   LIG    1       24.650 -28.497  12.270  0.00  0.00    +0.062 A 
ATOM      8  C   LIG    1       23.407 -28.413  12.917  0.00  0.00    +0.058 A 
ATOM      9  I   LIG    1       22.999 -26.685  14.157  0.00  0.00    -0.040 I 
ENDROOT
BRANCH   1  12
ATOM     10  C   LIG    1       19.872 -30.285  15.203  0.00  0.00    +0.109 C 
ATOM     11  C   LIG    1       21.195 -30.213  14.486  0.00  0.00    +0.214 C 
ATOM     12  N   LIG    1       21.181 -29.355  13.389  0.00  0.00    -0.284 N 
ATOM     13  H   LIG    1       20.287 -29.329  12.909  0.00  0.00    +0.155 HD
ATOM     14  O   LIG    1       22.148 -30.912  14.812  0.00  0.00    -0.276 OA
ENDBRANCH   1  12
BRANCH   7  15
ATOM     15  N   LIG    1       25.730 -27.738  12.803  0.00  0.00    -0.284 N 
ATOM     16  H   LIG    1       26.252 -27.193  12.123  0.00  0.00    +0.155 HD
ATOM     17  C   LIG    1       26.500 -28.204  13.860  0.00  0.00    +0.214 C 
ATOM     18  O   LIG    1       26.366 -29.293  14.395  0.00  0.00    -0.276 OA
ATOM     19  C   LIG    1       27.548 -27.215  14.310  0.00  0.00    +0.109 C 
ENDBRANCH   7  15
BRANCH   4  20
ATOM     20  C   LIG    1       23.752 -30.895   9.413  0.00  0.00    +0.339 C 
ATOM     21  O   LIG    1       23.986 -32.110   9.442  0.00  0.00    -0.245 OA
BRANCH  20  22
ATOM     22  O   LIG    1       23.548 -30.239   8.258  0.00  0.00    -0.477 OA
ATOM     23  H   LIG    1       24.151 -30.477   7.570  0.00  0.00    +0.295 HD
ENDBRANCH  20  22
ENDBRANCH   4  20
TORSDOF 4
ENDMDL
