MODEL 1
REMARK VINA RESULT:      -7.9      0.000      0.000
REMARK  Name = *****
REMARK                            x       y       z     vdW  Elec       q    Type
REMARK                         _______ _______ _______ _____ _____    ______ ____
ROOT
ATOM      1  C   LIG    1       26.030 -21.211   6.525  0.00  0.00    +0.010 A 
ATOM      2  C   LIG    1       27.062 -21.345   7.461  0.00  0.00    +0.042 A 
ATOM      3  C   LIG    1       28.210 -20.619   7.247  0.00  0.00    +0.066 A 
ATOM      4  C   LIG    1       28.364 -19.780   6.129  0.00  0.00    +0.065 A 
ATOM      5  N   LIG    1       29.672 -19.286   6.154  0.00  0.00    -0.326 N 
ATOM      6  H   LIG    1       29.948 -18.437   5.693  0.00  0.00    +0.169 HD
ATOM      7  C   LIG    1       30.279 -19.681   7.350  0.00  0.00    +0.201 C 
ATOM      8  N   LIG    1       31.381 -19.171   7.779  0.00  0.00    -0.109 NA
ATOM      9  C   LIG    1       27.376 -19.652   5.185  0.00  0.00    +0.029 A 
ATOM     10  N   LIG    1       29.425 -20.616   7.932  0.00  0.00    -0.326 N 
ATOM     11  H   LIG    1       29.536 -20.894   8.897  0.00  0.00    +0.169 HD
ATOM     12  C   LIG    1       26.188 -20.365   5.401  0.00  0.00    +0.017 A 
ENDROOT
BRANCH   8  13
ATOM     13  C   LIG    1       31.847 -19.593   8.994  0.00  0.00    +0.427 C 
ATOM     14  O   LIG    1       32.188 -20.734   9.291  0.00  0.00    -0.224 OA
BRANCH  13  15
ATOM     15  O   LIG    1       31.861 -18.552   9.863  0.00  0.00    -0.452 OA
ATOM     16  C   LIG    1       32.236 -17.310   9.269  0.00  0.00    +0.282 C 
ENDBRANCH  13  15
ENDBRANCH   8  13
BRANCH   1  17
ATOM     17  S   LIG    1       24.504 -22.110   6.787  0.00  0.00    -0.125 S 
BRANCH  17  18
ATOM     18  C   LIG    1       23.321 -20.721   6.764  0.00  0.00    +0.074 C 
BRANCH  18  20
ATOM     19  C   LIG    1       22.470 -19.255   4.918  0.00  0.00    +0.004 C 
ATOM     20  C   LIG    1       22.551 -20.682   5.446  0.00  0.00    +0.008 C 
ENDBRANCH  18  20
ENDBRANCH  17  18
ENDBRANCH   1  17
TORSDOF 5
ENDMDL
MODEL 2
REMARK VINA RESULT:      -7.8      1.466      1.819
REMARK  Name = *****
REMARK                            x       y       z     vdW  Elec       q    Type
REMARK                         _______ _______ _______ _____ _____    ______ ____
ROOT
ATOM      1  C   LIG    1       25.279 -20.736   6.900  0.00  0.00    +0.010 A 
ATOM      2  C   LIG    1       26.292 -20.899   7.852  0.00  0.00    +0.042 A 
ATOM      3  C   LIG    1       27.578 -20.598   7.468  0.00  0.00    +0.066 A 
ATOM      4  C   LIG    1       27.883 -20.157   6.167  0.00  0.00    +0.065 A 
ATOM      5  N   LIG    1       29.275 -20.052   6.078  0.00  0.00    -0.326 N 
ATOM      6  H   LIG    1       29.740 -19.463   5.410  0.00  0.00    +0.169 HD
ATOM      7  C   LIG    1       29.824 -20.271   7.345  0.00  0.00    +0.201 C 
ATOM      8  N   LIG    1       31.046 -19.989   7.638  0.00  0.00    -0.109 NA
ATOM      9  C   LIG    1       26.911 -20.014   5.210  0.00  0.00    +0.029 A 
ATOM     10  N   LIG    1       28.788 -20.750   8.144  0.00  0.00    -0.326 N 
ATOM     11  H   LIG    1       28.878 -20.785   9.150  0.00  0.00    +0.169 HD
ATOM     12  C   LIG    1       25.590 -20.291   5.592  0.00  0.00    +0.017 A 
ENDROOT
BRANCH   8  13
ATOM     13  C   LIG    1       31.455 -20.190   8.927  0.00  0.00    +0.427 C 
ATOM     14  O   LIG    1       32.197 -21.081   9.330  0.00  0.00    -0.224 OA
BRANCH  13  15
ATOM     15  O   LIG    1       30.893 -19.255   9.734  0.00  0.00    -0.452 OA
ATOM     16  C   LIG    1       31.534 -17.982   9.674  0.00  0.00    +0.282 C 
ENDBRANCH  13  15
ENDBRANCH   8  13
BRANCH   1  17
ATOM     17  S   LIG    1       23.586 -21.081   7.371  0.00  0.00    -0.125 S 
BRANCH  17  18
ATOM     18  C   LIG    1       23.170 -22.343   6.122  0.00  0.00    +0.074 C 
BRANCH  18  20
ATOM     19  C   LIG    1       24.180 -24.621   6.381  0.00  0.00    +0.004 C 
ATOM     20  C   LIG    1       23.015 -23.718   6.767  0.00  0.00    +0.008 C 
ENDBRANCH  18  20
ENDBRANCH  17  18
ENDBRANCH   1  17
TORSDOF 5
ENDMDL
MODEL 3
REMARK VINA RESULT:      -7.8      1.414      2.078
REMARK  Name = *****
REMARK                            x       y       z     vdW  Elec       q    Type
REMARK                         _______ _______ _______ _____ _____    ______ ____
ROOT
ATOM      1  C   LIG    1       25.752 -20.612   5.138  0.00  0.00    +0.010 A 
ATOM      2  C   LIG    1       26.945 -19.920   5.381  0.00  0.00    +0.042 A 
ATOM      3  C   LIG    1       27.737 -20.365   6.414  0.00  0.00    +0.066 A 
ATOM      4  C   LIG    1       27.370 -21.461   7.215  0.00  0.00    +0.065 A 
ATOM      5  N   LIG    1       28.327 -21.575   8.230  0.00  0.00    -0.326 N 
ATOM      6  H   LIG    1       28.504 -22.432   8.724  0.00  0.00    +0.169 HD
ATOM      7  C   LIG    1       29.359 -20.666   7.979  0.00  0.00    +0.201 C 
ATOM      8  N   LIG    1       30.495 -20.711   8.583  0.00  0.00    -0.109 NA
ATOM      9  C   LIG    1       26.195 -22.139   7.012  0.00  0.00    +0.029 A 
ATOM     10  N   LIG    1       28.908 -19.835   6.954  0.00  0.00    -0.326 N 
ATOM     11  H   LIG    1       29.546 -19.233   6.453  0.00  0.00    +0.169 HD
ATOM     12  C   LIG    1       25.388 -21.717   5.946  0.00  0.00    +0.017 A 
ENDROOT
BRANCH   8  13
ATOM     13  C   LIG    1       31.450 -19.806   8.210  0.00  0.00    +0.427 C 
ATOM     14  O   LIG    1       31.785 -19.525   7.063  0.00  0.00    -0.224 OA
BRANCH  13  15
ATOM     15  O   LIG    1       32.014 -19.258   9.316  0.00  0.00    -0.452 OA
ATOM     16  C   LIG    1       31.945 -17.834   9.352  0.00  0.00    +0.282 C 
ENDBRANCH  13  15
ENDBRANCH   8  13
BRANCH   1  17
ATOM     17  S   LIG    1       24.712 -20.089   3.778  0.00  0.00    -0.125 S 
BRANCH  17  18
ATOM     18  C   LIG    1       23.081 -20.576   4.434  0.00  0.00    +0.074 C 
BRANCH  18  20
ATOM     19  C   LIG    1       22.180 -18.238   4.429  0.00  0.00    +0.004 C 
ATOM     20  C   LIG    1       22.481 -19.461   5.287  0.00  0.00    +0.008 C 
ENDBRANCH  18  20
ENDBRANCH  17  18
ENDBRANCH   1  17
TORSDOF 5
ENDMDL
MODEL 4
REMARK VINA RESULT:      -7.6      1.594      2.318
REMARK  Name = *****
REMARK                            x       y       z     vdW  Elec       q    Type
REMARK                         _______ _______ _______ _____ _____    ______ ____
ROOT
ATOM      1  C   LIG    1       25.915 -20.981   7.036  0.00  0.00    +0.010 A 
ATOM      2  C   LIG    1       26.976 -20.778   7.927  0.00  0.00    +0.042 A 
ATOM      3  C   LIG    1       28.085 -20.117   7.452  0.00  0.00    +0.066 A 
ATOM      4  C   LIG    1       28.173 -19.669   6.122  0.00  0.00    +0.065 A 
ATOM      5  N   LIG    1       29.458 -19.148   5.941  0.00  0.00    -0.326 N 
ATOM      6  H   LIG    1       29.684 -18.478   5.227  0.00  0.00    +0.169 HD
ATOM      7  C   LIG    1       30.112 -19.124   7.177  0.00  0.00    +0.201 C 
ATOM      8  N   LIG    1       31.200 -18.468   7.382  0.00  0.00    -0.109 NA
ATOM      9  C   LIG    1       27.157 -19.879   5.225  0.00  0.00    +0.029 A 
ATOM     10  N   LIG    1       29.315 -19.858   8.055  0.00  0.00    -0.326 N 
ATOM     11  H   LIG    1       29.463 -19.814   9.054  0.00  0.00    +0.169 HD
ATOM     12  C   LIG    1       26.007 -20.527   5.698  0.00  0.00    +0.017 A 
ENDROOT
BRANCH   8  13
ATOM     13  C   LIG    1       31.716 -18.470   8.649  0.00  0.00    +0.427 C 
ATOM     14  O   LIG    1       32.109 -19.448   9.278  0.00  0.00    -0.224 OA
BRANCH  13  15
ATOM     15  O   LIG    1       31.714 -17.207   9.143  0.00  0.00    -0.452 OA
ATOM     16  C   LIG    1       30.796 -17.010  10.217  0.00  0.00    +0.282 C 
ENDBRANCH  13  15
ENDBRANCH   8  13
BRANCH   1  17
ATOM     17  S   LIG    1       24.438 -21.803   7.625  0.00  0.00    -0.125 S 
BRANCH  17  18
ATOM     18  C   LIG    1       24.528 -23.338   6.643  0.00  0.00    +0.074 C 
BRANCH  18  20
ATOM     19  C   LIG    1       25.825 -25.435   6.197  0.00  0.00    +0.004 C 
ATOM     20  C   LIG    1       25.776 -24.141   7.000  0.00  0.00    +0.008 C 
ENDBRANCH  18  20
ENDBRANCH  17  18
ENDBRANCH   1  17
TORSDOF 5
ENDMDL
MODEL 5
REMARK VINA RESULT:      -7.3      2.707      3.676
REMARK  Name = *****
REMARK                            x       y       z     vdW  Elec       q    Type
REMARK                         _______ _______ _______ _____ _____    ______ ____
ROOT
ATOM      1  C   LIG    1       24.828 -23.335   6.890  0.00  0.00    +0.010 A 
ATOM      2  C   LIG    1       26.227 -23.323   6.921  0.00  0.00    +0.042 A 
ATOM      3  C   LIG    1       26.843 -22.165   7.338  0.00  0.00    +0.066 A 
ATOM      4  C   LIG    1       26.109 -21.023   7.706  0.00  0.00    +0.065 A 
ATOM      5  N   LIG    1       27.030 -20.002   7.964  0.00  0.00    -0.326 N 
ATOM      6  H   LIG    1       26.823 -19.210   8.548  0.00  0.00    +0.169 HD
ATOM      7  C   LIG    1       28.320 -20.535   7.911  0.00  0.00    +0.201 C 
ATOM      8  N   LIG    1       29.356 -19.912   8.354  0.00  0.00    -0.109 NA
ATOM      9  C   LIG    1       24.739 -21.003   7.659  0.00  0.00    +0.029 A 
ATOM     10  N   LIG    1       28.193 -21.818   7.380  0.00  0.00    -0.326 N 
ATOM     11  H   LIG    1       28.951 -22.483   7.436  0.00  0.00    +0.169 HD
ATOM     12  C   LIG    1       24.094 -22.183   7.263  0.00  0.00    +0.017 A 
ENDROOT
BRANCH   8  13
ATOM     13  C   LIG    1       30.559 -20.560   8.305  0.00  0.00    +0.427 C 
ATOM     14  O   LIG    1       30.824 -21.652   8.798  0.00  0.00    -0.224 OA
BRANCH  13  15
ATOM     15  O   LIG    1       31.460 -19.798   7.635  0.00  0.00    -0.452 OA
ATOM     16  C   LIG    1       31.697 -18.526   8.234  0.00  0.00    +0.282 C 
ENDBRANCH  13  15
ENDBRANCH   8  13
BRANCH   1  17
ATOM     17  S   LIG    1       23.988 -24.835   6.391  0.00  0.00    -0.125 S 
BRANCH  17  18
ATOM     18  C   LIG    1       25.013 -25.298   4.955  0.00  0.00    +0.074 C 
BRANCH  18  20
ATOM     19  C   LIG    1       25.623 -27.005   6.686  0.00  0.00    +0.004 C 
ATOM     20  C   LIG    1       25.792 -26.582   5.232  0.00  0.00    +0.008 C 
ENDBRANCH  18  20
ENDBRANCH  17  18
ENDBRANCH   1  17
TORSDOF 5
ENDMDL
MODEL 6
REMARK VINA RESULT:      -7.2      3.430      4.544
REMARK  Name = *****
REMARK                            x       y       z     vdW  Elec       q    Type
REMARK                         _______ _______ _______ _____ _____    ______ ____
ROOT
ATOM      1  C   LIG    1       24.516 -24.095   6.531  0.00  0.00    +0.010 A 
ATOM      2  C   LIG    1       25.886 -23.807   6.538  0.00  0.00    +0.042 A 
ATOM      3  C   LIG    1       26.273 -22.577   7.015  0.00  0.00    +0.066 A 
ATOM      4  C   LIG    1       25.341 -21.626   7.467  0.00  0.00    +0.065 A 
ATOM      5  N   LIG    1       26.049 -20.459   7.772  0.00  0.00    -0.326 N 
ATOM      6  H   LIG    1       25.708 -19.760   8.409  0.00  0.00    +0.169 HD
ATOM      7  C   LIG    1       27.417 -20.721   7.662  0.00  0.00    +0.201 C 
ATOM      8  N   LIG    1       28.322 -19.931   8.125  0.00  0.00    -0.109 NA
ATOM      9  C   LIG    1       23.992 -21.876   7.447  0.00  0.00    +0.029 A 
ATOM     10  N   LIG    1       27.529 -21.971   7.054  0.00  0.00    -0.326 N 
ATOM     11  H   LIG    1       28.405 -22.474   7.054  0.00  0.00    +0.169 HD
ATOM     12  C   LIG    1       23.581 -23.136   6.990  0.00  0.00    +0.017 A 
ENDROOT
BRANCH   8  13
ATOM     13  C   LIG    1       29.628 -20.323   8.012  0.00  0.00    +0.427 C 
ATOM     14  O   LIG    1       30.504 -19.771   7.352  0.00  0.00    -0.224 OA
BRANCH  13  15
ATOM     15  O   LIG    1       29.827 -21.454   8.734  0.00  0.00    -0.452 OA
ATOM     16  C   LIG    1       31.196 -21.702   9.050  0.00  0.00    +0.282 C 
ENDBRANCH  13  15
ENDBRANCH   8  13
BRANCH   1  17
ATOM     17  S   LIG    1       23.974 -25.701   5.954  0.00  0.00    -0.125 S 
BRANCH  17  18
ATOM     18  C   LIG    1       25.541 -26.321   5.254  0.00  0.00    +0.074 C 
BRANCH  18  20
ATOM     19  C   LIG    1       24.352 -28.403   5.984  0.00  0.00    +0.004 C 
ATOM     20  C   LIG    1       25.584 -27.847   5.281  0.00  0.00    +0.008 C 
ENDBRANCH  18  20
ENDBRANCH  17  18
ENDBRANCH   1  17
TORSDOF 5
ENDMDL
MODEL 7
REMARK VINA RESULT:      -7.2      4.096      6.896
REMARK  Name = *****
REMARK                            x       y       z     vdW  Elec       q    Type
REMARK                         _______ _______ _______ _____ _____    ______ ____
ROOT
ATOM      1  C   LIG    1       29.892 -19.623   7.593  0.00  0.00    +0.010 A 
ATOM      2  C   LIG    1       28.726 -20.358   7.838  0.00  0.00    +0.042 A 
ATOM      3  C   LIG    1       27.769 -20.379   6.850  0.00  0.00    +0.066 A 
ATOM      4  C   LIG    1       27.934 -19.682   5.639  0.00  0.00    +0.065 A 
ATOM      5  N   LIG    1       26.745 -19.818   4.915  0.00  0.00    -0.326 N 
ATOM      6  H   LIG    1       26.696 -19.718   3.916  0.00  0.00    +0.169 HD
ATOM      7  C   LIG    1       25.909 -20.714   5.587  0.00  0.00    +0.201 C 
ATOM      8  N   LIG    1       24.864 -21.238   5.047  0.00  0.00    -0.109 NA
ATOM      9  C   LIG    1       29.056 -18.935   5.387  0.00  0.00    +0.029 A 
ATOM     10  N   LIG    1       26.487 -20.927   6.837  0.00  0.00    -0.326 N 
ATOM     11  H   LIG    1       26.187 -21.690   7.428  0.00  0.00    +0.169 HD
ATOM     12  C   LIG    1       30.054 -18.924   6.372  0.00  0.00    +0.017 A 
ENDROOT
BRANCH   8  13
ATOM     13  C   LIG    1       24.156 -22.149   5.782  0.00  0.00    +0.427 C 
ATOM     14  O   LIG    1       23.049 -21.982   6.285  0.00  0.00    -0.224 OA
BRANCH  13  15
ATOM     15  O   LIG    1       24.875 -23.292   5.905  0.00  0.00    -0.452 OA
ATOM     16  C   LIG    1       24.142 -24.376   6.472  0.00  0.00    +0.282 C 
ENDBRANCH  13  15
ENDBRANCH   8  13
BRANCH   1  17
ATOM     17  S   LIG    1       31.178 -19.602   8.838  0.00  0.00    -0.125 S 
BRANCH  17  18
ATOM     18  C   LIG    1       31.599 -17.828   8.815  0.00  0.00    +0.074 C 
BRANCH  18  20
ATOM     19  C   LIG    1       30.391 -17.516  10.989  0.00  0.00    +0.004 C 
ATOM     20  C   LIG    1       30.549 -17.007   9.561  0.00  0.00    +0.008 C 
ENDBRANCH  18  20
ENDBRANCH  17  18
ENDBRANCH   1  17
TORSDOF 5
ENDMDL
MODEL 8
REMARK VINA RESULT:      -7.1      5.613      7.852
REMARK  Name = *****
REMARK                            x       y       z     vdW  Elec       q    Type
REMARK                         _______ _______ _______ _____ _____    ______ ____
ROOT
ATOM      1  C   LIG    1       25.624 -21.694   7.688  0.00  0.00    +0.010 A 
ATOM      2  C   LIG    1       26.238 -22.903   7.337  0.00  0.00    +0.042 A 
ATOM      3  C   LIG    1       25.435 -23.897   6.828  0.00  0.00    +0.066 A 
ATOM      4  C   LIG    1       24.048 -23.729   6.673  0.00  0.00    +0.065 A 
ATOM      5  N   LIG    1       23.524 -24.953   6.244  0.00  0.00    -0.326 N 
ATOM      6  H   LIG    1       22.654 -25.034   5.747  0.00  0.00    +0.169 HD
ATOM      7  C   LIG    1       24.582 -25.828   5.983  0.00  0.00    +0.201 C 
ATOM      8  N   LIG    1       24.436 -26.931   5.334  0.00  0.00    -0.109 NA
ATOM      9  C   LIG    1       23.421 -22.563   7.033  0.00  0.00    +0.029 A 
ATOM     10  N   LIG    1       25.729 -25.218   6.488  0.00  0.00    -0.326 N 
ATOM     11  H   LIG    1       26.650 -25.551   6.240  0.00  0.00    +0.169 HD
ATOM     12  C   LIG    1       24.227 -21.529   7.528  0.00  0.00    +0.017 A 
ENDROOT
BRANCH   8  13
ATOM     13  C   LIG    1       25.556 -27.677   5.087  0.00  0.00    +0.427 C 
ATOM     14  O   LIG    1       26.671 -27.250   4.802  0.00  0.00    -0.224 OA
BRANCH  13  15
ATOM     15  O   LIG    1       25.254 -28.996   5.178  0.00  0.00    -0.452 OA
ATOM     16  C   LIG    1       24.140 -29.274   6.024  0.00  0.00    +0.282 C 
ENDBRANCH  13  15
ENDBRANCH   8  13
BRANCH   1  17
ATOM     17  S   LIG    1       26.639 -20.362   8.318  0.00  0.00    -0.125 S 
BRANCH  17  18
ATOM     18  C   LIG    1       28.176 -20.679   7.387  0.00  0.00    +0.074 C 
BRANCH  18  20
ATOM     19  C   LIG    1       29.277 -18.912   5.992  0.00  0.00    +0.004 C 
ATOM     20  C   LIG    1       28.162 -19.949   6.046  0.00  0.00    +0.008 C 
ENDBRANCH  18  20
ENDBRANCH  17  18
ENDBRANCH   1  17
TORSDOF 5
ENDMDL
MODEL 9
REMARK VINA RESULT:      -7.0      4.461      7.179
REMARK  Name = *****
REMARK                            x       y       z     vdW  Elec       q    Type
REMARK                         _______ _______ _______ _____ _____    ______ ____
ROOT
ATOM      1  C   LIG    1       29.507 -20.062   6.988  0.00  0.00    +0.010 A 
ATOM      2  C   LIG    1       28.554 -19.653   6.047  0.00  0.00    +0.042 A 
ATOM      3  C   LIG    1       27.341 -20.300   6.050  0.00  0.00    +0.066 A 
ATOM      4  C   LIG    1       27.056 -21.346   6.947  0.00  0.00    +0.065 A 
ATOM      5  N   LIG    1       25.797 -21.852   6.611  0.00  0.00    -0.326 N 
ATOM      6  H   LIG    1       25.214 -22.352   7.259  0.00  0.00    +0.169 HD
ATOM      7  C   LIG    1       25.233 -21.039   5.623  0.00  0.00    +0.201 C 
ATOM      8  N   LIG    1       23.989 -21.093   5.296  0.00  0.00    -0.109 NA
ATOM      9  C   LIG    1       27.982 -21.780   7.861  0.00  0.00    +0.029 A 
ATOM     10  N   LIG    1       26.250 -20.190   5.188  0.00  0.00    -0.326 N 
ATOM     11  H   LIG    1       26.044 -19.373   4.630  0.00  0.00    +0.169 HD
ATOM     12  C   LIG    1       29.215 -21.114   7.890  0.00  0.00    +0.017 A 
ENDROOT
BRANCH   8  13
ATOM     13  C   LIG    1       23.539 -20.205   4.358  0.00  0.00    +0.427 C 
ATOM     14  O   LIG    1       24.098 -19.902   3.308  0.00  0.00    -0.224 OA
BRANCH  13  15
ATOM     15  O   LIG    1       22.363 -19.668   4.767  0.00  0.00    -0.452 OA
ATOM     16  C   LIG    1       22.212 -18.289   4.436  0.00  0.00    +0.282 C 
ENDBRANCH  13  15
ENDBRANCH   8  13
BRANCH   1  17
ATOM     17  S   LIG    1       31.085 -19.219   7.043  0.00  0.00    -0.125 S 
BRANCH  17  18
ATOM     18  C   LIG    1       31.183 -18.865   8.829  0.00  0.00    +0.074 C 
BRANCH  18  20
ATOM     19  C   LIG    1       30.382 -17.389  10.690  0.00  0.00    +0.004 C 
ATOM     20  C   LIG    1       30.219 -17.746   9.218  0.00  0.00    +0.008 C 
ENDBRANCH  18  20
ENDBRANCH  17  18
ENDBRANCH   1  17
TORSDOF 5
ENDMDL
