MODEL 1
REMARK VINA RESULT:      -5.4      0.000      0.000
REMARK  Name = *****
REMARK                            x       y       z     vdW  Elec       q    Type
REMARK                         _______ _______ _______ _____ _____    ______ ____
ROOT
ATOM      1  C   LIG    1       21.849 -28.811  15.352  0.00  0.00    +0.014 C 
ATOM      2  C   LIG    1       21.349 -28.189  14.013  0.00  0.00    -0.003 C 
ATOM      3  C   LIG    1       19.852 -27.778  14.124  0.00  0.00    +0.121 C 
ATOM      4  C   LIG    1       19.048 -29.019  13.688  0.00  0.00    +0.032 C 
ATOM      5  C   LIG    1       20.100 -30.093  13.334  0.00  0.00    +0.007 C 
ATOM      6  C   LIG    1       21.276 -29.214  12.862  0.00  0.00    +0.001 C 
ATOM      7  C   LIG    1       22.635 -29.739  12.324  0.00  0.00    -0.003 C 
ATOM      8  C   LIG    1       23.147 -31.041  12.944  0.00  0.00    +0.007 C 
ATOM      9  C   LIG    1       24.587 -31.113  13.424  0.00  0.00    +0.039 C 
ATOM     10  C   LIG    1       25.530 -30.041  12.975  0.00  0.00    +0.110 C 
ATOM     11  C   LIG    1       25.156 -29.081  11.850  0.00  0.00    +0.008 C 
ATOM     12  C   LIG    1       25.212 -29.796  10.478  0.00  0.00    +0.015 C 
ATOM     13  C   LIG    1       26.238 -27.905  11.750  0.00  0.00    +0.059 C 
ATOM     14  C   LIG    1       26.718 -27.339  13.074  0.00  0.00    +0.070 C 
ATOM     15  C   LIG    1       26.717 -28.144  14.153  0.00  0.00    +0.139 C 
ATOM     16  C   LIG    1       26.506 -29.591  14.050  0.00  0.00    +0.217 C 
ATOM     17  O   LIG    1       26.916 -30.415  12.948  0.00  0.00    -0.356 OA
ATOM     18  C   LIG    1       23.685 -28.575  12.125  0.00  0.00    +0.002 C 
ATOM     19  C   LIG    1       23.646 -27.526  13.251  0.00  0.00    +0.005 C 
ATOM     20  C   LIG    1       22.262 -27.033  13.621  0.00  0.00    +0.010 C 
ENDROOT
BRANCH   3  21
ATOM     21  O   LIG    1       19.525 -26.700  13.242  0.00  0.00    -0.391 OA
ATOM     22  H   LIG    1       19.727 -25.857  13.685  0.00  0.00    +0.210 HD
ENDBRANCH   3  21
BRANCH  14  23
ATOM     23  C   LIG    1       27.041 -25.962  13.191  0.00  0.00    +0.098 C 
ATOM     24  N   LIG    1       27.310 -24.825  13.292  0.00  0.00    -0.191 NA
ENDBRANCH  14  23
BRANCH  15  25
ATOM     25  O   LIG    1       26.751 -27.595  15.424  0.00  0.00    -0.507 OA
ATOM     26  H   LIG    1       26.024 -26.940  15.452  0.00  0.00    +0.292 HD
ENDBRANCH  15  25
TORSDOF 3
ENDMDL
MODEL 2
REMARK VINA RESULT:      -5.2      3.013      6.225
REMARK  Name = *****
REMARK                            x       y       z     vdW  Elec       q    Type
REMARK                         _______ _______ _______ _____ _____    ______ ____
ROOT
ATOM      1  C   LIG    1       26.050 -31.208  12.551  0.00  0.00    +0.014 C 
ATOM      2  C   LIG    1       26.071 -30.006  11.558  0.00  0.00    -0.003 C 
ATOM      3  C   LIG    1       27.394 -29.995  10.739  0.00  0.00    +0.121 C 
ATOM      4  C   LIG    1       28.385 -29.151  11.565  0.00  0.00    +0.032 C 
ATOM      5  C   LIG    1       27.605 -28.701  12.819  0.00  0.00    +0.007 C 
ATOM      6  C   LIG    1       26.165 -28.639  12.268  0.00  0.00    +0.001 C 
ATOM      7  C   LIG    1       24.911 -28.194  13.068  0.00  0.00    -0.003 C 
ATOM      8  C   LIG    1       24.906 -28.540  14.559  0.00  0.00    +0.007 C 
ATOM      9  C   LIG    1       23.672 -29.194  15.160  0.00  0.00    +0.039 C 
ATOM     10  C   LIG    1       22.407 -29.168  14.362  0.00  0.00    +0.110 C 
ATOM     11  C   LIG    1       22.265 -28.274  13.135  0.00  0.00    +0.008 C 
ATOM     12  C   LIG    1       22.109 -26.792  13.552  0.00  0.00    +0.015 C 
ATOM     13  C   LIG    1       20.915 -28.629  12.350  0.00  0.00    +0.059 C 
ATOM     14  C   LIG    1       20.596 -30.107  12.226  0.00  0.00    +0.070 C 
ATOM     15  C   LIG    1       21.040 -30.941  13.186  0.00  0.00    +0.139 C 
ATOM     16  C   LIG    1       21.598 -30.453  14.450  0.00  0.00    +0.217 C 
ATOM     17  O   LIG    1       21.196 -29.254  15.129  0.00  0.00    -0.356 OA
ATOM     18  C   LIG    1       23.574 -28.446  12.266  0.00  0.00    +0.002 C 
ATOM     19  C   LIG    1       23.572 -29.779  11.496  0.00  0.00    +0.005 C 
ATOM     20  C   LIG    1       24.823 -30.051  10.684  0.00  0.00    +0.010 C 
ENDROOT
BRANCH   3  21
ATOM     21  O   LIG    1       27.229 -29.369   9.463  0.00  0.00    -0.391 OA
ATOM     22  H   LIG    1       26.640 -29.918   8.916  0.00  0.00    +0.210 HD
ENDBRANCH   3  21
BRANCH  14  23
ATOM     23  C   LIG    1       19.953 -30.608  11.064  0.00  0.00    +0.098 C 
ATOM     24  N   LIG    1       19.420 -31.017  10.104  0.00  0.00    -0.191 NA
ENDBRANCH  14  23
BRANCH  15  25
ATOM     25  O   LIG    1       21.133 -32.299  12.932  0.00  0.00    -0.507 OA
ATOM     26  H   LIG    1       21.962 -32.595  13.359  0.00  0.00    +0.292 HD
ENDBRANCH  15  25
TORSDOF 3
ENDMDL
MODEL 3
REMARK VINA RESULT:      -5.1      5.769      8.385
REMARK  Name = *****
REMARK                            x       y       z     vdW  Elec       q    Type
REMARK                         _______ _______ _______ _____ _____    ______ ____
ROOT
ATOM      1  C   LIG    1       26.827 -27.982   5.321  0.00  0.00    +0.014 C 
ATOM      2  C   LIG    1       25.394 -27.442   5.615  0.00  0.00    -0.003 C 
ATOM      3  C   LIG    1       25.201 -26.032   4.987  0.00  0.00    +0.121 C 
ATOM      4  C   LIG    1       25.651 -25.030   6.070  0.00  0.00    +0.032 C 
ATOM      5  C   LIG    1       26.078 -25.890   7.279  0.00  0.00    +0.007 C 
ATOM      6  C   LIG    1       25.165 -27.122   7.107  0.00  0.00    +0.001 C 
ATOM      7  C   LIG    1       25.102 -28.339   8.068  0.00  0.00    -0.003 C 
ATOM      8  C   LIG    1       26.417 -28.731   8.746  0.00  0.00    +0.007 C 
ATOM      9  C   LIG    1       26.847 -30.189   8.734  0.00  0.00    +0.039 C 
ATOM     10  C   LIG    1       25.826 -31.217   8.362  0.00  0.00    +0.110 C 
ATOM     11  C   LIG    1       24.344 -30.867   8.286  0.00  0.00    +0.008 C 
ATOM     12  C   LIG    1       23.748 -30.694   9.704  0.00  0.00    +0.015 C 
ATOM     13  C   LIG    1       23.526 -32.082   7.637  0.00  0.00    +0.059 C 
ATOM     14  C   LIG    1       24.186 -32.759   6.451  0.00  0.00    +0.070 C 
ATOM     15  C   LIG    1       25.531 -32.756   6.377  0.00  0.00    +0.139 C 
ATOM     16  C   LIG    1       26.375 -32.345   7.503  0.00  0.00    +0.217 C 
ATOM     17  O   LIG    1       26.060 -32.532   8.891  0.00  0.00    -0.356 OA
ATOM     18  C   LIG    1       24.216 -29.511   7.486  0.00  0.00    +0.002 C 
ATOM     19  C   LIG    1       24.409 -29.722   5.974  0.00  0.00    +0.005 C 
ATOM     20  C   LIG    1       24.363 -28.459   5.138  0.00  0.00    +0.010 C 
ENDROOT
BRANCH   3  21
ATOM     21  O   LIG    1       23.830 -25.767   4.675  0.00  0.00    -0.391 OA
ATOM     22  H   LIG    1       23.281 -26.491   5.024  0.00  0.00    +0.210 HD
ENDBRANCH   3  21
BRANCH  14  23
ATOM     23  C   LIG    1       23.398 -33.273   5.388  0.00  0.00    +0.098 C 
ATOM     24  N   LIG    1       22.745 -33.692   4.509  0.00  0.00    -0.191 NA
ENDBRANCH  14  23
BRANCH  15  25
ATOM     25  O   LIG    1       26.156 -32.986   5.164  0.00  0.00    -0.507 OA
ATOM     26  H   LIG    1       27.061 -32.625   5.255  0.00  0.00    +0.292 HD
ENDBRANCH  15  25
TORSDOF 3
ENDMDL
MODEL 4
REMARK VINA RESULT:      -5.0      2.712      5.942
REMARK  Name = *****
REMARK                            x       y       z     vdW  Elec       q    Type
REMARK                         _______ _______ _______ _____ _____    ______ ____
ROOT
ATOM      1  C   LIG    1       25.612 -28.027  15.125  0.00  0.00    +0.014 C 
ATOM      2  C   LIG    1       25.644 -27.327  13.732  0.00  0.00    -0.003 C 
ATOM      3  C   LIG    1       27.034 -26.678  13.477  0.00  0.00    +0.121 C 
ATOM      4  C   LIG    1       26.932 -25.246  14.040  0.00  0.00    +0.032 C 
ATOM      5  C   LIG    1       25.495 -25.116  14.590  0.00  0.00    +0.007 C 
ATOM      6  C   LIG    1       24.733 -26.084  13.662  0.00  0.00    +0.001 C 
ATOM      7  C   LIG    1       23.204 -26.350  13.697  0.00  0.00    -0.003 C 
ATOM      8  C   LIG    1       22.541 -26.288  15.076  0.00  0.00    +0.007 C 
ATOM      9  C   LIG    1       21.612 -27.413  15.500  0.00  0.00    +0.039 C 
ATOM     10  C   LIG    1       21.124 -28.354  14.443  0.00  0.00    +0.110 C 
ATOM     11  C   LIG    1       21.299 -28.038  12.962  0.00  0.00    +0.008 C 
ATOM     12  C   LIG    1       20.317 -26.926  12.519  0.00  0.00    +0.015 C 
ATOM     13  C   LIG    1       20.909 -29.314  12.077  0.00  0.00    +0.059 C 
ATOM     14  C   LIG    1       21.388 -30.652  12.607  0.00  0.00    +0.070 C 
ATOM     15  C   LIG    1       21.549 -30.795  13.937  0.00  0.00    +0.139 C 
ATOM     16  C   LIG    1       21.052 -29.804  14.896  0.00  0.00    +0.217 C 
ATOM     17  O   LIG    1       19.874 -29.002  14.728  0.00  0.00    -0.356 OA
ATOM     18  C   LIG    1       22.786 -27.546  12.753  0.00  0.00    +0.002 C 
ATOM     19  C   LIG    1       23.782 -28.719  12.786  0.00  0.00    +0.005 C 
ATOM     20  C   LIG    1       25.240 -28.327  12.654  0.00  0.00    +0.010 C 
ENDROOT
BRANCH   3  21
ATOM     21  O   LIG    1       27.336 -26.588  12.081  0.00  0.00    -0.391 OA
ATOM     22  H   LIG    1       27.393 -25.649  11.830  0.00  0.00    +0.210 HD
ENDBRANCH   3  21
BRANCH  14  23
ATOM     23  C   LIG    1       21.774 -31.683  11.711  0.00  0.00    +0.098 C 
ATOM     24  N   LIG    1       22.097 -32.532  10.970  0.00  0.00    -0.191 NA
ENDBRANCH  14  23
BRANCH  15  25
ATOM     25  O   LIG    1       22.344 -31.815  14.431  0.00  0.00    -0.507 OA
ATOM     26  H   LIG    1       23.239 -31.432  14.534  0.00  0.00    +0.292 HD
ENDBRANCH  15  25
TORSDOF 3
ENDMDL
MODEL 5
REMARK VINA RESULT:      -4.9      2.630      3.749
REMARK  Name = *****
REMARK                            x       y       z     vdW  Elec       q    Type
REMARK                         _______ _______ _______ _____ _____    ______ ____
ROOT
ATOM      1  C   LIG    1       22.646 -32.436  12.354  0.00  0.00    +0.014 C 
ATOM      2  C   LIG    1       21.755 -31.312  11.740  0.00  0.00    -0.003 C 
ATOM      3  C   LIG    1       20.324 -31.354  12.347  0.00  0.00    +0.121 C 
ATOM      4  C   LIG    1       19.516 -32.301  11.436  0.00  0.00    +0.032 C 
ATOM      5  C   LIG    1       20.499 -32.762  10.339  0.00  0.00    +0.007 C 
ATOM      6  C   LIG    1       21.438 -31.542  10.248  0.00  0.00    +0.001 C 
ATOM      7  C   LIG    1       22.628 -31.391   9.262  0.00  0.00    -0.003 C 
ATOM      8  C   LIG    1       23.377 -32.677   8.909  0.00  0.00    +0.007 C 
ATOM      9  C   LIG    1       24.896 -32.690   8.978  0.00  0.00    +0.039 C 
ATOM     10  C   LIG    1       25.603 -31.374   9.061  0.00  0.00    +0.110 C 
ATOM     11  C   LIG    1       24.871 -30.065   8.789  0.00  0.00    +0.008 C 
ATOM     12  C   LIG    1       24.595 -29.895   7.276  0.00  0.00    +0.015 C 
ATOM     13  C   LIG    1       25.802 -28.822   9.183  0.00  0.00    +0.059 C 
ATOM     14  C   LIG    1       26.588 -28.974  10.472  0.00  0.00    +0.070 C 
ATOM     15  C   LIG    1       26.939 -30.213  10.868  0.00  0.00    +0.139 C 
ATOM     16  C   LIG    1       26.806 -31.380   9.992  0.00  0.00    +0.217 C 
ATOM     17  O   LIG    1       26.951 -31.370   8.564  0.00  0.00    -0.356 OA
ATOM     18  C   LIG    1       23.502 -30.113   9.576  0.00  0.00    +0.002 C 
ATOM     19  C   LIG    1       23.705 -29.873  11.083  0.00  0.00    +0.005 C 
ATOM     20  C   LIG    1       22.445 -29.965  11.922  0.00  0.00    +0.010 C 
ENDROOT
BRANCH   3  21
ATOM     21  O   LIG    1       19.694 -30.070  12.327  0.00  0.00    -0.391 OA
ATOM     22  H   LIG    1       19.563 -29.769  13.244  0.00  0.00    +0.210 HD
ENDBRANCH   3  21
BRANCH  14  23
ATOM     23  C   LIG    1       26.838 -27.847  11.297  0.00  0.00    +0.098 C 
ATOM     24  N   LIG    1       27.039 -26.914  11.979  0.00  0.00    -0.191 NA
ENDBRANCH  14  23
BRANCH  15  25
ATOM     25  O   LIG    1       27.284 -30.443  12.188  0.00  0.00    -0.507 OA
ATOM     26  H   LIG    1       28.147 -30.907  12.163  0.00  0.00    +0.292 HD
ENDBRANCH  15  25
TORSDOF 3
ENDMDL
MODEL 6
REMARK VINA RESULT:      -4.9      3.339      5.525
REMARK  Name = *****
REMARK                            x       y       z     vdW  Elec       q    Type
REMARK                         _______ _______ _______ _____ _____    ______ ____
ROOT
ATOM      1  C   LIG    1       28.107 -29.513  12.752  0.00  0.00    +0.014 C 
ATOM      2  C   LIG    1       27.036 -28.431  13.090  0.00  0.00    -0.003 C 
ATOM      3  C   LIG    1       27.626 -27.356  14.048  0.00  0.00    +0.121 C 
ATOM      4  C   LIG    1       27.350 -27.876  15.474  0.00  0.00    +0.032 C 
ATOM      5  C   LIG    1       26.609 -29.219  15.291  0.00  0.00    +0.007 C 
ATOM      6  C   LIG    1       25.879 -28.977  13.954  0.00  0.00    +0.001 C 
ATOM      7  C   LIG    1       24.916 -29.975  13.258  0.00  0.00    -0.003 C 
ATOM      8  C   LIG    1       25.243 -31.460  13.435  0.00  0.00    +0.007 C 
ATOM      9  C   LIG    1       25.260 -32.363  12.213  0.00  0.00    +0.039 C 
ATOM     10  C   LIG    1       24.639 -31.848  10.953  0.00  0.00    +0.110 C 
ATOM     11  C   LIG    1       23.762 -30.600  10.957  0.00  0.00    +0.008 C 
ATOM     12  C   LIG    1       22.383 -30.901  11.592  0.00  0.00    +0.015 C 
ATOM     13  C   LIG    1       23.439 -30.149   9.455  0.00  0.00    +0.059 C 
ATOM     14  C   LIG    1       24.599 -30.232   8.481  0.00  0.00    +0.070 C 
ATOM     15  C   LIG    1       25.558 -31.151   8.702  0.00  0.00    +0.139 C 
ATOM     16  C   LIG    1       25.404 -32.220   9.692  0.00  0.00    +0.217 C 
ATOM     17  O   LIG    1       24.165 -32.855  10.045  0.00  0.00    -0.356 OA
ATOM     18  C   LIG    1       24.508 -29.497  11.809  0.00  0.00    +0.002 C 
ATOM     19  C   LIG    1       25.676 -28.870  11.027  0.00  0.00    +0.005 C 
ATOM     20  C   LIG    1       26.485 -27.844  11.796  0.00  0.00    +0.010 C 
ENDROOT
BRANCH   3  21
ATOM     21  O   LIG    1       26.976 -26.091  13.900  0.00  0.00    -0.391 OA
ATOM     22  H   LIG    1       26.752 -25.746  14.783  0.00  0.00    +0.210 HD
ENDBRANCH   3  21
BRANCH  14  23
ATOM     23  C   LIG    1       24.727 -29.281   7.435  0.00  0.00    +0.098 C 
ATOM     24  N   LIG    1       24.829 -28.493   6.572  0.00  0.00    -0.191 NA
ENDBRANCH  14  23
BRANCH  15  25
ATOM     25  O   LIG    1       26.801 -31.009   8.108  0.00  0.00    -0.507 OA
ATOM     26  H   LIG    1       26.833 -30.090   7.771  0.00  0.00    +0.292 HD
ENDBRANCH  15  25
TORSDOF 3
ENDMDL
MODEL 7
REMARK VINA RESULT:      -4.9      2.662      4.842
REMARK  Name = *****
REMARK                            x       y       z     vdW  Elec       q    Type
REMARK                         _______ _______ _______ _____ _____    ______ ____
ROOT
ATOM      1  C   LIG    1       25.959 -27.765  15.206  0.00  0.00    +0.014 C 
ATOM      2  C   LIG    1       25.589 -26.868  13.985  0.00  0.00    -0.003 C 
ATOM      3  C   LIG    1       26.207 -25.448  14.141  0.00  0.00    +0.121 C 
ATOM      4  C   LIG    1       25.150 -24.617  14.897  0.00  0.00    +0.032 C 
ATOM      5  C   LIG    1       23.964 -25.575  15.142  0.00  0.00    +0.007 C 
ATOM      6  C   LIG    1       24.087 -26.518  13.928  0.00  0.00    +0.001 C 
ATOM      7  C   LIG    1       23.123 -27.688  13.593  0.00  0.00    -0.003 C 
ATOM      8  C   LIG    1       22.516 -28.424  14.790  0.00  0.00    +0.007 C 
ATOM      9  C   LIG    1       22.550 -29.943  14.817  0.00  0.00    +0.039 C 
ATOM     10  C   LIG    1       22.865 -30.659  13.542  0.00  0.00    +0.110 C 
ATOM     11  C   LIG    1       22.863 -29.928  12.204  0.00  0.00    +0.008 C 
ATOM     12  C   LIG    1       21.415 -29.622  11.750  0.00  0.00    +0.015 C 
ATOM     13  C   LIG    1       23.465 -30.873  11.060  0.00  0.00    +0.059 C 
ATOM     14  C   LIG    1       24.685 -31.685  11.454  0.00  0.00    +0.070 C 
ATOM     15  C   LIG    1       24.831 -32.038  12.745  0.00  0.00    +0.139 C 
ATOM     16  C   LIG    1       23.753 -31.881  13.725  0.00  0.00    +0.217 C 
ATOM     17  O   LIG    1       22.350 -31.996  13.445  0.00  0.00    -0.356 OA
ATOM     18  C   LIG    1       23.655 -28.575  12.399  0.00  0.00    +0.002 C 
ATOM     19  C   LIG    1       25.175 -28.810  12.450  0.00  0.00    +0.005 C 
ATOM     20  C   LIG    1       26.008 -27.568  12.698  0.00  0.00    +0.010 C 
ENDROOT
BRANCH   3  21
ATOM     21  O   LIG    1       26.444 -24.825  12.875  0.00  0.00    -0.391 OA
ATOM     22  H   LIG    1       27.267 -24.308  12.928  0.00  0.00    +0.210 HD
ENDBRANCH   3  21
BRANCH  14  23
ATOM     23  C   LIG    1       25.704 -31.957  10.504  0.00  0.00    +0.098 C 
ATOM     24  N   LIG    1       26.549 -32.181   9.722  0.00  0.00    -0.191 NA
ENDBRANCH  14  23
BRANCH  15  25
ATOM     25  O   LIG    1       26.076 -32.409  13.223  0.00  0.00    -0.507 OA
ATOM     26  H   LIG    1       25.907 -33.042  13.950  0.00  0.00    +0.292 HD
ENDBRANCH  15  25
TORSDOF 3
ENDMDL
MODEL 8
REMARK VINA RESULT:      -4.8      2.422      3.076
REMARK  Name = *****
REMARK                            x       y       z     vdW  Elec       q    Type
REMARK                         _______ _______ _______ _____ _____    ______ ____
ROOT
ATOM      1  C   LIG    1       21.129 -31.965  12.709  0.00  0.00    +0.014 C 
ATOM      2  C   LIG    1       20.955 -31.226  11.347  0.00  0.00    -0.003 C 
ATOM      3  C   LIG    1       19.524 -31.449  10.780  0.00  0.00    +0.121 C 
ATOM      4  C   LIG    1       19.614 -32.724   9.918  0.00  0.00    +0.032 C 
ATOM      5  C   LIG    1       21.085 -33.185  10.009  0.00  0.00    +0.007 C 
ATOM      6  C   LIG    1       21.807 -31.837  10.215  0.00  0.00    +0.001 C 
ATOM      7  C   LIG    1       23.343 -31.646  10.333  0.00  0.00    -0.003 C 
ATOM      8  C   LIG    1       24.113 -32.782  11.010  0.00  0.00    +0.007 C 
ATOM      9  C   LIG    1       25.118 -32.445  12.100  0.00  0.00    +0.039 C 
ATOM     10  C   LIG    1       25.555 -31.021  12.233  0.00  0.00    +0.110 C 
ATOM     11  C   LIG    1       25.247 -29.995  11.148  0.00  0.00    +0.008 C 
ATOM     12  C   LIG    1       26.144 -30.223   9.907  0.00  0.00    +0.015 C 
ATOM     13  C   LIG    1       25.614 -28.523  11.662  0.00  0.00    +0.059 C 
ATOM     14  C   LIG    1       25.233 -28.215  13.097  0.00  0.00    +0.070 C 
ATOM     15  C   LIG    1       25.188 -29.230  13.981  0.00  0.00    +0.139 C 
ATOM     16  C   LIG    1       25.721 -30.560  13.673  0.00  0.00    +0.217 C 
ATOM     17  O   LIG    1       26.849 -30.828  12.826  0.00  0.00    -0.356 OA
ATOM     18  C   LIG    1       23.729 -30.170  10.744  0.00  0.00    +0.002 C 
ATOM     19  C   LIG    1       22.787 -29.571  11.804  0.00  0.00    +0.005 C 
ATOM     20  C   LIG    1       21.308 -29.753  11.524  0.00  0.00    +0.010 C 
ENDROOT
BRANCH   3  21
ATOM     21  O   LIG    1       19.105 -30.369   9.939  0.00  0.00    -0.391 OA
ATOM     22  H   LIG    1       19.864 -30.072   9.407  0.00  0.00    +0.210 HD
ENDBRANCH   3  21
BRANCH  14  23
ATOM     23  C   LIG    1       24.817 -26.909  13.465  0.00  0.00    +0.098 C 
ATOM     24  N   LIG    1       24.469 -25.830  13.766  0.00  0.00    -0.191 NA
ENDBRANCH  14  23
BRANCH  15  25
ATOM     25  O   LIG    1       24.478 -29.087  15.161  0.00  0.00    -0.507 OA
ATOM     26  H   LIG    1       24.865 -28.311  15.614  0.00  0.00    +0.292 HD
ENDBRANCH  15  25
TORSDOF 3
ENDMDL
MODEL 9
REMARK VINA RESULT:      -4.7      2.758      5.064
REMARK  Name = *****
REMARK                            x       y       z     vdW  Elec       q    Type
REMARK                         _______ _______ _______ _____ _____    ______ ____
ROOT
ATOM      1  C   LIG    1       22.950 -32.560  11.541  0.00  0.00    +0.014 C 
ATOM      2  C   LIG    1       23.444 -31.661  10.366  0.00  0.00    -0.003 C 
ATOM      3  C   LIG    1       23.446 -32.458   9.030  0.00  0.00    +0.121 C 
ATOM      4  C   LIG    1       24.841 -33.109   8.937  0.00  0.00    +0.032 C 
ATOM      5  C   LIG    1       25.594 -32.662  10.209  0.00  0.00    +0.007 C 
ATOM      6  C   LIG    1       24.938 -31.292  10.478  0.00  0.00    +0.001 C 
ATOM      7  C   LIG    1       25.320 -30.318  11.626  0.00  0.00    -0.003 C 
ATOM      8  C   LIG    1       25.774 -30.967  12.936  0.00  0.00    +0.007 C 
ATOM      9  C   LIG    1       25.168 -30.489  14.245  0.00  0.00    +0.039 C 
ATOM     10  C   LIG    1       24.414 -29.197  14.237  0.00  0.00    +0.110 C 
ATOM     11  C   LIG    1       24.492 -28.244  13.049  0.00  0.00    +0.008 C 
ATOM     12  C   LIG    1       25.861 -27.521  13.016  0.00  0.00    +0.015 C 
ATOM     13  C   LIG    1       23.409 -27.076  13.209  0.00  0.00    +0.059 C 
ATOM     14  C   LIG    1       22.047 -27.508  13.718  0.00  0.00    +0.070 C 
ATOM     15  C   LIG    1       21.975 -28.589  14.519  0.00  0.00    +0.139 C 
ATOM     16  C   LIG    1       23.167 -29.207  15.107  0.00  0.00    +0.217 C 
ATOM     17  O   LIG    1       24.359 -28.510  15.497  0.00  0.00    -0.356 OA
ATOM     18  C   LIG    1       24.316 -29.104  11.735  0.00  0.00    +0.002 C 
ATOM     19  C   LIG    1       22.848 -29.512  11.517  0.00  0.00    +0.005 C 
ATOM     20  C   LIG    1       22.599 -30.393  10.309  0.00  0.00    +0.010 C 
ENDROOT
BRANCH   3  21
ATOM     21  O   LIG    1       23.275 -31.603   7.896  0.00  0.00    -0.391 OA
ATOM     22  H   LIG    1       24.115 -31.146   7.716  0.00  0.00    +0.210 HD
ENDBRANCH   3  21
BRANCH  14  23
ATOM     23  C   LIG    1       20.870 -26.861  13.259  0.00  0.00    +0.098 C 
ATOM     24  N   LIG    1       19.900 -26.325  12.875  0.00  0.00    -0.191 NA
ENDBRANCH  14  23
BRANCH  15  25
ATOM     25  O   LIG    1       20.770 -29.253  14.676  0.00  0.00    -0.507 OA
ATOM     26  H   LIG    1       20.210 -28.973  13.924  0.00  0.00    +0.292 HD
ENDBRANCH  15  25
TORSDOF 3
ENDMDL
