MODEL 1
REMARK VINA RESULT:      -5.5      0.000      0.000
REMARK  Name = *****
REMARK                            x       y       z     vdW  Elec       q    Type
REMARK                         _______ _______ _______ _____ _____    ______ ____
ROOT
ATOM      1  C   LIG    1       23.044 -31.145  11.210  0.00  0.00    +0.064 A 
ATOM      2  C   LIG    1       23.281 -30.023  12.036  0.00  0.00    +0.049 A 
ATOM      3  I   LIG    1       21.559 -28.805  12.502  0.00  0.00    -0.041 I 
ATOM      4  C   LIG    1       24.540 -29.386  12.088  0.00  0.00    +0.065 A 
ATOM      5  C   LIG    1       25.530 -29.791  11.183  0.00  0.00    +0.040 A 
ATOM      6  I   LIG    1       27.574 -29.389  11.550  0.00  0.00    -0.042 I 
ATOM      7  C   LIG    1       25.139 -30.583  10.088  0.00  0.00    +0.065 A 
ATOM      8  C   LIG    1       23.930 -31.316  10.122  0.00  0.00    +0.049 A 
ATOM      9  I   LIG    1       23.517 -32.646   8.456  0.00  0.00    -0.041 I 
ENDROOT
BRANCH   4  10
ATOM     10  C   LIG    1       24.818 -28.479  13.216  0.00  0.00    +0.246 C 
ATOM     11  N   LIG    1       24.702 -27.129  13.022  0.00  0.00    -0.309 N 
ATOM     12  H   LIG    1       24.018 -26.842  12.331  0.00  0.00    +0.149 HD
ATOM     13  O   LIG    1       25.063 -29.000  14.322  0.00  0.00    -0.270 OA
BRANCH  11  14
ATOM     14  C   LIG    1       24.817 -26.210  14.162  0.00  0.00    +0.138 C 
BRANCH  14  15
ATOM     15  C   LIG    1       25.319 -24.839  13.685  0.00  0.00    +0.157 C 
BRANCH  15  16
ATOM     16  O   LIG    1       26.539 -25.008  12.944  0.00  0.00    -0.388 OA
ATOM     17  H   LIG    1       26.755 -24.159  12.519  0.00  0.00    +0.210 HD
ENDBRANCH  15  16
BRANCH  15  18
ATOM     18  C   LIG    1       25.537 -23.862  14.842  0.00  0.00    +0.188 C 
BRANCH  18  19
ATOM     19  O   LIG    1       25.483 -22.510  14.418  0.00  0.00    -0.392 OA
ATOM     20  H   LIG    1       24.644 -22.131  14.736  0.00  0.00    +0.209 HD
ENDBRANCH  18  19
ENDBRANCH  15  18
ENDBRANCH  14  15
ENDBRANCH  11  14
ENDBRANCH   4  10
BRANCH   1  23
ATOM     21  C   LIG    1       21.044 -33.374  13.547  0.00  0.00    +0.110 C 
ATOM     22  C   LIG    1       22.276 -32.798  12.869  0.00  0.00    +0.217 C 
ATOM     23  N   LIG    1       22.112 -32.187  11.626  0.00  0.00    -0.267 N 
ATOM     24  O   LIG    1       23.356 -32.808  13.462  0.00  0.00    -0.276 OA
BRANCH  23  25
ATOM     25  C   LIG    1       20.832 -32.284  10.880  0.00  0.00    +0.147 C 
BRANCH  25  26
ATOM     26  C   LIG    1       19.800 -31.164  11.159  0.00  0.00    +0.158 C 
BRANCH  26  27
ATOM     27  O   LIG    1       19.491 -30.495   9.925  0.00  0.00    -0.388 OA
ATOM     28  H   LIG    1       18.812 -31.017   9.456  0.00  0.00    +0.210 HD
ENDBRANCH  26  27
BRANCH  26  29
ATOM     29  C   LIG    1       18.457 -31.601  11.760  0.00  0.00    +0.188 C 
BRANCH  29  30
ATOM     30  O   LIG    1       17.369 -30.879  11.193  0.00  0.00    -0.392 OA
ATOM     31  H   LIG    1       16.556 -31.171  11.643  0.00  0.00    +0.209 HD
ENDBRANCH  29  30
ENDBRANCH  26  29
ENDBRANCH  25  26
ENDBRANCH  23  25
ENDBRANCH   1  23
BRANCH   7  32
ATOM     32  C   LIG    1       25.978 -30.615   8.863  0.00  0.00    +0.246 C 
ATOM     33  N   LIG    1       25.598 -29.806   7.803  0.00  0.00    -0.309 N 
ATOM     34  H   LIG    1       26.145 -30.002   6.971  0.00  0.00    +0.149 HD
ATOM     35  O   LIG    1       26.930 -31.343   8.779  0.00  0.00    -0.270 OA
BRANCH  33  36
ATOM     36  C   LIG    1       24.456 -28.923   7.652  0.00  0.00    +0.138 C 
BRANCH  36  37
ATOM     37  C   LIG    1       24.150 -28.503   6.214  0.00  0.00    +0.157 C 
BRANCH  37  38
ATOM     38  O   LIG    1       23.296 -29.514   5.662  0.00  0.00    -0.388 OA
ATOM     39  H   LIG    1       23.854 -30.277   5.430  0.00  0.00    +0.210 HD
ENDBRANCH  37  38
BRANCH  37  40
ATOM     40  C   LIG    1       25.431 -28.368   5.385  0.00  0.00    +0.188 C 
BRANCH  40  41
ATOM     41  O   LIG    1       26.320 -27.433   5.995  0.00  0.00    -0.392 OA
ATOM     42  H   LIG    1       27.193 -27.856   6.066  0.00  0.00    +0.209 HD
ENDBRANCH  40  41
ENDBRANCH  37  40
ENDBRANCH  36  37
ENDBRANCH  33  36
ENDBRANCH   7  32
TORSDOF 18
ENDMDL
MODEL 2
REMARK VINA RESULT:      -5.5      2.560      6.306
REMARK  Name = *****
REMARK                            x       y       z     vdW  Elec       q    Type
REMARK                         _______ _______ _______ _____ _____    ______ ____
ROOT
ATOM      1  C   LIG    1       23.083 -30.473  12.776  0.00  0.00    +0.064 A 
ATOM      2  C   LIG    1       23.166 -31.045  11.487  0.00  0.00    +0.049 A 
ATOM      3  I   LIG    1       22.266 -32.995  11.252  0.00  0.00    -0.041 I 
ATOM      4  C   LIG    1       24.202 -30.713  10.588  0.00  0.00    +0.065 A 
ATOM      5  C   LIG    1       25.254 -29.911  11.049  0.00  0.00    +0.040 A 
ATOM      6  I   LIG    1       26.493 -28.854   9.700  0.00  0.00    -0.042 I 
ATOM      7  C   LIG    1       25.383 -29.726  12.438  0.00  0.00    +0.065 A 
ATOM      8  C   LIG    1       24.282 -29.939  13.300  0.00  0.00    +0.049 A 
ATOM      9  I   LIG    1       24.543 -29.448  15.399  0.00  0.00    -0.041 I 
ENDROOT
BRANCH   4  10
ATOM     10  C   LIG    1       24.027 -31.053   9.164  0.00  0.00    +0.246 C 
ATOM     11  N   LIG    1       24.772 -32.071   8.631  0.00  0.00    -0.309 N 
ATOM     12  H   LIG    1       25.027 -32.811   9.275  0.00  0.00    +0.149 HD
ATOM     13  O   LIG    1       23.138 -30.443   8.536  0.00  0.00    -0.270 OA
BRANCH  11  14
ATOM     14  C   LIG    1       24.508 -32.535   7.263  0.00  0.00    +0.138 C 
BRANCH  14  15
ATOM     15  C   LIG    1       25.507 -31.893   6.288  0.00  0.00    +0.157 C 
BRANCH  15  16
ATOM     16  O   LIG    1       26.701 -31.529   6.998  0.00  0.00    -0.388 OA
ATOM     17  H   LIG    1       27.086 -32.339   7.379  0.00  0.00    +0.210 HD
ENDBRANCH  15  16
BRANCH  15  18
ATOM     18  C   LIG    1       24.923 -30.670   5.577  0.00  0.00    +0.188 C 
BRANCH  18  19
ATOM     19  O   LIG    1       23.510 -30.617   5.677  0.00  0.00    -0.392 OA
ATOM     20  H   LIG    1       23.260 -29.702   5.901  0.00  0.00    +0.209 HD
ENDBRANCH  18  19
ENDBRANCH  15  18
ENDBRANCH  14  15
ENDBRANCH  11  14
ENDBRANCH   4  10
BRANCH   1  23
ATOM     21  C   LIG    1       20.444 -30.244  15.500  0.00  0.00    +0.110 C 
ATOM     22  C   LIG    1       21.430 -30.908  14.553  0.00  0.00    +0.217 C 
ATOM     23  N   LIG    1       21.784 -30.220  13.392  0.00  0.00    -0.267 N 
ATOM     24  O   LIG    1       21.950 -31.979  14.870  0.00  0.00    -0.276 OA
BRANCH  23  25
ATOM     25  C   LIG    1       21.067 -28.989  12.973  0.00  0.00    +0.147 C 
BRANCH  25  26
ATOM     26  C   LIG    1       21.459 -27.691  13.721  0.00  0.00    +0.158 C 
BRANCH  26  27
ATOM     27  O   LIG    1       22.464 -27.000  12.960  0.00  0.00    -0.388 OA
ATOM     28  H   LIG    1       22.475 -26.066  13.246  0.00  0.00    +0.210 HD
ENDBRANCH  26  27
BRANCH  26  29
ATOM     29  C   LIG    1       20.335 -26.677  13.972  0.00  0.00    +0.188 C 
BRANCH  29  30
ATOM     30  O   LIG    1       19.635 -26.361  12.772  0.00  0.00    -0.392 OA
ATOM     31  H   LIG    1       19.818 -25.428  12.562  0.00  0.00    +0.209 HD
ENDBRANCH  29  30
ENDBRANCH  26  29
ENDBRANCH  25  26
ENDBRANCH  23  25
ENDBRANCH   1  23
BRANCH   7  32
ATOM     32  C   LIG    1       26.698 -29.349  13.014  0.00  0.00    +0.246 C 
ATOM     33  N   LIG    1       26.950 -28.000  13.210  0.00  0.00    -0.309 N 
ATOM     34  H   LIG    1       27.918 -27.836  13.471  0.00  0.00    +0.149 HD
ATOM     35  O   LIG    1       27.530 -30.180  13.266  0.00  0.00    -0.270 OA
BRANCH  33  36
ATOM     36  C   LIG    1       26.141 -26.835  12.905  0.00  0.00    +0.138 C 
BRANCH  36  37
ATOM     37  C   LIG    1       25.825 -25.936  14.102  0.00  0.00    +0.157 C 
BRANCH  37  38
ATOM     38  O   LIG    1       24.630 -25.216  13.774  0.00  0.00    -0.388 OA
ATOM     39  H   LIG    1       23.928 -25.520  14.376  0.00  0.00    +0.210 HD
ENDBRANCH  37  38
BRANCH  37  40
ATOM     40  C   LIG    1       26.976 -24.966  14.393  0.00  0.00    +0.188 C 
BRANCH  40  41
ATOM     41  O   LIG    1       27.904 -24.958  13.308  0.00  0.00    -0.392 OA
ATOM     42  H   LIG    1       28.107 -24.031  13.098  0.00  0.00    +0.209 HD
ENDBRANCH  40  41
ENDBRANCH  37  40
ENDBRANCH  36  37
ENDBRANCH  33  36
ENDBRANCH   7  32
TORSDOF 18
ENDMDL
MODEL 3
REMARK VINA RESULT:      -5.3      2.690      6.135
REMARK  Name = *****
REMARK                            x       y       z     vdW  Elec       q    Type
REMARK                         _______ _______ _______ _____ _____    ______ ____
ROOT
ATOM      1  C   LIG    1       23.460 -30.069  12.884  0.00  0.00    +0.064 A 
ATOM      2  C   LIG    1       23.995 -31.023  11.990  0.00  0.00    +0.049 A 
ATOM      3  I   LIG    1       23.879 -33.086  12.618  0.00  0.00    -0.041 I 
ATOM      4  C   LIG    1       25.019 -30.696  11.074  0.00  0.00    +0.065 A 
ATOM      5  C   LIG    1       25.617 -29.433  11.165  0.00  0.00    +0.040 A 
ATOM      6  I   LIG    1       26.672 -28.605   9.530  0.00  0.00    -0.042 I 
ATOM      7  C   LIG    1       25.387 -28.677  12.329  0.00  0.00    +0.065 A 
ATOM      8  C   LIG    1       24.272 -28.945  13.157  0.00  0.00    +0.049 A 
ATOM      9  I   LIG    1       23.915 -27.601  14.824  0.00  0.00    -0.041 I 
ENDROOT
BRANCH   4  10
ATOM     10  C   LIG    1       25.265 -31.612   9.946  0.00  0.00    +0.246 C 
ATOM     11  N   LIG    1       24.420 -31.577   8.869  0.00  0.00    -0.309 N 
ATOM     12  H   LIG    1       23.994 -30.677   8.675  0.00  0.00    +0.149 HD
ATOM     13  O   LIG    1       26.291 -32.319   9.996  0.00  0.00    -0.270 OA
BRANCH  11  14
ATOM     14  C   LIG    1       24.729 -32.362   7.666  0.00  0.00    +0.138 C 
BRANCH  14  15
ATOM     15  C   LIG    1       24.882 -31.429   6.455  0.00  0.00    +0.157 C 
BRANCH  15  16
ATOM     16  O   LIG    1       26.278 -31.217   6.189  0.00  0.00    -0.388 OA
ATOM     17  H   LIG    1       26.572 -30.449   6.711  0.00  0.00    +0.210 HD
ENDBRANCH  15  16
BRANCH  15  18
ATOM     18  C   LIG    1       24.175 -30.088   6.658  0.00  0.00    +0.188 C 
BRANCH  18  19
ATOM     19  O   LIG    1       23.266 -29.798   5.609  0.00  0.00    -0.392 OA
ATOM     20  H   LIG    1       23.757 -29.841   4.768  0.00  0.00    +0.209 HD
ENDBRANCH  18  19
ENDBRANCH  15  18
ENDBRANCH  14  15
ENDBRANCH  11  14
ENDBRANCH   4  10
BRANCH   1  23
ATOM     21  C   LIG    1       20.407 -29.893  15.139  0.00  0.00    +0.110 C 
ATOM     22  C   LIG    1       21.726 -30.424  14.600  0.00  0.00    +0.217 C 
ATOM     23  N   LIG    1       22.056 -30.128  13.277  0.00  0.00    -0.267 N 
ATOM     24  O   LIG    1       22.496 -31.016  15.356  0.00  0.00    -0.276 OA
BRANCH  23  25
ATOM     25  C   LIG    1       21.070 -29.512  12.353  0.00  0.00    +0.147 C 
BRANCH  25  26
ATOM     26  C   LIG    1       20.358 -30.484  11.381  0.00  0.00    +0.158 C 
BRANCH  26  27
ATOM     27  O   LIG    1       21.151 -30.618  10.189  0.00  0.00    -0.388 OA
ATOM     28  H   LIG    1       21.690 -29.810  10.090  0.00  0.00    +0.210 HD
ENDBRANCH  26  27
BRANCH  26  29
ATOM     29  C   LIG    1       20.108 -31.909  11.894  0.00  0.00    +0.188 C 
BRANCH  29  30
ATOM     30  O   LIG    1       18.725 -32.140  12.147  0.00  0.00    -0.392 OA
ATOM     31  H   LIG    1       18.253 -32.057  11.299  0.00  0.00    +0.209 HD
ENDBRANCH  29  30
ENDBRANCH  26  29
ENDBRANCH  25  26
ENDBRANCH  23  25
ENDBRANCH   1  23
BRANCH   7  32
ATOM     32  C   LIG    1       26.349 -27.615  12.722  0.00  0.00    +0.246 C 
ATOM     33  N   LIG    1       27.521 -28.010  13.346  0.00  0.00    -0.309 N 
ATOM     34  H   LIG    1       28.042 -27.213  13.699  0.00  0.00    +0.149 HD
ATOM     35  O   LIG    1       26.103 -26.453  12.538  0.00  0.00    -0.270 OA
BRANCH  33  36
ATOM     36  C   LIG    1       27.983 -29.329  13.739  0.00  0.00    +0.138 C 
BRANCH  36  37
ATOM     37  C   LIG    1       29.452 -29.400  14.161  0.00  0.00    +0.157 C 
BRANCH  37  38
ATOM     38  O   LIG    1       29.776 -28.132  14.745  0.00  0.00    -0.388 OA
ATOM     39  H   LIG    1       29.220 -28.020  15.536  0.00  0.00    +0.210 HD
ENDBRANCH  37  38
BRANCH  37  40
ATOM     40  C   LIG    1       30.365 -29.693  12.966  0.00  0.00    +0.188 C 
BRANCH  40  41
ATOM     41  O   LIG    1       29.741 -29.275  11.751  0.00  0.00    -0.392 OA
ATOM     42  H   LIG    1       29.633 -28.309  11.791  0.00  0.00    +0.209 HD
ENDBRANCH  40  41
ENDBRANCH  37  40
ENDBRANCH  36  37
ENDBRANCH  33  36
ENDBRANCH   7  32
TORSDOF 18
ENDMDL
MODEL 4
REMARK VINA RESULT:      -5.2      2.816      7.683
REMARK  Name = *****
REMARK                            x       y       z     vdW  Elec       q    Type
REMARK                         _______ _______ _______ _____ _____    ______ ____
ROOT
ATOM      1  C   LIG    1       25.763 -29.488  12.894  0.00  0.00    +0.064 A 
ATOM      2  C   LIG    1       25.695 -30.074  11.610  0.00  0.00    +0.049 A 
ATOM      3  I   LIG    1       26.430 -28.871   9.974  0.00  0.00    -0.041 I 
ATOM      4  C   LIG    1       24.737 -31.061  11.289  0.00  0.00    +0.065 A 
ATOM      5  C   LIG    1       23.739 -31.351  12.228  0.00  0.00    +0.040 A 
ATOM      6  I   LIG    1       22.666 -33.172  12.154  0.00  0.00    -0.042 I 
ATOM      7  C   LIG    1       23.558 -30.454  13.297  0.00  0.00    +0.065 A 
ATOM      8  C   LIG    1       24.591 -29.567  13.679  0.00  0.00    +0.049 A 
ATOM      9  I   LIG    1       24.270 -28.358  15.453  0.00  0.00    -0.041 I 
ENDROOT
BRANCH   4  10
ATOM     10  C   LIG    1       24.953 -31.877  10.081  0.00  0.00    +0.246 C 
ATOM     11  N   LIG    1       24.167 -31.652   8.983  0.00  0.00    -0.309 N 
ATOM     12  H   LIG    1       23.834 -30.702   8.869  0.00  0.00    +0.149 HD
ATOM     13  O   LIG    1       25.908 -32.680  10.096  0.00  0.00    -0.270 OA
BRANCH  11  14
ATOM     14  C   LIG    1       24.460 -32.337   7.717  0.00  0.00    +0.138 C 
BRANCH  14  15
ATOM     15  C   LIG    1       24.890 -31.314   6.654  0.00  0.00    +0.157 C 
BRANCH  15  16
ATOM     16  O   LIG    1       26.313 -31.129   6.717  0.00  0.00    -0.388 OA
ATOM     17  H   LIG    1       26.487 -30.223   7.028  0.00  0.00    +0.210 HD
ENDBRANCH  15  16
BRANCH  15  18
ATOM     18  C   LIG    1       24.176 -29.971   6.815  0.00  0.00    +0.188 C 
BRANCH  18  19
ATOM     19  O   LIG    1       23.275 -29.713   5.751  0.00  0.00    -0.392 OA
ATOM     20  H   LIG    1       23.114 -30.554   5.285  0.00  0.00    +0.209 HD
ENDBRANCH  18  19
ENDBRANCH  15  18
ENDBRANCH  14  15
ENDBRANCH  11  14
ENDBRANCH   4  10
BRANCH   1  23
ATOM     21  C   LIG    1       29.427 -29.700  13.876  0.00  0.00    +0.110 C 
ATOM     22  C   LIG    1       27.946 -30.043  13.895  0.00  0.00    +0.217 C 
ATOM     23  N   LIG    1       27.046 -29.074  13.451  0.00  0.00    -0.267 N 
ATOM     24  O   LIG    1       27.590 -31.178  14.213  0.00  0.00    -0.276 OA
BRANCH  23  25
ATOM     25  C   LIG    1       27.482 -27.681  13.179  0.00  0.00    +0.147 C 
BRANCH  25  26
ATOM     26  C   LIG    1       27.489 -26.725  14.397  0.00  0.00    +0.158 C 
BRANCH  26  27
ATOM     27  O   LIG    1       28.850 -26.454  14.771  0.00  0.00    -0.388 OA
ATOM     28  H   LIG    1       29.186 -27.218  15.277  0.00  0.00    +0.210 HD
ENDBRANCH  26  27
BRANCH  26  29
ATOM     29  C   LIG    1       26.815 -25.360  14.203  0.00  0.00    +0.188 C 
BRANCH  29  30
ATOM     30  O   LIG    1       26.327 -25.200  12.875  0.00  0.00    -0.392 OA
ATOM     31  H   LIG    1       25.354 -25.220  12.915  0.00  0.00    +0.209 HD
ENDBRANCH  29  30
ENDBRANCH  26  29
ENDBRANCH  25  26
ENDBRANCH  23  25
ENDBRANCH   1  23
BRANCH   7  32
ATOM     32  C   LIG    1       22.253 -30.402  14.005  0.00  0.00    +0.246 C 
ATOM     33  N   LIG    1       21.316 -29.484  13.558  0.00  0.00    -0.309 N 
ATOM     34  H   LIG    1       20.522 -29.427  14.187  0.00  0.00    +0.149 HD
ATOM     35  O   LIG    1       22.031 -31.105  14.954  0.00  0.00    -0.270 OA
BRANCH  33  36
ATOM     36  C   LIG    1       21.397 -28.492  12.502  0.00  0.00    +0.138 C 
BRANCH  36  37
ATOM     37  C   LIG    1       20.904 -27.096  12.886  0.00  0.00    +0.157 C 
BRANCH  37  38
ATOM     38  O   LIG    1       22.065 -26.325  13.221  0.00  0.00    -0.388 OA
ATOM     39  H   LIG    1       22.594 -26.221  12.411  0.00  0.00    +0.210 HD
ENDBRANCH  37  38
BRANCH  37  40
ATOM     40  C   LIG    1       19.934 -27.151  14.071  0.00  0.00    +0.188 C 
BRANCH  40  41
ATOM     41  O   LIG    1       18.594 -26.939  13.626  0.00  0.00    -0.392 OA
ATOM     42  H   LIG    1       18.168 -27.810  13.542  0.00  0.00    +0.209 HD
ENDBRANCH  40  41
ENDBRANCH  37  40
ENDBRANCH  36  37
ENDBRANCH  33  36
ENDBRANCH   7  32
TORSDOF 18
ENDMDL
MODEL 5
REMARK VINA RESULT:      -5.2      1.472      5.818
REMARK  Name = *****
REMARK                            x       y       z     vdW  Elec       q    Type
REMARK                         _______ _______ _______ _____ _____    ______ ____
ROOT
ATOM      1  C   LIG    1       24.753 -30.594   9.893  0.00  0.00    +0.064 A 
ATOM      2  C   LIG    1       25.230 -29.744  10.917  0.00  0.00    +0.049 A 
ATOM      3  I   LIG    1       27.374 -29.673  11.170  0.00  0.00    -0.041 I 
ATOM      4  C   LIG    1       24.448 -29.423  12.047  0.00  0.00    +0.065 A 
ATOM      5  C   LIG    1       23.227 -30.087  12.224  0.00  0.00    +0.040 A 
ATOM      6  I   LIG    1       21.719 -29.287  13.472  0.00  0.00    -0.042 I 
ATOM      7  C   LIG    1       22.983 -31.236  11.448  0.00  0.00    +0.065 A 
ATOM      8  C   LIG    1       23.694 -31.460  10.246  0.00  0.00    +0.049 A 
ATOM      9  I   LIG    1       23.107 -33.167   9.039  0.00  0.00    -0.041 I 
ENDROOT
BRANCH   4  10
ATOM     10  C   LIG    1       24.850 -28.268  12.869  0.00  0.00    +0.246 C 
ATOM     11  N   LIG    1       25.624 -28.484  13.979  0.00  0.00    -0.309 N 
ATOM     12  H   LIG    1       26.248 -29.281  13.929  0.00  0.00    +0.149 HD
ATOM     13  O   LIG    1       24.531 -27.134  12.459  0.00  0.00    -0.270 OA
BRANCH  11  14
ATOM     14  C   LIG    1       26.170 -27.344  14.726  0.00  0.00    +0.138 C 
BRANCH  14  15
ATOM     15  C   LIG    1       27.412 -26.792  14.010  0.00  0.00    +0.157 C 
BRANCH  15  16
ATOM     16  O   LIG    1       28.591 -27.159  14.746  0.00  0.00    -0.388 OA
ATOM     17  H   LIG    1       29.111 -26.351  14.906  0.00  0.00    +0.210 HD
ENDBRANCH  15  16
BRANCH  15  18
ATOM     18  C   LIG    1       27.355 -25.274  13.831  0.00  0.00    +0.188 C 
BRANCH  18  19
ATOM     19  O   LIG    1       26.156 -24.854  13.202  0.00  0.00    -0.392 OA
ATOM     20  H   LIG    1       25.409 -25.225  13.706  0.00  0.00    +0.209 HD
ENDBRANCH  18  19
ENDBRANCH  15  18
ENDBRANCH  14  15
ENDBRANCH  11  14
ENDBRANCH   4  10
BRANCH   1  23
ATOM     21  C   LIG    1       25.955 -31.446   6.392  0.00  0.00    +0.110 C 
ATOM     22  C   LIG    1       26.027 -31.291   7.902  0.00  0.00    +0.217 C 
ATOM     23  N   LIG    1       25.157 -30.384   8.508  0.00  0.00    -0.267 N 
ATOM     24  O   LIG    1       26.778 -32.020   8.552  0.00  0.00    -0.276 OA
BRANCH  23  25
ATOM     25  C   LIG    1       24.344 -29.438   7.703  0.00  0.00    +0.147 C 
BRANCH  25  26
ATOM     26  C   LIG    1       25.048 -28.122   7.292  0.00  0.00    +0.158 C 
BRANCH  26  27
ATOM     27  O   LIG    1       26.336 -28.063   7.928  0.00  0.00    -0.388 OA
ATOM     28  H   LIG    1       26.621 -28.976   8.124  0.00  0.00    +0.210 HD
ENDBRANCH  26  27
BRANCH  26  29
ATOM     29  C   LIG    1       25.299 -27.915   5.792  0.00  0.00    +0.188 C 
BRANCH  29  30
ATOM     30  O   LIG    1       26.618 -27.441   5.541  0.00  0.00    -0.392 OA
ATOM     31  H   LIG    1       26.841 -26.806   6.244  0.00  0.00    +0.209 HD
ENDBRANCH  29  30
ENDBRANCH  26  29
ENDBRANCH  25  26
ENDBRANCH  23  25
ENDBRANCH   1  23
BRANCH   7  32
ATOM     32  C   LIG    1       22.002 -32.248  11.916  0.00  0.00    +0.246 C 
ATOM     33  N   LIG    1       20.710 -32.166  11.423  0.00  0.00    -0.309 N 
ATOM     34  H   LIG    1       20.086 -32.806  11.904  0.00  0.00    +0.149 HD
ATOM     35  O   LIG    1       22.308 -33.085  12.722  0.00  0.00    -0.270 OA
BRANCH  33  36
ATOM     36  C   LIG    1       20.103 -31.205  10.521  0.00  0.00    +0.138 C 
BRANCH  36  37
ATOM     37  C   LIG    1       18.637 -31.474  10.179  0.00  0.00    +0.157 C 
BRANCH  37  38
ATOM     38  O   LIG    1       18.199 -30.389   9.351  0.00  0.00    -0.388 OA
ATOM     39  H   LIG    1       18.058 -30.741   8.454  0.00  0.00    +0.210 HD
ENDBRANCH  37  38
BRANCH  37  40
ATOM     40  C   LIG    1       17.775 -31.569  11.442  0.00  0.00    +0.188 C 
BRANCH  40  41
ATOM     41  O   LIG    1       18.189 -30.594  12.399  0.00  0.00    -0.392 OA
ATOM     42  H   LIG    1       18.949 -30.959  12.885  0.00  0.00    +0.209 HD
ENDBRANCH  40  41
ENDBRANCH  37  40
ENDBRANCH  36  37
ENDBRANCH  33  36
ENDBRANCH   7  32
TORSDOF 18
ENDMDL
MODEL 6
REMARK VINA RESULT:      -5.0      2.462      6.254
REMARK  Name = *****
REMARK                            x       y       z     vdW  Elec       q    Type
REMARK                         _______ _______ _______ _____ _____    ______ ____
ROOT
ATOM      1  C   LIG    1       22.393 -30.822  12.462  0.00  0.00    +0.064 A 
ATOM      2  C   LIG    1       23.179 -31.740  11.730  0.00  0.00    +0.049 A 
ATOM      3  I   LIG    1       22.928 -33.825  12.241  0.00  0.00    -0.041 I 
ATOM      4  C   LIG    1       24.415 -31.374  11.154  0.00  0.00    +0.065 A 
ATOM      5  C   LIG    1       24.938 -30.108  11.448  0.00  0.00    +0.040 A 
ATOM      6  I   LIG    1       26.400 -29.216  10.208  0.00  0.00    -0.042 I 
ATOM      7  C   LIG    1       24.371 -29.392  12.520  0.00  0.00    +0.065 A 
ATOM      8  C   LIG    1       23.072 -29.699  12.987  0.00  0.00    +0.049 A 
ATOM      9  I   LIG    1       22.228 -28.414  14.519  0.00  0.00    -0.041 I 
ENDROOT
BRANCH   4  10
ATOM     10  C   LIG    1       24.990 -32.250  10.119  0.00  0.00    +0.246 C 
ATOM     11  N   LIG    1       24.417 -32.268   8.875  0.00  0.00    -0.309 N 
ATOM     12  H   LIG    1       23.974 -31.403   8.584  0.00  0.00    +0.149 HD
ATOM     13  O   LIG    1       26.032 -32.871  10.408  0.00  0.00    -0.270 OA
BRANCH  11  14
ATOM     14  C   LIG    1       25.059 -33.007   7.780  0.00  0.00    +0.138 C 
BRANCH  14  15
ATOM     15  C   LIG    1       25.546 -32.029   6.700  0.00  0.00    +0.157 C 
BRANCH  15  16
ATOM     16  O   LIG    1       26.862 -31.561   7.037  0.00  0.00    -0.388 OA
ATOM     17  H   LIG    1       26.962 -31.610   8.005  0.00  0.00    +0.210 HD
ENDBRANCH  15  16
BRANCH  15  18
ATOM     18  C   LIG    1       24.597 -30.843   6.517  0.00  0.00    +0.188 C 
BRANCH  18  19
ATOM     19  O   LIG    1       23.364 -31.230   5.932  0.00  0.00    -0.392 OA
ATOM     20  H   LIG    1       23.155 -30.592   5.225  0.00  0.00    +0.209 HD
ENDBRANCH  18  19
ENDBRANCH  15  18
ENDBRANCH  14  15
ENDBRANCH  11  14
ENDBRANCH   4  10
BRANCH   1  23
ATOM     21  C   LIG    1       18.822 -30.765  13.758  0.00  0.00    +0.110 C 
ATOM     22  C   LIG    1       20.249 -31.262  13.596  0.00  0.00    +0.217 C 
ATOM     23  N   LIG    1       20.937 -30.908  12.435  0.00  0.00    -0.267 N 
ATOM     24  O   LIG    1       20.784 -31.881  14.518  0.00  0.00    -0.276 OA
BRANCH  23  25
ATOM     25  C   LIG    1       20.243 -30.261  11.293  0.00  0.00    +0.147 C 
BRANCH  25  26
ATOM     26  C   LIG    1       19.620 -31.221  10.250  0.00  0.00    +0.158 C 
BRANCH  26  27
ATOM     27  O   LIG    1       20.048 -32.563  10.536  0.00  0.00    -0.388 OA
ATOM     28  H   LIG    1       19.554 -32.880  11.317  0.00  0.00    +0.210 HD
ENDBRANCH  26  27
BRANCH  26  29
ATOM     29  C   LIG    1       18.087 -31.262  10.183  0.00  0.00    +0.188 C 
BRANCH  29  30
ATOM     30  O   LIG    1       17.580 -30.348   9.215  0.00  0.00    -0.392 OA
ATOM     31  H   LIG    1       16.914 -29.792   9.657  0.00  0.00    +0.209 HD
ENDBRANCH  29  30
ENDBRANCH  26  29
ENDBRANCH  25  26
ENDBRANCH  23  25
ENDBRANCH   1  23
BRANCH   7  32
ATOM     32  C   LIG    1       25.160 -28.334  13.200  0.00  0.00    +0.246 C 
ATOM     33  N   LIG    1       25.869 -28.693  14.336  0.00  0.00    -0.309 N 
ATOM     34  H   LIG    1       26.257 -27.880  14.805  0.00  0.00    +0.149 HD
ATOM     35  O   LIG    1       25.156 -27.200  12.803  0.00  0.00    -0.270 OA
BRANCH  33  36
ATOM     36  C   LIG    1       25.953 -29.962  15.035  0.00  0.00    +0.138 C 
BRANCH  36  37
ATOM     37  C   LIG    1       27.262 -30.727  14.832  0.00  0.00    +0.157 C 
BRANCH  37  38
ATOM     38  O   LIG    1       27.785 -30.321  13.560  0.00  0.00    -0.388 OA
ATOM     39  H   LIG    1       27.352 -30.863  12.877  0.00  0.00    +0.210 HD
ENDBRANCH  37  38
BRANCH  37  40
ATOM     40  C   LIG    1       27.037 -32.242  14.864  0.00  0.00    +0.188 C 
BRANCH  40  41
ATOM     41  O   LIG    1       26.391 -32.672  13.666  0.00  0.00    -0.392 OA
ATOM     42  H   LIG    1       26.996 -33.276  13.203  0.00  0.00    +0.209 HD
ENDBRANCH  40  41
ENDBRANCH  37  40
ENDBRANCH  36  37
ENDBRANCH  33  36
ENDBRANCH   7  32
TORSDOF 18
ENDMDL
MODEL 7
REMARK VINA RESULT:      -4.8      2.606      5.877
REMARK  Name = *****
REMARK                            x       y       z     vdW  Elec       q    Type
REMARK                         _______ _______ _______ _____ _____    ______ ____
ROOT
ATOM      1  C   LIG    1       24.024 -31.069  11.965  0.00  0.00    +0.064 A 
ATOM      2  C   LIG    1       24.857 -30.687  10.890  0.00  0.00    +0.049 A 
ATOM      3  I   LIG    1       25.477 -32.270   9.557  0.00  0.00    -0.041 I 
ATOM      4  C   LIG    1       25.696 -29.553  10.960  0.00  0.00    +0.065 A 
ATOM      5  C   LIG    1       25.811 -28.885  12.186  0.00  0.00    +0.040 A 
ATOM      6  I   LIG    1       26.501 -26.888  12.280  0.00  0.00    -0.042 I 
ATOM      7  C   LIG    1       25.336 -29.536  13.340  0.00  0.00    +0.065 A 
ATOM      8  C   LIG    1       24.390 -30.583  13.241  0.00  0.00    +0.049 A 
ATOM      9  I   LIG    1       23.590 -31.389  15.091  0.00  0.00    -0.041 I 
ENDROOT
BRANCH   4  10
ATOM     10  C   LIG    1       26.243 -29.010   9.705  0.00  0.00    +0.246 C 
ATOM     11  N   LIG    1       25.376 -28.591   8.732  0.00  0.00    -0.309 N 
ATOM     12  H   LIG    1       24.485 -28.238   9.062  0.00  0.00    +0.149 HD
ATOM     13  O   LIG    1       27.482 -28.880   9.630  0.00  0.00    -0.270 OA
BRANCH  11  14
ATOM     14  C   LIG    1       25.886 -27.902   7.540  0.00  0.00    +0.138 C 
BRANCH  14  15
ATOM     15  C   LIG    1       24.989 -28.209   6.330  0.00  0.00    +0.157 C 
BRANCH  15  16
ATOM     16  O   LIG    1       23.952 -27.218   6.241  0.00  0.00    -0.388 OA
ATOM     17  H   LIG    1       24.237 -26.436   6.745  0.00  0.00    +0.210 HD
ENDBRANCH  15  16
BRANCH  15  18
ATOM     18  C   LIG    1       24.375 -29.609   6.400  0.00  0.00    +0.188 C 
BRANCH  18  19
ATOM     19  O   LIG    1       23.196 -29.715   5.619  0.00  0.00    -0.392 OA
ATOM     20  H   LIG    1       22.482 -29.249   6.090  0.00  0.00    +0.209 HD
ENDBRANCH  18  19
ENDBRANCH  15  18
ENDBRANCH  14  15
ENDBRANCH  11  14
ENDBRANCH   4  10
BRANCH   1  23
ATOM     21  C   LIG    1       21.130 -33.494  12.387  0.00  0.00    +0.110 C 
ATOM     22  C   LIG    1       22.543 -33.037  12.063  0.00  0.00    +0.217 C 
ATOM     23  N   LIG    1       22.733 -31.699  11.715  0.00  0.00    -0.267 N 
ATOM     24  O   LIG    1       23.481 -33.824  12.198  0.00  0.00    -0.276 OA
BRANCH  23  25
ATOM     25  C   LIG    1       21.582 -30.799  11.449  0.00  0.00    +0.147 C 
BRANCH  25  26
ATOM     26  C   LIG    1       21.189 -29.846  12.605  0.00  0.00    +0.158 C 
BRANCH  26  27
ATOM     27  O   LIG    1       20.804 -28.577  12.052  0.00  0.00    -0.388 OA
ATOM     28  H   LIG    1       21.368 -27.886  12.451  0.00  0.00    +0.210 HD
ENDBRANCH  26  27
BRANCH  26  29
ATOM     29  C   LIG    1       20.028 -30.297  13.502  0.00  0.00    +0.188 C 
BRANCH  29  30
ATOM     30  O   LIG    1       18.772 -29.860  12.992  0.00  0.00    -0.392 OA
ATOM     31  H   LIG    1       18.747 -30.081  12.044  0.00  0.00    +0.209 HD
ENDBRANCH  29  30
ENDBRANCH  26  29
ENDBRANCH  25  26
ENDBRANCH  23  25
ENDBRANCH   1  23
BRANCH   7  32
ATOM     32  C   LIG    1       25.864 -29.153  14.674  0.00  0.00    +0.246 C 
ATOM     33  N   LIG    1       27.182 -29.473  14.958  0.00  0.00    -0.309 N 
ATOM     34  H   LIG    1       27.405 -29.300  15.934  0.00  0.00    +0.149 HD
ATOM     35  O   LIG    1       25.164 -28.619  15.492  0.00  0.00    -0.270 OA
BRANCH  33  36
ATOM     36  C   LIG    1       28.173 -30.180  14.168  0.00  0.00    +0.138 C 
BRANCH  36  37
ATOM     37  C   LIG    1       29.571 -29.559  14.177  0.00  0.00    +0.157 C 
BRANCH  37  38
ATOM     38  O   LIG    1       29.406 -28.175  14.512  0.00  0.00    -0.388 OA
ATOM     39  H   LIG    1       28.463 -27.956  14.407  0.00  0.00    +0.210 HD
ENDBRANCH  37  38
BRANCH  37  40
ATOM     40  C   LIG    1       30.258 -29.705  12.816  0.00  0.00    +0.188 C 
BRANCH  40  41
ATOM     41  O   LIG    1       29.401 -29.238  11.774  0.00  0.00    -0.392 OA
ATOM     42  H   LIG    1       29.928 -28.666  11.191  0.00  0.00    +0.209 HD
ENDBRANCH  40  41
ENDBRANCH  37  40
ENDBRANCH  36  37
ENDBRANCH  33  36
ENDBRANCH   7  32
TORSDOF 18
ENDMDL
MODEL 8
REMARK VINA RESULT:      -4.7      1.751      2.091
REMARK  Name = *****
REMARK                            x       y       z     vdW  Elec       q    Type
REMARK                         _______ _______ _______ _____ _____    ______ ____
ROOT
ATOM      1  C   LIG    1       23.586 -31.140  12.028  0.00  0.00    +0.064 A 
ATOM      2  C   LIG    1       23.818 -29.853  12.563  0.00  0.00    +0.049 A 
ATOM      3  I   LIG    1       22.075 -28.604  12.828  0.00  0.00    -0.041 I 
ATOM      4  C   LIG    1       25.054 -29.189  12.404  0.00  0.00    +0.065 A 
ATOM      5  C   LIG    1       26.017 -29.765  11.565  0.00  0.00    +0.040 A 
ATOM      6  I   LIG    1       28.059 -29.238  11.723  0.00  0.00    -0.042 I 
ATOM      7  C   LIG    1       25.606 -30.797  10.700  0.00  0.00    +0.065 A 
ATOM      8  C   LIG    1       24.428 -31.534  10.963  0.00  0.00    +0.049 A 
ATOM      9  I   LIG    1       23.990 -33.219   9.667  0.00  0.00    -0.041 I 
ENDROOT
BRANCH   4  10
ATOM     10  C   LIG    1       25.348 -28.041  13.280  0.00  0.00    +0.246 C 
ATOM     11  N   LIG    1       25.726 -28.277  14.575  0.00  0.00    -0.309 N 
ATOM     12  H   LIG    1       26.224 -29.146  14.734  0.00  0.00    +0.149 HD
ATOM     13  O   LIG    1       25.320 -26.906  12.764  0.00  0.00    -0.270 OA
BRANCH  11  14
ATOM     14  C   LIG    1       26.177 -27.167  15.423  0.00  0.00    +0.138 C 
BRANCH  14  15
ATOM     15  C   LIG    1       27.700 -26.998  15.303  0.00  0.00    +0.157 C 
BRANCH  15  16
ATOM     16  O   LIG    1       28.008 -26.290  14.090  0.00  0.00    -0.388 OA
ATOM     17  H   LIG    1       27.980 -26.926  13.354  0.00  0.00    +0.210 HD
ENDBRANCH  15  16
BRANCH  15  18
ATOM     18  C   LIG    1       28.439 -28.337  15.333  0.00  0.00    +0.188 C 
BRANCH  18  19
ATOM     19  O   LIG    1       29.783 -28.216  14.896  0.00  0.00    -0.392 OA
ATOM     20  H   LIG    1       30.362 -28.403  15.657  0.00  0.00    +0.209 HD
ENDBRANCH  18  19
ENDBRANCH  15  18
ENDBRANCH  14  15
ENDBRANCH  11  14
ENDBRANCH   4  10
BRANCH   1  23
ATOM     21  C   LIG    1       21.615 -32.703  14.875  0.00  0.00    +0.110 C 
ATOM     22  C   LIG    1       22.841 -32.255  14.096  0.00  0.00    +0.217 C 
ATOM     23  N   LIG    1       22.711 -32.082  12.718  0.00  0.00    -0.267 N 
ATOM     24  O   LIG    1       23.877 -31.977  14.702  0.00  0.00    -0.276 OA
BRANCH  23  25
ATOM     25  C   LIG    1       21.494 -32.528  11.994  0.00  0.00    +0.147 C 
BRANCH  25  26
ATOM     26  C   LIG    1       20.552 -31.403  11.500  0.00  0.00    +0.158 C 
BRANCH  26  27
ATOM     27  O   LIG    1       20.729 -31.234  10.083  0.00  0.00    -0.388 OA
ATOM     28  H   LIG    1       21.052 -30.327   9.921  0.00  0.00    +0.210 HD
ENDBRANCH  26  27
BRANCH  26  29
ATOM     29  C   LIG    1       19.049 -31.617  11.724  0.00  0.00    +0.188 C 
BRANCH  29  30
ATOM     30  O   LIG    1       18.268 -30.832  10.829  0.00  0.00    -0.392 OA
ATOM     31  H   LIG    1       17.341 -30.881  11.126  0.00  0.00    +0.209 HD
ENDBRANCH  29  30
ENDBRANCH  26  29
ENDBRANCH  25  26
ENDBRANCH  23  25
ENDBRANCH   1  23
BRANCH   7  32
ATOM     32  C   LIG    1       26.390 -31.088   9.473  0.00  0.00    +0.246 C 
ATOM     33  N   LIG    1       26.106 -30.344   8.339  0.00  0.00    -0.309 N 
ATOM     34  H   LIG    1       26.589 -30.709   7.524  0.00  0.00    +0.149 HD
ATOM     35  O   LIG    1       27.215 -31.962   9.453  0.00  0.00    -0.270 OA
BRANCH  33  36
ATOM     36  C   LIG    1       25.110 -29.313   8.111  0.00  0.00    +0.138 C 
BRANCH  36  37
ATOM     37  C   LIG    1       24.880 -28.949   6.643  0.00  0.00    +0.157 C 
BRANCH  37  38
ATOM     38  O   LIG    1       25.773 -29.761   5.871  0.00  0.00    -0.388 OA
ATOM     39  H   LIG    1       25.251 -30.193   5.172  0.00  0.00    +0.210 HD
ENDBRANCH  37  38
BRANCH  37  40
ATOM     40  C   LIG    1       25.145 -27.462   6.386  0.00  0.00    +0.188 C 
BRANCH  40  41
ATOM     41  O   LIG    1       26.520 -27.156   6.616  0.00  0.00    -0.392 OA
ATOM     42  H   LIG    1       26.849 -27.765   7.300  0.00  0.00    +0.209 HD
ENDBRANCH  40  41
ENDBRANCH  37  40
ENDBRANCH  36  37
ENDBRANCH  33  36
ENDBRANCH   7  32
TORSDOF 18
ENDMDL
MODEL 9
REMARK VINA RESULT:      -4.5      3.285      5.726
REMARK  Name = *****
REMARK                            x       y       z     vdW  Elec       q    Type
REMARK                         _______ _______ _______ _____ _____    ______ ____
ROOT
ATOM      1  C   LIG    1       24.141 -30.451  11.605  0.00  0.00    +0.064 A 
ATOM      2  C   LIG    1       23.120 -29.927  12.430  0.00  0.00    +0.049 A 
ATOM      3  I   LIG    1       21.149 -29.820  11.552  0.00  0.00    -0.041 I 
ATOM      4  C   LIG    1       23.398 -29.021  13.477  0.00  0.00    +0.065 A 
ATOM      5  C   LIG    1       24.700 -28.520  13.597  0.00  0.00    +0.040 A 
ATOM      6  I   LIG    1       25.386 -27.689  15.417  0.00  0.00    -0.042 I 
ATOM      7  C   LIG    1       25.580 -28.701  12.514  0.00  0.00    +0.065 A 
ATOM      8  C   LIG    1       25.342 -29.710  11.551  0.00  0.00    +0.049 A 
ATOM      9  I   LIG    1       26.859 -30.018  10.029  0.00  0.00    -0.041 I 
ENDROOT
BRANCH   4  10
ATOM     10  C   LIG    1       22.366 -28.808  14.507  0.00  0.00    +0.246 C 
ATOM     11  N   LIG    1       21.754 -27.585  14.587  0.00  0.00    -0.309 N 
ATOM     12  H   LIG    1       21.676 -27.076  13.713  0.00  0.00    +0.149 HD
ATOM     13  O   LIG    1       22.040 -29.790  15.203  0.00  0.00    -0.270 OA
BRANCH  11  14
ATOM     14  C   LIG    1       20.616 -27.390  15.494  0.00  0.00    +0.138 C 
BRANCH  14  15
ATOM     15  C   LIG    1       19.302 -27.400  14.699  0.00  0.00    +0.157 C 
BRANCH  15  16
ATOM     16  O   LIG    1       18.600 -26.166  14.921  0.00  0.00    -0.388 OA
ATOM     17  H   LIG    1       17.797 -26.171  14.371  0.00  0.00    +0.210 HD
ENDBRANCH  15  16
BRANCH  15  18
ATOM     18  C   LIG    1       18.408 -28.587  15.064  0.00  0.00    +0.188 C 
BRANCH  18  19
ATOM     19  O   LIG    1       19.004 -29.828  14.726  0.00  0.00    -0.392 OA
ATOM     20  H   LIG    1       18.584 -30.519  15.270  0.00  0.00    +0.209 HD
ENDBRANCH  18  19
ENDBRANCH  15  18
ENDBRANCH  14  15
ENDBRANCH  11  14
ENDBRANCH   4  10
BRANCH   1  23
ATOM     21  C   LIG    1       24.160 -33.247   9.033  0.00  0.00    +0.110 C 
ATOM     22  C   LIG    1       23.680 -31.986   9.732  0.00  0.00    +0.217 C 
ATOM     23  N   LIG    1       24.037 -31.804  11.068  0.00  0.00    -0.267 N 
ATOM     24  O   LIG    1       23.072 -31.129   9.088  0.00  0.00    -0.276 OA
BRANCH  23  25
ATOM     25  C   LIG    1       24.670 -32.893  11.854  0.00  0.00    +0.147 C 
BRANCH  25  26
ATOM     26  C   LIG    1       23.832 -33.451  13.030  0.00  0.00    +0.158 C 
BRANCH  26  27
ATOM     27  O   LIG    1       24.162 -32.724  14.226  0.00  0.00    -0.388 OA
ATOM     28  H   LIG    1       24.736 -33.288  14.778  0.00  0.00    +0.210 HD
ENDBRANCH  26  27
BRANCH  26  29
ATOM     29  C   LIG    1       22.306 -33.373  12.885  0.00  0.00    +0.188 C 
BRANCH  29  30
ATOM     30  O   LIG    1       21.709 -32.688  13.982  0.00  0.00    -0.392 OA
ATOM     31  H   LIG    1       20.933 -32.207  13.642  0.00  0.00    +0.209 HD
ENDBRANCH  29  30
ENDBRANCH  26  29
ENDBRANCH  25  26
ENDBRANCH  23  25
ENDBRANCH   1  23
BRANCH   7  32
ATOM     32  C   LIG    1       26.745 -27.795  12.349  0.00  0.00    +0.246 C 
ATOM     33  N   LIG    1       27.966 -28.223  12.844  0.00  0.00    -0.309 N 
ATOM     34  H   LIG    1       28.661 -27.484  12.811  0.00  0.00    +0.149 HD
ATOM     35  O   LIG    1       26.626 -26.713  11.839  0.00  0.00    -0.270 OA
BRANCH  33  36
ATOM     36  C   LIG    1       28.321 -29.434  13.561  0.00  0.00    +0.138 C 
BRANCH  36  37
ATOM     37  C   LIG    1       29.717 -29.429  14.186  0.00  0.00    +0.157 C 
BRANCH  37  38
ATOM     38  O   LIG    1       29.906 -28.132  14.765  0.00  0.00    -0.388 OA
ATOM     39  H   LIG    1       29.029 -27.720  14.860  0.00  0.00    +0.210 HD
ENDBRANCH  37  38
BRANCH  37  40
ATOM     40  C   LIG    1       30.801 -29.716  13.141  0.00  0.00    +0.188 C 
BRANCH  40  41
ATOM     41  O   LIG    1       30.354 -29.323  11.844  0.00  0.00    -0.392 OA
ATOM     42  H   LIG    1       30.136 -30.131  11.348  0.00  0.00    +0.209 HD
ENDBRANCH  40  41
ENDBRANCH  37  40
ENDBRANCH  36  37
ENDBRANCH  33  36
ENDBRANCH   7  32
TORSDOF 18
ENDMDL
