MODEL 1
REMARK VINA RESULT:      -6.0      0.000      0.000
REMARK  Name = *****
REMARK                            x       y       z     vdW  Elec       q    Type
REMARK                         _______ _______ _______ _____ _____    ______ ____
ROOT
ATOM      1  C   LIG    1       23.352 -21.547   7.061  0.00  0.00    +0.027 C 
ATOM      2  C   LIG    1       23.278 -20.964   5.652  0.00  0.00    +0.084 C 
ATOM      3  C   LIG    1       24.603 -21.130   4.831  0.00  0.00    +0.165 C 
ATOM      4  O   LIG    1       24.447 -20.556   3.513  0.00  0.00    -0.369 OA
ATOM      5  C   LIG    1       23.994 -19.198   3.563  0.00  0.00    +0.176 C 
ATOM      6  C   LIG    1       22.659 -19.076   4.309  0.00  0.00    +0.109 C 
ATOM      7  N   LIG    1       22.731 -19.586   5.688  0.00  0.00    -0.309 NA
ATOM      8  H   LIG    1       23.353 -18.988   6.224  0.00  0.00    +0.122 HD
ENDROOT
BRANCH   3   9
ATOM      9  C   LIG    1       25.954 -20.711   5.393  0.00  0.00    -0.017 A 
ATOM     10  C   LIG    1       26.460 -21.435   6.490  0.00  0.00    +0.006 A 
ATOM     11  C   LIG    1       27.696 -21.125   7.060  0.00  0.00    +0.000 A 
ATOM     12  C   LIG    1       28.459 -20.086   6.537  0.00  0.00    +0.000 A 
ATOM     13  C   LIG    1       27.986 -19.367   5.443  0.00  0.00    +0.000 A 
ATOM     14  C   LIG    1       26.748 -19.680   4.873  0.00  0.00    +0.006 A 
ENDBRANCH   3   9
TORSDOF 1
ENDMDL
MODEL 2
REMARK VINA RESULT:      -5.9      0.149      1.341
REMARK  Name = *****
REMARK                            x       y       z     vdW  Elec       q    Type
REMARK                         _______ _______ _______ _____ _____    ______ ____
ROOT
ATOM      1  C   LIG    1       23.158 -21.380   7.061  0.00  0.00    +0.027 C 
ATOM      2  C   LIG    1       23.167 -20.831   5.636  0.00  0.00    +0.084 C 
ATOM      3  C   LIG    1       24.500 -21.113   4.861  0.00  0.00    +0.165 C 
ATOM      4  O   LIG    1       24.425 -20.566   3.525  0.00  0.00    -0.369 OA
ATOM      5  C   LIG    1       24.070 -19.178   3.527  0.00  0.00    +0.176 C 
ATOM      6  C   LIG    1       22.726 -18.940   4.228  0.00  0.00    +0.109 C 
ATOM      7  N   LIG    1       22.720 -19.417   5.621  0.00  0.00    -0.309 NA
ATOM      8  H   LIG    1       23.368 -18.851   6.161  0.00  0.00    +0.122 HD
ENDROOT
BRANCH   3   9
ATOM      9  C   LIG    1       25.861 -20.777   5.454  0.00  0.00    -0.017 A 
ATOM     10  C   LIG    1       26.591 -19.725   4.865  0.00  0.00    +0.006 A 
ATOM     11  C   LIG    1       27.842 -19.344   5.353  0.00  0.00    +0.000 A 
ATOM     12  C   LIG    1       28.387 -20.003   6.450  0.00  0.00    +0.000 A 
ATOM     13  C   LIG    1       27.677 -21.033   7.059  0.00  0.00    +0.000 A 
ATOM     14  C   LIG    1       26.423 -21.414   6.568  0.00  0.00    +0.006 A 
ENDBRANCH   3   9
TORSDOF 1
ENDMDL
MODEL 3
REMARK VINA RESULT:      -4.9      6.447      8.407
REMARK  Name = *****
REMARK                            x       y       z     vdW  Elec       q    Type
REMARK                         _______ _______ _______ _____ _____    ______ ____
ROOT
ATOM      1  C   LIG    1       28.727 -12.579   4.025  0.00  0.00    +0.027 C 
ATOM      2  C   LIG    1       28.180 -13.909   3.512  0.00  0.00    +0.084 C 
ATOM      3  C   LIG    1       26.881 -13.764   2.647  0.00  0.00    +0.165 C 
ATOM      4  O   LIG    1       26.432 -15.064   2.199  0.00  0.00    -0.369 OA
ATOM      5  C   LIG    1       26.272 -15.985   3.285  0.00  0.00    +0.176 C 
ATOM      6  C   LIG    1       27.579 -16.164   4.070  0.00  0.00    +0.109 C 
ATOM      7  N   LIG    1       28.091 -14.896   4.615  0.00  0.00    -0.309 NA
ATOM      8  H   LIG    1       27.440 -14.559   5.320  0.00  0.00    +0.122 HD
ENDROOT
BRANCH   3   9
ATOM      9  C   LIG    1       25.677 -12.968   3.132  0.00  0.00    -0.017 A 
ATOM     10  C   LIG    1       24.975 -12.198   2.183  0.00  0.00    +0.006 A 
ATOM     11  C   LIG    1       23.854 -11.447   2.540  0.00  0.00    +0.000 A 
ATOM     12  C   LIG    1       23.404 -11.458   3.857  0.00  0.00    +0.000 A 
ATOM     13  C   LIG    1       24.071 -12.225   4.807  0.00  0.00    +0.000 A 
ATOM     14  C   LIG    1       25.194 -12.977   4.447  0.00  0.00    +0.006 A 
ENDBRANCH   3   9
TORSDOF 1
ENDMDL
MODEL 4
REMARK VINA RESULT:      -4.0      6.878      8.675
REMARK  Name = *****
REMARK                            x       y       z     vdW  Elec       q    Type
REMARK                         _______ _______ _______ _____ _____    ______ ____
ROOT
ATOM      1  C   LIG    1       26.463 -15.771   3.311  0.00  0.00    +0.027 C 
ATOM      2  C   LIG    1       27.419 -14.793   3.991  0.00  0.00    +0.084 C 
ATOM      3  C   LIG    1       26.701 -13.743   4.906  0.00  0.00    +0.165 C 
ATOM      4  O   LIG    1       27.673 -12.861   5.512  0.00  0.00    -0.369 OA
ATOM      5  C   LIG    1       28.530 -12.251   4.539  0.00  0.00    +0.176 C 
ATOM      6  C   LIG    1       29.276 -13.301   3.706  0.00  0.00    +0.109 C 
ATOM      7  N   LIG    1       28.365 -14.219   3.003  0.00  0.00    -0.309 NA
ATOM      8  H   LIG    1       27.848 -13.692   2.305  0.00  0.00    +0.122 HD
ENDROOT
BRANCH   3   9
ATOM      9  C   LIG    1       25.526 -12.912   4.407  0.00  0.00    -0.017 A 
ATOM     10  C   LIG    1       25.290 -12.879   3.018  0.00  0.00    +0.006 A 
ATOM     11  C   LIG    1       24.229 -12.152   2.477  0.00  0.00    +0.000 A 
ATOM     12  C   LIG    1       23.373 -11.447   3.317  0.00  0.00    +0.000 A 
ATOM     13  C   LIG    1       23.577 -11.479   4.693  0.00  0.00    +0.000 A 
ATOM     14  C   LIG    1       24.640 -12.209   5.234  0.00  0.00    +0.006 A 
ENDBRANCH   3   9
TORSDOF 1
ENDMDL
MODEL 5
REMARK VINA RESULT:      -3.7      2.495      4.160
REMARK  Name = *****
REMARK                            x       y       z     vdW  Elec       q    Type
REMARK                         _______ _______ _______ _____ _____    ______ ____
ROOT
ATOM      1  C   LIG    1       26.547 -19.924   4.977  0.00  0.00    +0.027 C 
ATOM      2  C   LIG    1       25.058 -20.092   4.686  0.00  0.00    +0.084 C 
ATOM      3  C   LIG    1       24.511 -19.099   3.604  0.00  0.00    +0.165 C 
ATOM      4  O   LIG    1       23.100 -19.326   3.386  0.00  0.00    -0.369 OA
ATOM      5  C   LIG    1       22.350 -19.282   4.606  0.00  0.00    +0.176 C 
ATOM      6  C   LIG    1       22.859 -20.314   5.620  0.00  0.00    +0.109 C 
ATOM      7  N   LIG    1       24.282 -20.131   5.950  0.00  0.00    -0.309 NA
ATOM      8  H   LIG    1       24.390 -19.248   6.442  0.00  0.00    +0.122 HD
ENDROOT
BRANCH   3   9
ATOM      9  C   LIG    1       24.760 -17.600   3.691  0.00  0.00    -0.017 A 
ATOM     10  C   LIG    1       26.018 -17.119   3.275  0.00  0.00    +0.006 A 
ATOM     11  C   LIG    1       26.326 -15.758   3.311  0.00  0.00    +0.000 A 
ATOM     12  C   LIG    1       25.376 -14.845   3.757  0.00  0.00    +0.000 A 
ATOM     13  C   LIG    1       24.122 -15.295   4.156  0.00  0.00    +0.000 A 
ATOM     14  C   LIG    1       23.814 -16.659   4.119  0.00  0.00    +0.006 A 
ENDBRANCH   3   9
TORSDOF 1
ENDMDL
MODEL 6
REMARK VINA RESULT:      -3.7      4.809      6.662
REMARK  Name = *****
REMARK                            x       y       z     vdW  Elec       q    Type
REMARK                         _______ _______ _______ _____ _____    ______ ____
ROOT
ATOM      1  C   LIG    1       27.311 -15.336   3.713  0.00  0.00    +0.027 C 
ATOM      2  C   LIG    1       26.282 -14.228   3.500  0.00  0.00    +0.084 C 
ATOM      3  C   LIG    1       24.952 -14.441   4.301  0.00  0.00    +0.165 C 
ATOM      4  O   LIG    1       24.037 -13.351   4.048  0.00  0.00    -0.369 OA
ATOM      5  C   LIG    1       23.812 -13.146   2.648  0.00  0.00    +0.176 C 
ATOM      6  C   LIG    1       25.123 -12.867   1.901  0.00  0.00    +0.109 C 
ATOM      7  N   LIG    1       26.106 -13.953   2.054  0.00  0.00    -0.309 NA
ATOM      8  H   LIG    1       25.746 -14.784   1.592  0.00  0.00    +0.122 HD
ENDROOT
BRANCH   3   9
ATOM      9  C   LIG    1       24.182 -15.753   4.244  0.00  0.00    -0.017 A 
ATOM     10  C   LIG    1       22.853 -15.754   4.716  0.00  0.00    +0.006 A 
ATOM     11  C   LIG    1       22.072 -16.910   4.690  0.00  0.00    +0.000 A 
ATOM     12  C   LIG    1       22.600 -18.092   4.181  0.00  0.00    +0.000 A 
ATOM     13  C   LIG    1       23.904 -18.110   3.694  0.00  0.00    +0.000 A 
ATOM     14  C   LIG    1       24.686 -16.950   3.721  0.00  0.00    +0.006 A 
ENDBRANCH   3   9
TORSDOF 1
ENDMDL
MODEL 7
REMARK VINA RESULT:      -3.6      4.776      6.621
REMARK  Name = *****
REMARK                            x       y       z     vdW  Elec       q    Type
REMARK                         _______ _______ _______ _____ _____    ______ ____
ROOT
ATOM      1  C   LIG    1       27.239 -15.472   3.688  0.00  0.00    +0.027 C 
ATOM      2  C   LIG    1       26.261 -14.316   3.491  0.00  0.00    +0.084 C 
ATOM      3  C   LIG    1       24.932 -14.469   4.307  0.00  0.00    +0.165 C 
ATOM      4  O   LIG    1       24.067 -13.335   4.068  0.00  0.00    -0.369 OA
ATOM      5  C   LIG    1       23.836 -13.115   2.672  0.00  0.00    +0.176 C 
ATOM      6  C   LIG    1       25.150 -12.895   1.910  0.00  0.00    +0.109 C 
ATOM      7  N   LIG    1       26.081 -14.027   2.048  0.00  0.00    -0.309 NA
ATOM      8  H   LIG    1       25.678 -14.838   1.588  0.00  0.00    +0.122 HD
ENDROOT
BRANCH   3   9
ATOM      9  C   LIG    1       24.099 -15.742   4.255  0.00  0.00    -0.017 A 
ATOM     10  C   LIG    1       24.718 -16.910   3.764  0.00  0.00    +0.006 A 
ATOM     11  C   LIG    1       24.030 -18.123   3.692  0.00  0.00    +0.000 A 
ATOM     12  C   LIG    1       22.708 -18.196   4.119  0.00  0.00    +0.000 A 
ATOM     13  C   LIG    1       22.083 -17.060   4.622  0.00  0.00    +0.000 A 
ATOM     14  C   LIG    1       22.773 -15.845   4.694  0.00  0.00    +0.006 A 
ENDBRANCH   3   9
TORSDOF 1
ENDMDL
MODEL 8
REMARK VINA RESULT:      -3.5      2.384      4.057
REMARK  Name = *****
REMARK                            x       y       z     vdW  Elec       q    Type
REMARK                         _______ _______ _______ _____ _____    ______ ____
ROOT
ATOM      1  C   LIG    1       26.713 -19.954   5.163  0.00  0.00    +0.027 C 
ATOM      2  C   LIG    1       25.252 -20.205   4.797  0.00  0.00    +0.084 C 
ATOM      3  C   LIG    1       24.729 -19.295   3.633  0.00  0.00    +0.165 C 
ATOM      4  O   LIG    1       23.344 -19.597   3.348  0.00  0.00    -0.369 OA
ATOM      5  C   LIG    1       22.522 -19.525   4.518  0.00  0.00    +0.176 C 
ATOM      6  C   LIG    1       23.014 -20.479   5.614  0.00  0.00    +0.109 C 
ATOM      7  N   LIG    1       24.406 -20.214   6.014  0.00  0.00    -0.309 NA
ATOM      8  H   LIG    1       24.447 -19.303   6.463  0.00  0.00    +0.122 HD
ENDROOT
BRANCH   3   9
ATOM      9  C   LIG    1       24.908 -17.783   3.653  0.00  0.00    -0.017 A 
ATOM     10  C   LIG    1       23.819 -17.000   4.084  0.00  0.00    +0.006 A 
ATOM     11  C   LIG    1       23.901 -15.607   4.143  0.00  0.00    +0.000 A 
ATOM     12  C   LIG    1       25.082 -14.967   3.780  0.00  0.00    +0.000 A 
ATOM     13  C   LIG    1       26.176 -15.722   3.368  0.00  0.00    +0.000 A 
ATOM     14  C   LIG    1       26.092 -17.117   3.309  0.00  0.00    +0.006 A 
ENDBRANCH   3   9
TORSDOF 1
ENDMDL
MODEL 9
REMARK VINA RESULT:      -3.5      1.828      2.659
REMARK  Name = *****
REMARK                            x       y       z     vdW  Elec       q    Type
REMARK                         _______ _______ _______ _____ _____    ______ ____
ROOT
ATOM      1  C   LIG    1       26.087 -17.755   3.310  0.00  0.00    +0.027 C 
ATOM      2  C   LIG    1       25.171 -18.911   3.703  0.00  0.00    +0.084 C 
ATOM      3  C   LIG    1       25.421 -19.449   5.153  0.00  0.00    +0.165 C 
ATOM      4  O   LIG    1       24.514 -20.536   5.446  0.00  0.00    -0.369 OA
ATOM      5  C   LIG    1       24.570 -21.570   4.456  0.00  0.00    +0.176 C 
ATOM      6  C   LIG    1       24.249 -21.029   3.057  0.00  0.00    +0.109 C 
ATOM      7  N   LIG    1       25.159 -19.948   2.643  0.00  0.00    -0.309 NA
ATOM      8  H   LIG    1       26.093 -20.334   2.536  0.00  0.00    +0.122 HD
ENDROOT
BRANCH   3   9
ATOM      9  C   LIG    1       26.813 -19.826   5.641  0.00  0.00    -0.017 A 
ATOM     10  C   LIG    1       26.918 -20.880   6.571  0.00  0.00    +0.006 A 
ATOM     11  C   LIG    1       28.157 -21.297   7.062  0.00  0.00    +0.000 A 
ATOM     12  C   LIG    1       29.321 -20.673   6.625  0.00  0.00    +0.000 A 
ATOM     13  C   LIG    1       29.242 -19.641   5.695  0.00  0.00    +0.000 A 
ATOM     14  C   LIG    1       28.000 -19.225   5.204  0.00  0.00    +0.006 A 
ENDBRANCH   3   9
TORSDOF 1
ENDMDL
