MODEL 1
REMARK VINA RESULT:       5.1      0.000      0.000
REMARK  Name = *****
REMARK                            x       y       z     vdW  Elec       q    Type
REMARK                         _______ _______ _______ _____ _____    ______ ____
ROOT
ATOM      1  N   LIG    1       24.618 -20.248   5.112  0.00  0.00    -0.300 N 
ATOM      2  C   LIG    1       23.720 -19.340   5.654  0.00  0.00    +0.231 C 
ATOM      3  O   LIG    1       23.408 -19.330   6.857  0.00  0.00    -0.274 OA
ATOM      4  C   LIG    1       23.200 -18.389   4.527  0.00  0.00    +0.101 C 
ATOM      5  C   LIG    1       24.370 -18.625   3.477  0.00  0.00    +0.031 C 
ATOM      6  C   LIG    1       24.744 -20.093   3.690  0.00  0.00    +0.113 C 
ENDROOT
BRANCH   4   7
ATOM      7  C   LIG    1       21.844 -18.967   4.010  0.00  0.00    -0.028 A 
ATOM      8  C   LIG    1       21.461 -20.310   4.212  0.00  0.00    +0.005 A 
ATOM      9  C   LIG    1       20.236 -20.809   3.777  0.00  0.00    +0.000 A 
ATOM     10  C   LIG    1       19.357 -19.977   3.105  0.00  0.00    +0.000 A 
ATOM     11  C   LIG    1       19.702 -18.645   2.886  0.00  0.00    +0.000 A 
ATOM     12  C   LIG    1       20.928 -18.139   3.338  0.00  0.00    +0.005 A 
ENDBRANCH   4   7
BRANCH   4  13
ATOM     13  C   LIG    1       23.038 -16.888   4.933  0.00  0.00    -0.028 A 
ATOM     14  C   LIG    1       22.284 -16.517   6.064  0.00  0.00    +0.005 A 
ATOM     15  C   LIG    1       22.109 -15.168   6.418  0.00  0.00    +0.000 A 
ATOM     16  C   LIG    1       22.689 -14.156   5.661  0.00  0.00    +0.000 A 
ATOM     17  C   LIG    1       23.468 -14.492   4.565  0.00  0.00    +0.000 A 
ATOM     18  C   LIG    1       23.644 -15.836   4.214  0.00  0.00    +0.005 A 
ENDBRANCH   4  13
BRANCH   1  20
ATOM     19  C   LIG    1       26.456 -20.831   6.633  0.00  0.00    +0.024 C 
ATOM     20  C   LIG    1       25.261 -21.321   5.843  0.00  0.00    +0.104 C 
ENDBRANCH   1  20
BRANCH   5  21
ATOM     21  C   LIG    1       25.630 -17.741   3.586  0.00  0.00    +0.022 C 
BRANCH  21  22
ATOM     22  C   LIG    1       25.533 -16.318   3.003  0.00  0.00    +0.085 C 
BRANCH  22  23
ATOM     23  N   LIG    1       26.830 -15.642   2.912  0.00  0.00    -0.298 NA
ATOM     24  C   LIG    1       26.782 -14.365   2.172  0.00  0.00    +0.112 C 
ATOM     25  C   LIG    1       26.241 -13.171   2.965  0.00  0.00    +0.175 C 
ATOM     26  O   LIG    1       26.977 -12.974   4.173  0.00  0.00    -0.377 OA
ATOM     27  C   LIG    1       26.889 -14.144   4.994  0.00  0.00    +0.175 C 
ATOM     28  C   LIG    1       27.413 -15.393   4.256  0.00  0.00    +0.112 C 
ENDBRANCH  22  23
ENDBRANCH  21  22
ENDBRANCH   5  21
TORSDOF 6
ENDMDL
MODEL 2
REMARK VINA RESULT:       6.2      1.943      3.189
REMARK  Name = *****
REMARK                            x       y       z     vdW  Elec       q    Type
REMARK                         _______ _______ _______ _____ _____    ______ ____
ROOT
ATOM      1  N   LIG    1       23.618 -20.286   5.480  0.00  0.00    -0.300 N 
ATOM      2  C   LIG    1       23.231 -18.957   5.587  0.00  0.00    +0.231 C 
ATOM      3  O   LIG    1       22.865 -18.440   6.656  0.00  0.00    -0.274 OA
ATOM      4  C   LIG    1       23.333 -18.274   4.183  0.00  0.00    +0.101 C 
ATOM      5  C   LIG    1       24.323 -19.312   3.500  0.00  0.00    +0.031 C 
ATOM      6  C   LIG    1       23.919 -20.649   4.125  0.00  0.00    +0.113 C 
ENDROOT
BRANCH   4   7
ATOM      7  C   LIG    1       21.915 -18.323   3.530  0.00  0.00    -0.028 A 
ATOM      8  C   LIG    1       21.529 -17.465   2.479  0.00  0.00    +0.005 A 
ATOM      9  C   LIG    1       20.274 -17.538   1.881  0.00  0.00    +0.000 A 
ATOM     10  C   LIG    1       19.352 -18.468   2.331  0.00  0.00    +0.000 A 
ATOM     11  C   LIG    1       19.698 -19.331   3.369  0.00  0.00    +0.000 A 
ATOM     12  C   LIG    1       20.966 -19.268   3.960  0.00  0.00    +0.005 A 
ENDBRANCH   4   7
BRANCH   4  13
ATOM     13  C   LIG    1       23.886 -16.812   4.185  0.00  0.00    -0.028 A 
ATOM     14  C   LIG    1       25.193 -16.527   3.742  0.00  0.00    +0.005 A 
ATOM     15  C   LIG    1       25.708 -15.219   3.770  0.00  0.00    +0.000 A 
ATOM     16  C   LIG    1       24.930 -14.161   4.228  0.00  0.00    +0.000 A 
ATOM     17  C   LIG    1       23.627 -14.405   4.635  0.00  0.00    +0.000 A 
ATOM     18  C   LIG    1       23.115 -15.708   4.605  0.00  0.00    +0.005 A 
ENDBRANCH   4  13
BRANCH   1  20
ATOM     19  C   LIG    1       24.989 -21.572   7.061  0.00  0.00    +0.024 C 
ATOM     20  C   LIG    1       23.596 -21.248   6.563  0.00  0.00    +0.104 C 
ENDBRANCH   1  20
BRANCH   5  21
ATOM     21  C   LIG    1       25.841 -19.088   3.675  0.00  0.00    +0.022 C 
BRANCH  21  22
ATOM     22  C   LIG    1       26.584 -20.068   4.604  0.00  0.00    +0.085 C 
BRANCH  22  23
ATOM     23  N   LIG    1       28.039 -19.889   4.586  0.00  0.00    -0.298 NA
ATOM     24  C   LIG    1       28.460 -18.490   4.379  0.00  0.00    +0.112 C 
ATOM     25  C   LIG    1       28.390 -17.597   5.621  0.00  0.00    +0.175 C 
ATOM     26  O   LIG    1       29.145 -18.149   6.701  0.00  0.00    -0.377 OA
ATOM     27  C   LIG    1       28.634 -19.443   7.040  0.00  0.00    +0.175 C 
ATOM     28  C   LIG    1       28.668 -20.400   5.831  0.00  0.00    +0.112 C 
ENDBRANCH  22  23
ENDBRANCH  21  22
ENDBRANCH   5  21
TORSDOF 6
ENDMDL
MODEL 3
REMARK VINA RESULT:       7.4      1.984      4.383
REMARK  Name = *****
REMARK                            x       y       z     vdW  Elec       q    Type
REMARK                         _______ _______ _______ _____ _____    ______ ____
ROOT
ATOM      1  N   LIG    1       21.759 -18.097   2.910  0.00  0.00    -0.300 N 
ATOM      2  C   LIG    1       23.034 -18.648   2.906  0.00  0.00    +0.231 C 
ATOM      3  O   LIG    1       23.466 -19.349   1.976  0.00  0.00    -0.274 OA
ATOM      4  C   LIG    1       23.776 -18.245   4.223  0.00  0.00    +0.101 C 
ATOM      5  C   LIG    1       22.878 -16.993   4.612  0.00  0.00    +0.031 C 
ATOM      6  C   LIG    1       21.483 -17.396   4.132  0.00  0.00    +0.113 C 
ENDROOT
BRANCH   4   7
ATOM      7  C   LIG    1       23.597 -19.415   5.242  0.00  0.00    -0.028 A 
ATOM      8  C   LIG    1       22.368 -20.085   5.426  0.00  0.00    +0.005 A 
ATOM      9  C   LIG    1       22.225 -21.148   6.313  0.00  0.00    +0.000 A 
ATOM     10  C   LIG    1       23.312 -21.568   7.062  0.00  0.00    +0.000 A 
ATOM     11  C   LIG    1       24.541 -20.929   6.907  0.00  0.00    +0.000 A 
ATOM     12  C   LIG    1       24.688 -19.870   6.003  0.00  0.00    +0.005 A 
ENDBRANCH   4   7
BRANCH   4  13
ATOM     13  C   LIG    1       25.288 -17.885   4.060  0.00  0.00    -0.028 A 
ATOM     14  C   LIG    1       26.294 -18.843   4.294  0.00  0.00    +0.005 A 
ATOM     15  C   LIG    1       27.657 -18.518   4.179  0.00  0.00    +0.000 A 
ATOM     16  C   LIG    1       28.051 -17.234   3.817  0.00  0.00    +0.000 A 
ATOM     17  C   LIG    1       27.083 -16.281   3.543  0.00  0.00    +0.000 A 
ATOM     18  C   LIG    1       25.725 -16.606   3.656  0.00  0.00    +0.005 A 
ENDBRANCH   4  13
BRANCH   1  20
ATOM     19  C   LIG    1       19.353 -18.160   2.422  0.00  0.00    +0.024 C 
ATOM     20  C   LIG    1       20.760 -18.303   1.881  0.00  0.00    +0.104 C 
ENDBRANCH   1  20
BRANCH   5  21
ATOM     21  C   LIG    1       23.259 -15.618   4.024  0.00  0.00    +0.022 C 
BRANCH  21  22
ATOM     22  C   LIG    1       23.992 -14.641   4.964  0.00  0.00    +0.085 C 
BRANCH  22  23
ATOM     23  N   LIG    1       24.107 -13.287   4.412  0.00  0.00    -0.298 NA
ATOM     24  C   LIG    1       25.359 -12.600   4.786  0.00  0.00    +0.112 C 
ATOM     25  C   LIG    1       26.594 -13.008   3.977  0.00  0.00    +0.175 C 
ATOM     26  O   LIG    1       26.376 -12.836   2.576  0.00  0.00    -0.377 OA
ATOM     27  C   LIG    1       25.268 -13.639   2.153  0.00  0.00    +0.175 C 
ATOM     28  C   LIG    1       23.984 -13.287   2.932  0.00  0.00    +0.112 C 
ENDBRANCH  22  23
ENDBRANCH  21  22
ENDBRANCH   5  21
TORSDOF 6
ENDMDL
MODEL 4
REMARK VINA RESULT:       8.1      2.176      3.725
REMARK  Name = *****
REMARK                            x       y       z     vdW  Elec       q    Type
REMARK                         _______ _______ _______ _____ _____    ______ ____
ROOT
ATOM      1  N   LIG    1       23.452 -20.228   5.648  0.00  0.00    -0.300 N 
ATOM      2  C   LIG    1       23.324 -18.850   5.537  0.00  0.00    +0.231 C 
ATOM      3  O   LIG    1       23.145 -18.105   6.515  0.00  0.00    -0.274 OA
ATOM      4  C   LIG    1       23.437 -18.438   4.032  0.00  0.00    +0.101 C 
ATOM      5  C   LIG    1       24.164 -19.746   3.496  0.00  0.00    +0.031 C 
ATOM      6  C   LIG    1       23.573 -20.859   4.364  0.00  0.00    +0.113 C 
ENDROOT
BRANCH   4   7
ATOM      7  C   LIG    1       21.987 -18.318   3.466  0.00  0.00    -0.028 A 
ATOM      8  C   LIG    1       20.970 -19.248   3.770  0.00  0.00    +0.005 A 
ATOM      9  C   LIG    1       19.670 -19.116   3.287  0.00  0.00    +0.000 A 
ATOM     10  C   LIG    1       19.350 -18.049   2.464  0.00  0.00    +0.000 A 
ATOM     11  C   LIG    1       20.329 -17.112   2.142  0.00  0.00    +0.000 A 
ATOM     12  C   LIG    1       21.632 -17.237   2.641  0.00  0.00    +0.005 A 
ENDBRANCH   4   7
BRANCH   4  13
ATOM     13  C   LIG    1       24.247 -17.131   3.751  0.00  0.00    -0.028 A 
ATOM     14  C   LIG    1       25.578 -17.183   3.293  0.00  0.00    +0.005 A 
ATOM     15  C   LIG    1       26.322 -16.012   3.067  0.00  0.00    +0.000 A 
ATOM     16  C   LIG    1       25.755 -14.760   3.283  0.00  0.00    +0.000 A 
ATOM     17  C   LIG    1       24.435 -14.677   3.697  0.00  0.00    +0.000 A 
ATOM     18  C   LIG    1       23.694 -15.844   3.920  0.00  0.00    +0.005 A 
ENDBRANCH   4  13
BRANCH   1  20
ATOM     19  C   LIG    1       21.958 -21.571   7.061  0.00  0.00    +0.024 C 
ATOM     20  C   LIG    1       23.341 -20.978   6.882  0.00  0.00    +0.104 C 
ENDBRANCH   1  20
BRANCH   5  21
ATOM     21  C   LIG    1       25.705 -19.795   3.557  0.00  0.00    +0.022 C 
BRANCH  21  22
ATOM     22  C   LIG    1       26.328 -20.663   4.668  0.00  0.00    +0.085 C 
BRANCH  22  23
ATOM     23  N   LIG    1       26.638 -19.906   5.885  0.00  0.00    -0.298 NA
ATOM     24  C   LIG    1       27.574 -20.601   6.791  0.00  0.00    +0.112 C 
ATOM     25  C   LIG    1       29.051 -20.518   6.392  0.00  0.00    +0.175 C 
ATOM     26  O   LIG    1       29.474 -19.162   6.246  0.00  0.00    -0.377 OA
ATOM     27  C   LIG    1       28.692 -18.513   5.237  0.00  0.00    +0.175 C 
ATOM     28  C   LIG    1       27.186 -18.562   5.569  0.00  0.00    +0.112 C 
ENDBRANCH  22  23
ENDBRANCH  21  22
ENDBRANCH   5  21
TORSDOF 6
ENDMDL
