MODEL 1
REMARK VINA RESULT:      -6.7      0.000      0.000
REMARK  Name = *****
REMARK                            x       y       z     vdW  Elec       q    Type
REMARK                         _______ _______ _______ _____ _____    ______ ____
ROOT
ATOM      1  C   LIG    1       30.127 -19.805   8.004  0.00  0.00    +0.186 A 
ATOM      2  C   LIG    1       31.126 -20.345   8.799  0.00  0.00    +0.171 A 
ATOM      3  N   LIG    1       32.078 -19.375   9.114  0.00  0.00    -0.229 NA
ATOM      4  C   LIG    1       31.671 -18.285   8.509  0.00  0.00    +0.199 A 
ATOM      5  N   LIG    1       30.515 -18.498   7.820  0.00  0.00    -0.328 N 
ATOM      6  H   LIG    1       30.000 -17.825   7.271  0.00  0.00    +0.168 HD
ENDROOT
BRANCH   2   7
ATOM      7  C   LIG    1       31.222 -21.720   9.281  0.00  0.00    +0.264 C 
ATOM      8  O   LIG    1       30.688 -22.157  10.292  0.00  0.00    -0.269 OA
ATOM      9  N   LIG    1       31.989 -22.518   8.476  0.00  0.00    -0.324 N 
ATOM     10  H   LIG    1       32.101 -23.493   8.704  0.00  0.00    +0.145 HD
ATOM     11  H   LIG    1       32.398 -22.124   7.638  0.00  0.00    +0.145 HD
ENDBRANCH   2   7
BRANCH   1  13
ATOM     12  N   LIG    1       27.947 -20.104   8.081  0.00  0.00    -0.077 NA
ATOM     13  N   LIG    1       29.000 -20.314   7.446  0.00  0.00    -0.113 NA
BRANCH  12  15
ATOM     14  C   LIG    1       26.721 -20.368   6.072  0.00  0.00    +0.153 C 
ATOM     15  N   LIG    1       26.830 -20.647   7.493  0.00  0.00    -0.243 N 
ATOM     16  C   LIG    1       25.581 -20.732   8.242  0.00  0.00    +0.153 C 
ENDBRANCH  12  15
ENDBRANCH   1  13
TORSDOF 3
ENDMDL
MODEL 2
REMARK VINA RESULT:      -6.7      0.978      1.363
REMARK  Name = *****
REMARK                            x       y       z     vdW  Elec       q    Type
REMARK                         _______ _______ _______ _____ _____    ______ ____
ROOT
ATOM      1  C   LIG    1       29.959 -19.068   8.320  0.00  0.00    +0.186 A 
ATOM      2  C   LIG    1       31.046 -19.717   8.885  0.00  0.00    +0.171 A 
ATOM      3  N   LIG    1       31.938 -18.793   9.430  0.00  0.00    -0.229 NA
ATOM      4  C   LIG    1       31.410 -17.618   9.184  0.00  0.00    +0.199 A 
ATOM      5  N   LIG    1       30.232 -17.733   8.508  0.00  0.00    -0.328 N 
ATOM      6  H   LIG    1       29.632 -16.982   8.198  0.00  0.00    +0.168 HD
ENDROOT
BRANCH   2   7
ATOM      7  C   LIG    1       31.280 -21.157   8.944  0.00  0.00    +0.264 C 
ATOM      8  O   LIG    1       32.226 -21.700   9.501  0.00  0.00    -0.269 OA
ATOM      9  N   LIG    1       30.315 -21.884   8.303  0.00  0.00    -0.324 N 
ATOM     10  H   LIG    1       30.367 -22.890   8.306  0.00  0.00    +0.145 HD
ATOM     11  H   LIG    1       29.538 -21.399   7.872  0.00  0.00    +0.145 HD
ENDBRANCH   2   7
BRANCH   1  13
ATOM     12  N   LIG    1       27.951 -19.966   8.422  0.00  0.00    -0.077 NA
ATOM     13  N   LIG    1       28.842 -19.499   7.684  0.00  0.00    -0.113 NA
BRANCH  12  15
ATOM     14  C   LIG    1       26.115 -21.461   8.422  0.00  0.00    +0.153 C 
ATOM     15  N   LIG    1       26.843 -20.406   7.740  0.00  0.00    -0.243 N 
ATOM     16  C   LIG    1       26.856 -20.455   6.282  0.00  0.00    +0.153 C 
ENDBRANCH  12  15
ENDBRANCH   1  13
TORSDOF 3
ENDMDL
MODEL 3
REMARK VINA RESULT:      -6.4      1.649      2.844
REMARK  Name = *****
REMARK                            x       y       z     vdW  Elec       q    Type
REMARK                         _______ _______ _______ _____ _____    ______ ____
ROOT
ATOM      1  C   LIG    1       30.022 -20.580   8.155  0.00  0.00    +0.186 A 
ATOM      2  C   LIG    1       31.061 -19.816   8.663  0.00  0.00    +0.171 A 
ATOM      3  N   LIG    1       32.039 -20.636   9.229  0.00  0.00    -0.229 NA
ATOM      4  C   LIG    1       31.591 -21.859   9.080  0.00  0.00    +0.199 A 
ATOM      5  N   LIG    1       30.380 -21.875   8.456  0.00  0.00    -0.328 N 
ATOM      6  H   LIG    1       29.823 -22.685   8.226  0.00  0.00    +0.168 HD
ENDROOT
BRANCH   2   7
ATOM      7  C   LIG    1       31.182 -18.362   8.635  0.00  0.00    +0.264 C 
ATOM      8  O   LIG    1       32.117 -17.736   8.152  0.00  0.00    -0.269 OA
ATOM      9  N   LIG    1       30.119 -17.724   9.214  0.00  0.00    -0.324 N 
ATOM     10  H   LIG    1       30.090 -16.717   9.225  0.00  0.00    +0.145 HD
ATOM     11  H   LIG    1       29.356 -18.277   9.585  0.00  0.00    +0.145 HD
ENDBRANCH   2   7
BRANCH   1  13
ATOM     12  N   LIG    1       27.822 -20.623   8.110  0.00  0.00    -0.077 NA
ATOM     13  N   LIG    1       28.864 -20.276   7.519  0.00  0.00    -0.113 NA
BRANCH  12  15
ATOM     14  C   LIG    1       25.456 -20.730   8.107  0.00  0.00    +0.153 C 
ATOM     15  N   LIG    1       26.670 -20.312   7.428  0.00  0.00    -0.243 N 
ATOM     16  C   LIG    1       26.653 -20.353   5.970  0.00  0.00    +0.153 C 
ENDBRANCH  12  15
ENDBRANCH   1  13
TORSDOF 3
ENDMDL
MODEL 4
REMARK VINA RESULT:      -6.3      1.825      4.534
REMARK  Name = *****
REMARK                            x       y       z     vdW  Elec       q    Type
REMARK                         _______ _______ _______ _____ _____    ______ ____
ROOT
ATOM      1  C   LIG    1       30.899 -19.372   8.646  0.00  0.00    +0.186 A 
ATOM      2  C   LIG    1       30.594 -20.706   8.424  0.00  0.00    +0.171 A 
ATOM      3  N   LIG    1       29.662 -20.829   7.392  0.00  0.00    -0.229 NA
ATOM      4  C   LIG    1       29.402 -19.601   7.015  0.00  0.00    +0.199 A 
ATOM      5  N   LIG    1       30.108 -18.694   7.747  0.00  0.00    -0.328 N 
ATOM      6  H   LIG    1       30.085 -17.689   7.657  0.00  0.00    +0.168 HD
ENDROOT
BRANCH   2   7
ATOM      7  C   LIG    1       31.139 -21.863   9.127  0.00  0.00    +0.264 C 
ATOM      8  O   LIG    1       30.835 -22.215  10.260  0.00  0.00    -0.269 OA
ATOM      9  N   LIG    1       32.055 -22.558   8.386  0.00  0.00    -0.324 N 
ATOM     10  H   LIG    1       32.475 -23.391   8.767  0.00  0.00    +0.145 HD
ATOM     11  H   LIG    1       32.265 -22.247   7.445  0.00  0.00    +0.145 HD
ENDBRANCH   2   7
BRANCH   1  13
ATOM     12  N   LIG    1       31.347 -17.605   9.880  0.00  0.00    -0.077 NA
ATOM     13  N   LIG    1       31.727 -18.734   9.510  0.00  0.00    -0.113 NA
BRANCH  12  15
ATOM     14  C   LIG    1       31.745 -16.925  12.114  0.00  0.00    +0.153 C 
ATOM     15  N   LIG    1       32.219 -16.984  10.742  0.00  0.00    -0.243 N 
ATOM     16  C   LIG    1       33.025 -15.860  10.279  0.00  0.00    +0.153 C 
ENDBRANCH  12  15
ENDBRANCH   1  13
TORSDOF 3
ENDMDL
MODEL 5
REMARK VINA RESULT:      -6.1      1.699      2.125
REMARK  Name = *****
REMARK                            x       y       z     vdW  Elec       q    Type
REMARK                         _______ _______ _______ _____ _____    ______ ____
ROOT
ATOM      1  C   LIG    1       29.039 -20.085   7.327  0.00  0.00    +0.186 A 
ATOM      2  C   LIG    1       30.391 -19.913   7.579  0.00  0.00    +0.171 A 
ATOM      3  N   LIG    1       30.945 -19.007   6.673  0.00  0.00    -0.229 NA
ATOM      4  C   LIG    1       29.955 -18.657   5.888  0.00  0.00    +0.199 A 
ATOM      5  N   LIG    1       28.798 -19.289   6.231  0.00  0.00    -0.328 N 
ATOM      6  H   LIG    1       27.897 -19.196   5.785  0.00  0.00    +0.168 HD
ENDROOT
BRANCH   2   7
ATOM      7  C   LIG    1       31.180 -20.549   8.629  0.00  0.00    +0.264 C 
ATOM      8  O   LIG    1       32.006 -19.986   9.337  0.00  0.00    -0.269 OA
ATOM      9  N   LIG    1       30.911 -21.883   8.769  0.00  0.00    -0.324 N 
ATOM     10  H   LIG    1       31.384 -22.413   9.484  0.00  0.00    +0.145 HD
ATOM     11  H   LIG    1       30.207 -22.308   8.178  0.00  0.00    +0.145 HD
ENDBRANCH   2   7
BRANCH   1  13
ATOM     12  N   LIG    1       27.539 -21.689   7.170  0.00  0.00    -0.077 NA
ATOM     13  N   LIG    1       28.069 -20.834   7.908  0.00  0.00    -0.113 NA
BRANCH  12  15
ATOM     14  C   LIG    1       26.030 -23.505   6.979  0.00  0.00    +0.153 C 
ATOM     15  N   LIG    1       26.551 -22.417   7.788  0.00  0.00    -0.243 N 
ATOM     16  C   LIG    1       25.606 -21.753   8.680  0.00  0.00    +0.153 C 
ENDBRANCH  12  15
ENDBRANCH   1  13
TORSDOF 3
ENDMDL
MODEL 6
REMARK VINA RESULT:      -6.0      5.120      6.329
REMARK  Name = *****
REMARK                            x       y       z     vdW  Elec       q    Type
REMARK                         _______ _______ _______ _____ _____    ______ ____
ROOT
ATOM      1  C   LIG    1       25.078 -22.490   5.690  0.00  0.00    +0.186 A 
ATOM      2  C   LIG    1       25.452 -22.728   7.004  0.00  0.00    +0.171 A 
ATOM      3  N   LIG    1       25.642 -24.095   7.218  0.00  0.00    -0.229 NA
ATOM      4  C   LIG    1       25.372 -24.663   6.067  0.00  0.00    +0.199 A 
ATOM      5  N   LIG    1       25.016 -23.744   5.127  0.00  0.00    -0.328 N 
ATOM      6  H   LIG    1       24.758 -23.922   4.167  0.00  0.00    +0.168 HD
ENDROOT
BRANCH   2   7
ATOM      7  C   LIG    1       25.646 -21.739   8.059  0.00  0.00    +0.264 C 
ATOM      8  O   LIG    1       26.557 -21.743   8.877  0.00  0.00    -0.269 OA
ATOM      9  N   LIG    1       24.691 -20.760   8.059  0.00  0.00    -0.324 N 
ATOM     10  H   LIG    1       24.745 -20.012   8.731  0.00  0.00    +0.145 HD
ATOM     11  H   LIG    1       23.965 -20.780   7.353  0.00  0.00    +0.145 HD
ENDBRANCH   2   7
BRANCH   1  13
ATOM     12  N   LIG    1       23.595 -20.998   5.041  0.00  0.00    -0.077 NA
ATOM     13  N   LIG    1       24.787 -21.364   4.992  0.00  0.00    -0.113 NA
BRANCH  12  15
ATOM     14  C   LIG    1       24.507 -19.303   3.661  0.00  0.00    +0.153 C 
ATOM     15  N   LIG    1       23.335 -19.864   4.310  0.00  0.00    -0.243 N 
ATOM     16  C   LIG    1       22.324 -18.917   4.769  0.00  0.00    +0.153 C 
ENDBRANCH  12  15
ENDBRANCH   1  13
TORSDOF 3
ENDMDL
MODEL 7
REMARK VINA RESULT:      -6.0      3.097      4.689
REMARK  Name = *****
REMARK                            x       y       z     vdW  Elec       q    Type
REMARK                         _______ _______ _______ _____ _____    ______ ____
ROOT
ATOM      1  C   LIG    1       26.677 -20.328   6.060  0.00  0.00    +0.186 A 
ATOM      2  C   LIG    1       26.923 -20.678   7.378  0.00  0.00    +0.171 A 
ATOM      3  N   LIG    1       28.291 -20.856   7.590  0.00  0.00    -0.229 NA
ATOM      4  C   LIG    1       28.851 -20.636   6.424  0.00  0.00    +0.199 A 
ATOM      5  N   LIG    1       27.922 -20.331   5.475  0.00  0.00    -0.328 N 
ATOM      6  H   LIG    1       28.092 -20.124   4.501  0.00  0.00    +0.168 HD
ENDROOT
BRANCH   2   7
ATOM      7  C   LIG    1       25.940 -20.843   8.445  0.00  0.00    +0.264 C 
ATOM      8  O   LIG    1       26.030 -20.374   9.572  0.00  0.00    -0.269 OA
ATOM      9  N   LIG    1       24.861 -21.595   8.068  0.00  0.00    -0.324 N 
ATOM     10  H   LIG    1       24.110 -21.749   8.722  0.00  0.00    +0.145 HD
ATOM     11  H   LIG    1       24.814 -21.949   7.120  0.00  0.00    +0.145 HD
ENDBRANCH   2   7
BRANCH   1  13
ATOM     12  N   LIG    1       24.796 -21.020   5.148  0.00  0.00    -0.077 NA
ATOM     13  N   LIG    1       25.548 -20.047   5.363  0.00  0.00    -0.113 NA
BRANCH  12  15
ATOM     14  C   LIG    1       23.837 -19.544   3.563  0.00  0.00    +0.153 C 
ATOM     15  N   LIG    1       23.671 -20.699   4.427  0.00  0.00    -0.243 N 
ATOM     16  C   LIG    1       22.350 -20.893   5.015  0.00  0.00    +0.153 C 
ENDBRANCH  12  15
ENDBRANCH   1  13
TORSDOF 3
ENDMDL
MODEL 8
REMARK VINA RESULT:      -6.0      3.009      5.962
REMARK  Name = *****
REMARK                            x       y       z     vdW  Elec       q    Type
REMARK                         _______ _______ _______ _____ _____    ______ ____
ROOT
ATOM      1  C   LIG    1       26.286 -20.508   5.821  0.00  0.00    +0.186 A 
ATOM      2  C   LIG    1       24.957 -20.622   6.195  0.00  0.00    +0.171 A 
ATOM      3  N   LIG    1       24.119 -20.368   5.108  0.00  0.00    -0.229 NA
ATOM      4  C   LIG    1       24.924 -20.092   4.110  0.00  0.00    +0.199 A 
ATOM      5  N   LIG    1       26.231 -20.149   4.493  0.00  0.00    -0.328 N 
ATOM      6  H   LIG    1       27.042 -19.976   3.918  0.00  0.00    +0.168 HD
ENDROOT
BRANCH   2   7
ATOM      7  C   LIG    1       24.439 -20.964   7.516  0.00  0.00    +0.264 C 
ATOM      8  O   LIG    1       23.332 -21.435   7.745  0.00  0.00    -0.269 OA
ATOM      9  N   LIG    1       25.328 -20.709   8.524  0.00  0.00    -0.324 N 
ATOM     10  H   LIG    1       25.081 -20.933   9.474  0.00  0.00    +0.145 HD
ATOM     11  H   LIG    1       26.242 -20.338   8.292  0.00  0.00    +0.145 HD
ENDBRANCH   2   7
BRANCH   1  13
ATOM     12  N   LIG    1       28.438 -20.069   5.979  0.00  0.00    -0.077 NA
ATOM     13  N   LIG    1       27.459 -20.656   6.485  0.00  0.00    -0.113 NA
BRANCH  12  15
ATOM     14  C   LIG    1       29.457 -21.031   7.889  0.00  0.00    +0.153 C 
ATOM     15  N   LIG    1       29.611 -20.255   6.671  0.00  0.00    -0.243 N 
ATOM     16  C   LIG    1       30.621 -19.202   6.687  0.00  0.00    +0.153 C 
ENDBRANCH  12  15
ENDBRANCH   1  13
TORSDOF 3
ENDMDL
MODEL 9
REMARK VINA RESULT:      -5.9      2.688      5.502
REMARK  Name = *****
REMARK                            x       y       z     vdW  Elec       q    Type
REMARK                         _______ _______ _______ _____ _____    ______ ____
ROOT
ATOM      1  C   LIG    1       26.761 -20.583   7.836  0.00  0.00    +0.186 A 
ATOM      2  C   LIG    1       26.055 -20.564   6.643  0.00  0.00    +0.171 A 
ATOM      3  N   LIG    1       24.750 -21.020   6.839  0.00  0.00    -0.229 NA
ATOM      4  C   LIG    1       24.679 -21.321   8.113  0.00  0.00    +0.199 A 
ATOM      5  N   LIG    1       25.863 -21.091   8.748  0.00  0.00    -0.328 N 
ATOM      6  H   LIG    1       26.071 -21.243   9.724  0.00  0.00    +0.168 HD
ENDROOT
BRANCH   2   7
ATOM      7  C   LIG    1       26.543 -20.132   5.337  0.00  0.00    +0.264 C 
ATOM      8  O   LIG    1       25.841 -19.810   4.387  0.00  0.00    -0.269 OA
ATOM      9  N   LIG    1       27.909 -20.110   5.255  0.00  0.00    -0.324 N 
ATOM     10  H   LIG    1       28.351 -19.801   4.404  0.00  0.00    +0.145 HD
ATOM     11  H   LIG    1       28.455 -20.364   6.069  0.00  0.00    +0.145 HD
ENDBRANCH   2   7
BRANCH   1  13
ATOM     12  N   LIG    1       28.879 -21.147   8.035  0.00  0.00    -0.077 NA
ATOM     13  N   LIG    1       28.029 -20.245   8.177  0.00  0.00    -0.113 NA
BRANCH  12  15
ATOM     14  C   LIG    1       30.754 -19.795   7.516  0.00  0.00    +0.153 C 
ATOM     15  N   LIG    1       30.149 -20.772   8.405  0.00  0.00    -0.243 N 
ATOM     16  C   LIG    1       31.047 -21.745   9.018  0.00  0.00    +0.153 C 
ENDBRANCH  12  15
ENDBRANCH   1  13
TORSDOF 3
ENDMDL
