MODEL 1
REMARK VINA RESULT:      -6.8      0.000      0.000
REMARK  Name = *****
REMARK                            x       y       z     vdW  Elec       q    Type
REMARK                         _______ _______ _______ _____ _____    ______ ____
ROOT
ATOM      1  C   LIG    1       24.260 -23.051   6.639  0.00  0.00    +0.058 C 
ATOM      2  C   LIG    1       23.084 -24.048   6.684  0.00  0.00    +0.024 C 
ENDROOT
BRANCH   1   3
ATOM      3  N   LIG    1       25.493 -23.638   7.250  0.00  0.00    -0.292 NA
ATOM      4  C   LIG    1       25.939 -24.863   6.569  0.00  0.00    +0.106 C 
BRANCH   3   5
ATOM      5  C   LIG    1       26.629 -22.691   7.329  0.00  0.00    +0.173 C 
BRANCH   5   7
ATOM      6  C   LIG    1       26.009 -20.441   8.637  0.00  0.00    +0.005 C 
ATOM      7  C   LIG    1       26.314 -21.445   8.057  0.00  0.00    -0.090 C 
ENDBRANCH   5   7
ENDBRANCH   3   5
ENDBRANCH   1   3
BRANCH   1   8
ATOM      8  C   LIG    1       24.475 -22.592   5.163  0.00  0.00    +0.053 C 
BRANCH   8   9
ATOM      9  C   LIG    1       24.018 -21.179   4.857  0.00  0.00    -0.046 A 
ATOM     10  C   LIG    1       24.736 -20.376   3.957  0.00  0.00    +0.003 A 
ATOM     11  C   LIG    1       24.280 -19.098   3.625  0.00  0.00    +0.000 A 
ATOM     12  C   LIG    1       23.101 -18.610   4.185  0.00  0.00    +0.000 A 
ATOM     13  C   LIG    1       22.388 -19.391   5.093  0.00  0.00    +0.000 A 
ATOM     14  C   LIG    1       22.844 -20.668   5.428  0.00  0.00    +0.003 A 
ENDBRANCH   8   9
ENDBRANCH   1   8
TORSDOF 5
ENDMDL
MODEL 2
REMARK VINA RESULT:      -6.8      1.130      3.070
REMARK  Name = *****
REMARK                            x       y       z     vdW  Elec       q    Type
REMARK                         _______ _______ _______ _____ _____    ______ ____
ROOT
ATOM      1  C   LIG    1       25.036 -22.331   7.066  0.00  0.00    +0.058 C 
ATOM      2  C   LIG    1       25.816 -22.234   8.393  0.00  0.00    +0.024 C 
ENDROOT
BRANCH   1   3
ATOM      3  N   LIG    1       24.558 -23.726   6.817  0.00  0.00    -0.292 NA
ATOM      4  C   LIG    1       23.092 -23.825   6.762  0.00  0.00    +0.106 C 
BRANCH   3   5
ATOM      5  C   LIG    1       25.128 -24.343   5.597  0.00  0.00    +0.173 C 
BRANCH   5   7
ATOM      6  C   LIG    1       26.405 -26.650   6.047  0.00  0.00    +0.005 C 
ATOM      7  C   LIG    1       25.855 -25.602   5.853  0.00  0.00    -0.090 C 
ENDBRANCH   5   7
ENDBRANCH   3   5
ENDBRANCH   1   3
BRANCH   1   8
ATOM      8  C   LIG    1       23.876 -21.287   7.087  0.00  0.00    +0.053 C 
BRANCH   8   9
ATOM      9  C   LIG    1       23.747 -20.445   5.832  0.00  0.00    -0.046 A 
ATOM     10  C   LIG    1       22.576 -19.713   5.580  0.00  0.00    +0.003 A 
ATOM     11  C   LIG    1       22.482 -18.886   4.459  0.00  0.00    +0.000 A 
ATOM     12  C   LIG    1       23.555 -18.780   3.578  0.00  0.00    +0.000 A 
ATOM     13  C   LIG    1       24.717 -19.515   3.807  0.00  0.00    +0.000 A 
ATOM     14  C   LIG    1       24.813 -20.344   4.927  0.00  0.00    +0.003 A 
ENDBRANCH   8   9
ENDBRANCH   1   8
TORSDOF 5
ENDMDL
MODEL 3
REMARK VINA RESULT:      -6.7      3.148      5.035
REMARK  Name = *****
REMARK                            x       y       z     vdW  Elec       q    Type
REMARK                         _______ _______ _______ _____ _____    ______ ____
ROOT
ATOM      1  C   LIG    1       28.181 -20.671   7.417  0.00  0.00    +0.058 C 
ATOM      2  C   LIG    1       28.290 -19.981   6.041  0.00  0.00    +0.024 C 
ENDROOT
BRANCH   1   3
ATOM      3  N   LIG    1       29.272 -20.221   8.337  0.00  0.00    -0.292 NA
ATOM      4  C   LIG    1       30.377 -21.187   8.425  0.00  0.00    +0.106 C 
BRANCH   3   5
ATOM      5  C   LIG    1       29.823 -18.888   8.002  0.00  0.00    +0.173 C 
BRANCH   5   7
ATOM      6  C   LIG    1       30.347 -17.346  10.124  0.00  0.00    +0.005 C 
ATOM      7  C   LIG    1       30.086 -18.041   9.182  0.00  0.00    -0.090 C 
ENDBRANCH   5   7
ENDBRANCH   3   5
ENDBRANCH   1   3
BRANCH   1   8
ATOM      8  C   LIG    1       26.755 -20.417   7.997  0.00  0.00    +0.053 C 
BRANCH   8   9
ATOM      9  C   LIG    1       25.718 -21.462   7.634  0.00  0.00    -0.046 A 
ATOM     10  C   LIG    1       24.364 -21.114   7.517  0.00  0.00    +0.003 A 
ATOM     11  C   LIG    1       23.418 -22.061   7.119  0.00  0.00    +0.000 A 
ATOM     12  C   LIG    1       23.814 -23.365   6.831  0.00  0.00    +0.000 A 
ATOM     13  C   LIG    1       25.153 -23.728   6.961  0.00  0.00    +0.000 A 
ATOM     14  C   LIG    1       26.101 -22.783   7.361  0.00  0.00    +0.003 A 
ENDBRANCH   8   9
ENDBRANCH   1   8
TORSDOF 5
ENDMDL
MODEL 4
REMARK VINA RESULT:      -6.7      1.533      4.925
REMARK  Name = *****
REMARK                            x       y       z     vdW  Elec       q    Type
REMARK                         _______ _______ _______ _____ _____    ______ ____
ROOT
ATOM      1  C   LIG    1       25.782 -21.159   7.352  0.00  0.00    +0.058 C 
ATOM      2  C   LIG    1       26.054 -20.546   8.741  0.00  0.00    +0.024 C 
ENDROOT
BRANCH   1   3
ATOM      3  N   LIG    1       26.164 -20.214   6.256  0.00  0.00    -0.292 NA
ATOM      4  C   LIG    1       27.597 -20.271   5.931  0.00  0.00    +0.106 C 
BRANCH   3   5
ATOM      5  C   LIG    1       25.381 -20.394   5.013  0.00  0.00    +0.173 C 
BRANCH   5   7
ATOM      6  C   LIG    1       22.730 -20.256   5.348  0.00  0.00    +0.005 C 
ATOM      7  C   LIG    1       23.920 -20.337   5.218  0.00  0.00    -0.090 C 
ENDBRANCH   5   7
ENDBRANCH   3   5
ENDBRANCH   1   3
BRANCH   1   8
ATOM      8  C   LIG    1       26.518 -22.532   7.253  0.00  0.00    +0.053 C 
BRANCH   8   9
ATOM      9  C   LIG    1       25.634 -23.710   6.893  0.00  0.00    -0.046 A 
ATOM     10  C   LIG    1       24.238 -23.571   6.857  0.00  0.00    +0.003 A 
ATOM     11  C   LIG    1       23.427 -24.638   6.462  0.00  0.00    +0.000 A 
ATOM     12  C   LIG    1       24.002 -25.853   6.097  0.00  0.00    +0.000 A 
ATOM     13  C   LIG    1       25.386 -26.010   6.146  0.00  0.00    +0.000 A 
ATOM     14  C   LIG    1       26.198 -24.945   6.543  0.00  0.00    +0.003 A 
ENDBRANCH   8   9
ENDBRANCH   1   8
TORSDOF 5
ENDMDL
MODEL 5
REMARK VINA RESULT:      -6.6      2.052      4.449
REMARK  Name = *****
REMARK                            x       y       z     vdW  Elec       q    Type
REMARK                         _______ _______ _______ _____ _____    ______ ____
ROOT
ATOM      1  C   LIG    1       25.250 -22.838   6.463  0.00  0.00    +0.058 C 
ATOM      2  C   LIG    1       25.510 -24.335   6.729  0.00  0.00    +0.024 C 
ENDROOT
BRANCH   1   3
ATOM      3  N   LIG    1       23.791 -22.566   6.272  0.00  0.00    -0.292 NA
ATOM      4  C   LIG    1       22.938 -23.651   6.779  0.00  0.00    +0.106 C 
BRANCH   3   5
ATOM      5  C   LIG    1       23.341 -21.284   6.862  0.00  0.00    +0.173 C 
BRANCH   5   7
ATOM      6  C   LIG    1       22.567 -19.445   5.081  0.00  0.00    +0.005 C 
ATOM      7  C   LIG    1       22.908 -20.289   5.861  0.00  0.00    -0.090 C 
ENDBRANCH   5   7
ENDBRANCH   3   5
ENDBRANCH   1   3
BRANCH   1   8
ATOM      8  C   LIG    1       25.875 -22.004   7.625  0.00  0.00    +0.053 C 
BRANCH   8   9
ATOM      9  C   LIG    1       27.106 -21.202   7.251  0.00  0.00    -0.046 A 
ATOM     10  C   LIG    1       28.305 -21.359   7.963  0.00  0.00    +0.003 A 
ATOM     11  C   LIG    1       29.457 -20.669   7.578  0.00  0.00    +0.000 A 
ATOM     12  C   LIG    1       29.424 -19.818   6.476  0.00  0.00    +0.000 A 
ATOM     13  C   LIG    1       28.236 -19.641   5.770  0.00  0.00    +0.000 A 
ATOM     14  C   LIG    1       27.082 -20.328   6.155  0.00  0.00    +0.003 A 
ENDBRANCH   8   9
ENDBRANCH   1   8
TORSDOF 5
ENDMDL
MODEL 6
REMARK VINA RESULT:      -6.6      1.586      2.163
REMARK  Name = *****
REMARK                            x       y       z     vdW  Elec       q    Type
REMARK                         _______ _______ _______ _____ _____    ______ ____
ROOT
ATOM      1  C   LIG    1       25.186 -22.331   6.982  0.00  0.00    +0.058 C 
ATOM      2  C   LIG    1       25.920 -23.662   7.243  0.00  0.00    +0.024 C 
ENDROOT
BRANCH   1   3
ATOM      3  N   LIG    1       26.051 -21.158   7.321  0.00  0.00    -0.292 NA
ATOM      4  C   LIG    1       25.883 -20.710   8.711  0.00  0.00    +0.106 C 
BRANCH   3   5
ATOM      5  C   LIG    1       27.491 -21.384   7.058  0.00  0.00    +0.173 C 
BRANCH   5   7
ATOM      6  C   LIG    1       28.634 -19.368   5.722  0.00  0.00    +0.005 C 
ATOM      7  C   LIG    1       28.136 -20.290   6.305  0.00  0.00    -0.090 C 
ENDBRANCH   5   7
ENDBRANCH   3   5
ENDBRANCH   1   3
BRANCH   1   8
ATOM      8  C   LIG    1       24.690 -22.311   5.502  0.00  0.00    +0.053 C 
BRANCH   8   9
ATOM      9  C   LIG    1       24.128 -20.984   5.031  0.00  0.00    -0.046 A 
ATOM     10  C   LIG    1       24.788 -20.239   4.041  0.00  0.00    +0.003 A 
ATOM     11  C   LIG    1       24.237 -19.050   3.560  0.00  0.00    +0.000 A 
ATOM     12  C   LIG    1       23.020 -18.592   4.060  0.00  0.00    +0.000 A 
ATOM     13  C   LIG    1       22.363 -19.313   5.055  0.00  0.00    +0.000 A 
ATOM     14  C   LIG    1       22.913 -20.502   5.539  0.00  0.00    +0.003 A 
ENDBRANCH   8   9
ENDBRANCH   1   8
TORSDOF 5
ENDMDL
MODEL 7
REMARK VINA RESULT:      -6.5      1.469      5.074
REMARK  Name = *****
REMARK                            x       y       z     vdW  Elec       q    Type
REMARK                         _______ _______ _______ _____ _____    ______ ____
ROOT
ATOM      1  C   LIG    1       25.140 -21.489   7.533  0.00  0.00    +0.058 C 
ATOM      2  C   LIG    1       25.848 -20.754   8.690  0.00  0.00    +0.024 C 
ENDROOT
BRANCH   1   3
ATOM      3  N   LIG    1       24.629 -20.524   6.509  0.00  0.00    -0.292 NA
ATOM      4  C   LIG    1       25.372 -20.592   5.242  0.00  0.00    +0.106 C 
BRANCH   3   5
ATOM      5  C   LIG    1       23.182 -20.666   6.227  0.00  0.00    +0.173 C 
BRANCH   5   7
ATOM      6  C   LIG    1       22.270 -18.792   4.550  0.00  0.00    +0.005 C 
ATOM      7  C   LIG    1       22.657 -19.648   5.295  0.00  0.00    -0.090 C 
ENDBRANCH   5   7
ENDBRANCH   3   5
ENDBRANCH   1   3
BRANCH   1   8
ATOM      8  C   LIG    1       26.119 -22.546   6.934  0.00  0.00    +0.053 C 
BRANCH   8   9
ATOM      9  C   LIG    1       25.497 -23.894   6.623  0.00  0.00    -0.046 A 
ATOM     10  C   LIG    1       26.302 -25.032   6.463  0.00  0.00    +0.003 A 
ATOM     11  C   LIG    1       25.726 -26.285   6.241  0.00  0.00    +0.000 A 
ATOM     12  C   LIG    1       24.340 -26.415   6.180  0.00  0.00    +0.000 A 
ATOM     13  C   LIG    1       23.530 -25.290   6.320  0.00  0.00    +0.000 A 
ATOM     14  C   LIG    1       24.104 -24.035   6.539  0.00  0.00    +0.003 A 
ENDBRANCH   8   9
ENDBRANCH   1   8
TORSDOF 5
ENDMDL
MODEL 8
REMARK VINA RESULT:      -6.5      2.803      5.144
REMARK  Name = *****
REMARK                            x       y       z     vdW  Elec       q    Type
REMARK                         _______ _______ _______ _____ _____    ______ ____
ROOT
ATOM      1  C   LIG    1       26.023 -21.394   7.223  0.00  0.00    +0.058 C 
ATOM      2  C   LIG    1       25.686 -20.603   8.504  0.00  0.00    +0.024 C 
ENDROOT
BRANCH   1   3
ATOM      3  N   LIG    1       24.794 -21.995   6.617  0.00  0.00    -0.292 NA
ATOM      4  C   LIG    1       24.674 -23.436   6.886  0.00  0.00    +0.106 C 
BRANCH   3   5
ATOM      5  C   LIG    1       23.538 -21.323   7.024  0.00  0.00    +0.173 C 
BRANCH   5   7
ATOM      6  C   LIG    1       22.648 -19.581   5.199  0.00  0.00    +0.005 C 
ATOM      7  C   LIG    1       23.021 -20.372   6.020  0.00  0.00    -0.090 C 
ENDBRANCH   5   7
ENDBRANCH   3   5
ENDBRANCH   1   3
BRANCH   1   8
ATOM      8  C   LIG    1       26.787 -20.455   6.238  0.00  0.00    +0.053 C 
BRANCH   8   9
ATOM      9  C   LIG    1       28.241 -20.204   6.588  0.00  0.00    -0.046 A 
ATOM     10  C   LIG    1       28.945 -19.144   5.997  0.00  0.00    +0.003 A 
ATOM     11  C   LIG    1       30.264 -18.872   6.367  0.00  0.00    +0.000 A 
ATOM     12  C   LIG    1       30.893 -19.654   7.333  0.00  0.00    +0.000 A 
ATOM     13  C   LIG    1       30.211 -20.721   7.915  0.00  0.00    +0.000 A 
ATOM     14  C   LIG    1       28.892 -20.996   7.545  0.00  0.00    +0.003 A 
ENDBRANCH   8   9
ENDBRANCH   1   8
TORSDOF 5
ENDMDL
MODEL 9
REMARK VINA RESULT:      -6.4      2.540      3.431
REMARK  Name = *****
REMARK                            x       y       z     vdW  Elec       q    Type
REMARK                         _______ _______ _______ _____ _____    ______ ____
ROOT
ATOM      1  C   LIG    1       26.460 -20.332   7.462  0.00  0.00    +0.058 C 
ATOM      2  C   LIG    1       25.804 -20.808   8.775  0.00  0.00    +0.024 C 
ENDROOT
BRANCH   1   3
ATOM      3  N   LIG    1       27.952 -20.417   7.538  0.00  0.00    -0.292 NA
ATOM      4  C   LIG    1       28.442 -21.803   7.562  0.00  0.00    +0.106 C 
BRANCH   3   5
ATOM      5  C   LIG    1       28.646 -19.680   6.458  0.00  0.00    +0.173 C 
BRANCH   5   7
ATOM      6  C   LIG    1       31.223 -19.225   7.015  0.00  0.00    +0.005 C 
ATOM      7  C   LIG    1       30.072 -19.418   6.740  0.00  0.00    -0.090 C 
ENDBRANCH   5   7
ENDBRANCH   3   5
ENDBRANCH   1   3
BRANCH   1   8
ATOM      8  C   LIG    1       25.865 -21.153   6.276  0.00  0.00    +0.053 C 
BRANCH   8   9
ATOM      9  C   LIG    1       24.791 -20.440   5.476  0.00  0.00    -0.046 A 
ATOM     10  C   LIG    1       23.469 -20.389   5.942  0.00  0.00    +0.003 A 
ATOM     11  C   LIG    1       22.494 -19.677   5.240  0.00  0.00    +0.000 A 
ATOM     12  C   LIG    1       22.830 -19.007   4.065  0.00  0.00    +0.000 A 
ATOM     13  C   LIG    1       24.136 -19.065   3.583  0.00  0.00    +0.000 A 
ATOM     14  C   LIG    1       25.112 -19.777   4.283  0.00  0.00    +0.003 A 
ENDBRANCH   8   9
ENDBRANCH   1   8
TORSDOF 5
ENDMDL
