MODEL 1
REMARK VINA RESULT:      -7.5      0.000      0.000
REMARK  Name = *****
REMARK                            x       y       z     vdW  Elec       q    Type
REMARK                         _______ _______ _______ _____ _____    ______ ____
ROOT
ATOM      1  C   LIG    1       25.373 -32.683   9.527  0.00  0.00    +0.132 C 
ATOM      2  C   LIG    1       24.730 -31.363   8.988  0.00  0.00    +0.011 C 
ATOM      3  C   LIG    1       23.192 -31.416   9.085  0.00  0.00    +0.015 C 
ATOM      4  C   LIG    1       25.216 -31.374   7.513  0.00  0.00    +0.002 C 
ATOM      5  C   LIG    1       25.184 -30.036   6.743  0.00  0.00    +0.001 C 
ATOM      6  C   LIG    1       25.656 -28.829   7.585  0.00  0.00    +0.023 C 
ATOM      7  C   LIG    1       25.006 -28.806   8.977  0.00  0.00    +0.009 C 
ATOM      8  C   LIG    1       25.443 -27.501   6.874  0.00  0.00    -0.041 A 
ATOM      9  C   LIG    1       24.623 -27.382   5.740  0.00  0.00    -0.041 A 
ATOM     10  C   LIG    1       24.501 -26.134   5.102  0.00  0.00    +0.049 A 
ATOM     11  C   LIG    1       25.128 -24.997   5.611  0.00  0.00    +0.121 A 
ATOM     12  C   LIG    1       25.916 -25.112   6.753  0.00  0.00    +0.046 A 
ATOM     13  C   LIG    1       23.906 -28.571   5.154  0.00  0.00    +0.036 C 
ATOM     14  C   LIG    1       26.081 -26.353   7.370  0.00  0.00    +0.008 A 
ATOM     15  C   LIG    1       23.807 -29.746   6.128  0.00  0.00    +0.009 C 
ATOM     16  C   LIG    1       26.651 -31.943   7.583  0.00  0.00    +0.008 C 
ATOM     17  C   LIG    1       25.251 -30.108   9.732  0.00  0.00    +0.011 C 
ATOM     18  C   LIG    1       26.772 -32.703   8.906  0.00  0.00    +0.049 C 
ENDROOT
BRANCH   1  20
ATOM     19  C   LIG    1       25.467 -32.859  12.192  0.00  0.00    +0.007 C 
ATOM     20  C   LIG    1       25.428 -32.777  10.996  0.00  0.00    -0.070 C 
ENDBRANCH   1  20
BRANCH   1  21
ATOM     21  O   LIG    1       24.677 -33.825   9.021  0.00  0.00    -0.376 OA
ATOM     22  H   LIG    1       23.833 -33.879   9.499  0.00  0.00    +0.211 HD
ENDBRANCH   1  21
BRANCH  11  23
ATOM     23  O   LIG    1       24.927 -23.843   4.901  0.00  0.00    -0.489 OA
BRANCH  23  24
ATOM     24  C   LIG    1       24.806 -22.650   5.665  0.00  0.00    +0.173 C 
ATOM     25  C   LIG    1       24.419 -21.438   4.823  0.00  0.00    +0.044 C 
ATOM     26  C   LIG    1       23.949 -20.446   5.875  0.00  0.00    +0.004 C 
ATOM     27  C   LIG    1       23.263 -21.297   6.944  0.00  0.00    +0.004 C 
ATOM     28  C   LIG    1       23.612 -22.749   6.615  0.00  0.00    +0.044 C 
ENDBRANCH  23  24
ENDBRANCH  11  23
TORSDOF 4
ENDMDL
MODEL 2
REMARK VINA RESULT:      -7.0      1.801      3.516
REMARK  Name = *****
REMARK                            x       y       z     vdW  Elec       q    Type
REMARK                         _______ _______ _______ _____ _____    ______ ____
ROOT
ATOM      1  C   LIG    1       24.774 -31.524   6.704  0.00  0.00    +0.132 C 
ATOM      2  C   LIG    1       25.013 -30.115   6.069  0.00  0.00    +0.011 C 
ATOM      3  C   LIG    1       25.913 -30.216   4.820  0.00  0.00    +0.015 C 
ATOM      4  C   LIG    1       25.726 -29.378   7.235  0.00  0.00    +0.002 C 
ATOM      5  C   LIG    1       25.741 -27.834   7.199  0.00  0.00    +0.001 C 
ATOM      6  C   LIG    1       24.397 -27.216   6.748  0.00  0.00    +0.023 C 
ATOM      7  C   LIG    1       23.838 -27.901   5.492  0.00  0.00    +0.009 C 
ATOM      8  C   LIG    1       24.487 -25.711   6.540  0.00  0.00    -0.041 A 
ATOM      9  C   LIG    1       25.717 -25.039   6.456  0.00  0.00    -0.041 A 
ATOM     10  C   LIG    1       25.734 -23.640   6.307  0.00  0.00    +0.049 A 
ATOM     11  C   LIG    1       24.550 -22.914   6.177  0.00  0.00    +0.121 A 
ATOM     12  C   LIG    1       23.333 -23.586   6.231  0.00  0.00    +0.046 A 
ATOM     13  C   LIG    1       27.029 -25.773   6.572  0.00  0.00    +0.036 C 
ATOM     14  C   LIG    1       23.301 -24.968   6.423  0.00  0.00    +0.008 A 
ATOM     15  C   LIG    1       26.891 -27.278   6.346  0.00  0.00    +0.009 C 
ATOM     16  C   LIG    1       25.022 -29.899   8.508  0.00  0.00    +0.008 C 
ATOM     17  C   LIG    1       23.688 -29.405   5.694  0.00  0.00    +0.011 C 
ATOM     18  C   LIG    1       24.347 -31.222   8.142  0.00  0.00    +0.049 C 
ENDROOT
BRANCH   1  20
ATOM     19  C   LIG    1       22.963 -33.023   5.433  0.00  0.00    +0.007 C 
ATOM     20  C   LIG    1       23.775 -32.347   6.000  0.00  0.00    -0.070 C 
ENDBRANCH   1  20
BRANCH   1  21
ATOM     21  O   LIG    1       26.000 -32.257   6.779  0.00  0.00    -0.376 OA
ATOM     22  H   LIG    1       26.442 -32.162   5.919  0.00  0.00    +0.211 HD
ENDBRANCH   1  21
BRANCH  11  23
ATOM     23  O   LIG    1       24.701 -21.559   6.032  0.00  0.00    -0.489 OA
BRANCH  23  24
ATOM     24  C   LIG    1       23.820 -20.926   5.113  0.00  0.00    +0.173 C 
ATOM     25  C   LIG    1       22.835 -19.976   5.789  0.00  0.00    +0.044 C 
ATOM     26  C   LIG    1       22.332 -19.142   4.621  0.00  0.00    +0.004 C 
ATOM     27  C   LIG    1       23.540 -18.987   3.695  0.00  0.00    +0.004 C 
ATOM     28  C   LIG    1       24.596 -19.963   4.214  0.00  0.00    +0.044 C 
ENDBRANCH  23  24
ENDBRANCH  11  23
TORSDOF 4
ENDMDL
MODEL 3
REMARK VINA RESULT:      -6.4      4.227      6.895
REMARK  Name = *****
REMARK                            x       y       z     vdW  Elec       q    Type
REMARK                         _______ _______ _______ _____ _____    ______ ____
ROOT
ATOM      1  C   LIG    1       24.843 -31.436   5.752  0.00  0.00    +0.132 C 
ATOM      2  C   LIG    1       25.020 -31.533   7.303  0.00  0.00    +0.011 C 
ATOM      3  C   LIG    1       24.297 -32.773   7.867  0.00  0.00    +0.015 C 
ATOM      4  C   LIG    1       24.345 -30.212   7.765  0.00  0.00    +0.002 C 
ATOM      5  C   LIG    1       24.688 -29.693   9.177  0.00  0.00    +0.001 C 
ATOM      6  C   LIG    1       26.185 -29.830   9.537  0.00  0.00    +0.023 C 
ATOM      7  C   LIG    1       26.737 -31.223   9.193  0.00  0.00    +0.009 C 
ATOM      8  C   LIG    1       26.471 -29.488  10.992  0.00  0.00    -0.041 A 
ATOM      9  C   LIG    1       25.449 -29.380  11.950  0.00  0.00    -0.041 A 
ATOM     10  C   LIG    1       25.774 -29.018  13.270  0.00  0.00    +0.049 A 
ATOM     11  C   LIG    1       27.099 -28.825  13.662  0.00  0.00    +0.121 A 
ATOM     12  C   LIG    1       28.111 -28.962  12.717  0.00  0.00    +0.046 A 
ATOM     13  C   LIG    1       24.002 -29.594  11.590  0.00  0.00    +0.036 C 
ATOM     14  C   LIG    1       27.800 -29.278  11.394  0.00  0.00    +0.008 A 
ATOM     15  C   LIG    1       23.821 -30.339  10.267  0.00  0.00    +0.009 C 
ATOM     16  C   LIG    1       24.733 -29.181   6.682  0.00  0.00    +0.008 C 
ATOM     17  C   LIG    1       26.510 -31.568   7.725  0.00  0.00    +0.011 C 
ATOM     18  C   LIG    1       25.131 -29.967   5.431  0.00  0.00    +0.049 C 
ENDROOT
BRANCH   1  20
ATOM     19  C   LIG    1       26.419 -33.087   4.362  0.00  0.00    +0.007 C 
ATOM     20  C   LIG    1       25.713 -32.343   4.983  0.00  0.00    -0.070 C 
ENDBRANCH   1  20
BRANCH   1  21
ATOM     21  O   LIG    1       23.484 -31.683   5.384  0.00  0.00    -0.376 OA
ATOM     22  H   LIG    1       23.456 -31.734   4.414  0.00  0.00    +0.211 HD
ENDBRANCH   1  21
BRANCH  11  23
ATOM     23  O   LIG    1       27.282 -28.480  14.976  0.00  0.00    -0.489 OA
BRANCH  23  24
ATOM     24  C   LIG    1       27.425 -27.092  15.245  0.00  0.00    +0.173 C 
ATOM     25  C   LIG    1       28.872 -26.679  15.498  0.00  0.00    +0.044 C 
ATOM     26  C   LIG    1       28.815 -25.168  15.332  0.00  0.00    +0.004 C 
ATOM     27  C   LIG    1       27.788 -24.931  14.223  0.00  0.00    +0.004 C 
ATOM     28  C   LIG    1       27.094 -26.274  13.997  0.00  0.00    +0.044 C 
ENDBRANCH  23  24
ENDBRANCH  11  23
TORSDOF 4
ENDMDL
MODEL 4
REMARK VINA RESULT:      -6.2      2.268     10.015
REMARK  Name = *****
REMARK                            x       y       z     vdW  Elec       q    Type
REMARK                         _______ _______ _______ _____ _____    ______ ____
ROOT
ATOM      1  C   LIG    1       22.989 -18.998   4.185  0.00  0.00    +0.132 C 
ATOM      2  C   LIG    1       23.209 -20.162   5.205  0.00  0.00    +0.011 C 
ATOM      3  C   LIG    1       22.963 -19.685   6.651  0.00  0.00    +0.015 C 
ATOM      4  C   LIG    1       24.705 -20.500   4.956  0.00  0.00    +0.002 C 
ATOM      5  C   LIG    1       25.213 -21.878   5.430  0.00  0.00    +0.001 C 
ATOM      6  C   LIG    1       24.220 -23.030   5.151  0.00  0.00    +0.023 C 
ATOM      7  C   LIG    1       22.786 -22.673   5.573  0.00  0.00    +0.009 C 
ATOM      8  C   LIG    1       24.652 -24.342   5.787  0.00  0.00    -0.041 A 
ATOM      9  C   LIG    1       25.654 -24.403   6.770  0.00  0.00    -0.041 A 
ATOM     10  C   LIG    1       26.040 -25.653   7.289  0.00  0.00    +0.049 A 
ATOM     11  C   LIG    1       25.402 -26.828   6.893  0.00  0.00    +0.121 A 
ATOM     12  C   LIG    1       24.389 -26.761   5.941  0.00  0.00    +0.046 A 
ATOM     13  C   LIG    1       26.367 -23.165   7.251  0.00  0.00    +0.036 C 
ATOM     14  C   LIG    1       24.027 -25.533   5.385  0.00  0.00    +0.008 A 
ATOM     15  C   LIG    1       25.617 -21.877   6.912  0.00  0.00    +0.009 C 
ATOM     16  C   LIG    1       24.890 -20.332   3.432  0.00  0.00    +0.008 C 
ATOM     17  C   LIG    1       22.309 -21.387   4.905  0.00  0.00    +0.011 C 
ATOM     18  C   LIG    1       23.747 -19.445   2.932  0.00  0.00    +0.049 C 
ENDROOT
BRANCH   1  20
ATOM     19  C   LIG    1       20.425 -18.470   3.643  0.00  0.00    +0.007 C 
ATOM     20  C   LIG    1       21.575 -18.707   3.891  0.00  0.00    -0.070 C 
ENDBRANCH   1  20
BRANCH   1  21
ATOM     21  O   LIG    1       23.617 -17.799   4.645  0.00  0.00    -0.376 OA
ATOM     22  H   LIG    1       23.190 -17.557   5.484  0.00  0.00    +0.211 HD
ENDBRANCH   1  21
BRANCH  11  23
ATOM     23  O   LIG    1       25.866 -27.978   7.475  0.00  0.00    -0.489 OA
BRANCH  23  24
ATOM     24  C   LIG    1       24.917 -29.022   7.644  0.00  0.00    +0.173 C 
ATOM     25  C   LIG    1       25.138 -30.191   6.688  0.00  0.00    +0.044 C 
ATOM     26  C   LIG    1       24.317 -31.299   7.329  0.00  0.00    +0.004 C 
ATOM     27  C   LIG    1       24.462 -31.077   8.836  0.00  0.00    +0.004 C 
ATOM     28  C   LIG    1       25.112 -29.702   8.999  0.00  0.00    +0.044 C 
ENDBRANCH  23  24
ENDBRANCH  11  23
TORSDOF 4
ENDMDL
MODEL 5
REMARK VINA RESULT:      -5.9      4.614      6.772
REMARK  Name = *****
REMARK                            x       y       z     vdW  Elec       q    Type
REMARK                         _______ _______ _______ _____ _____    ______ ____
ROOT
ATOM      1  C   LIG    1       25.911 -32.441   6.774  0.00  0.00    +0.132 C 
ATOM      2  C   LIG    1       25.350 -31.241   7.606  0.00  0.00    +0.011 C 
ATOM      3  C   LIG    1       25.424 -29.927   6.801  0.00  0.00    +0.015 C 
ATOM      4  C   LIG    1       26.325 -31.232   8.815  0.00  0.00    +0.002 C 
ATOM      5  C   LIG    1       25.868 -30.497  10.093  0.00  0.00    +0.001 C 
ATOM      6  C   LIG    1       24.382 -30.739  10.445  0.00  0.00    +0.023 C 
ATOM      7  C   LIG    1       23.465 -30.572   9.223  0.00  0.00    +0.009 C 
ATOM      8  C   LIG    1       23.903 -29.865  11.594  0.00  0.00    -0.041 A 
ATOM      9  C   LIG    1       24.637 -28.756  12.048  0.00  0.00    -0.041 A 
ATOM     10  C   LIG    1       24.163 -28.013  13.144  0.00  0.00    +0.049 A 
ATOM     11  C   LIG    1       22.944 -28.317  13.750  0.00  0.00    +0.121 A 
ATOM     12  C   LIG    1       22.204 -29.398  13.279  0.00  0.00    +0.046 A 
ATOM     13  C   LIG    1       25.953 -28.369  11.421  0.00  0.00    +0.036 C 
ATOM     14  C   LIG    1       22.685 -30.171  12.221  0.00  0.00    +0.008 A 
ATOM     15  C   LIG    1       26.161 -28.991  10.041  0.00  0.00    +0.009 C 
ATOM     16  C   LIG    1       26.602 -32.725   9.099  0.00  0.00    +0.008 C 
ATOM     17  C   LIG    1       23.893 -31.479   8.074  0.00  0.00    +0.011 C 
ATOM     18  C   LIG    1       26.256 -33.500   7.825  0.00  0.00    +0.049 C 
ENDROOT
BRANCH   1  20
ATOM     19  C   LIG    1       24.225 -33.398   4.935  0.00  0.00    +0.007 C 
ATOM     20  C   LIG    1       24.982 -32.964   5.758  0.00  0.00    -0.070 C 
ENDBRANCH   1  20
BRANCH   1  21
ATOM     21  O   LIG    1       27.136 -32.079   6.132  0.00  0.00    -0.376 OA
ATOM     22  H   LIG    1       27.669 -32.889   6.056  0.00  0.00    +0.211 HD
ENDBRANCH   1  21
BRANCH  11  23
ATOM     23  O   LIG    1       22.591 -27.515  14.804  0.00  0.00    -0.489 OA
BRANCH  23  24
ATOM     24  C   LIG    1       21.446 -26.696  14.611  0.00  0.00    +0.173 C 
ATOM     25  C   LIG    1       20.907 -26.749  13.185  0.00  0.00    +0.044 C 
ATOM     26  C   LIG    1       19.509 -26.171  13.342  0.00  0.00    +0.004 C 
ATOM     27  C   LIG    1       19.030 -26.659  14.710  0.00  0.00    +0.004 C 
ATOM     28  C   LIG    1       20.260 -27.249  15.401  0.00  0.00    +0.044 C 
ENDBRANCH  23  24
ENDBRANCH  11  23
TORSDOF 4
ENDMDL
MODEL 6
REMARK VINA RESULT:      -5.8      4.920      6.499
REMARK  Name = *****
REMARK                            x       y       z     vdW  Elec       q    Type
REMARK                         _______ _______ _______ _____ _____    ______ ____
ROOT
ATOM      1  C   LIG    1       25.978 -32.623   6.386  0.00  0.00    +0.132 C 
ATOM      2  C   LIG    1       25.509 -32.458   7.869  0.00  0.00    +0.011 C 
ATOM      3  C   LIG    1       25.168 -33.825   8.498  0.00  0.00    +0.015 C 
ATOM      4  C   LIG    1       24.245 -31.575   7.688  0.00  0.00    +0.002 C 
ATOM      5  C   LIG    1       23.728 -30.808   8.923  0.00  0.00    +0.001 C 
ATOM      6  C   LIG    1       24.857 -30.179   9.774  0.00  0.00    +0.023 C 
ATOM      7  C   LIG    1       25.999 -31.171  10.042  0.00  0.00    +0.009 C 
ATOM      8  C   LIG    1       24.345 -29.589  11.080  0.00  0.00    -0.041 A 
ATOM      9  C   LIG    1       23.065 -29.877  11.581  0.00  0.00    -0.041 A 
ATOM     10  C   LIG    1       22.634 -29.266  12.772  0.00  0.00    +0.049 A 
ATOM     11  C   LIG    1       23.478 -28.427  13.500  0.00  0.00    +0.121 A 
ATOM     12  C   LIG    1       24.757 -28.167  13.017  0.00  0.00    +0.046 A 
ATOM     13  C   LIG    1       22.116 -30.789  10.847  0.00  0.00    +0.036 C 
ATOM     14  C   LIG    1       25.181 -28.732  11.813  0.00  0.00    +0.008 A 
ATOM     15  C   LIG    1       22.815 -31.668   9.810  0.00  0.00    +0.009 C 
ATOM     16  C   LIG    1       24.612 -30.606   6.542  0.00  0.00    +0.008 C 
ATOM     17  C   LIG    1       26.566 -31.737   8.744  0.00  0.00    +0.011 C 
ATOM     18  C   LIG    1       25.771 -31.238   5.769  0.00  0.00    +0.049 C 
ENDROOT
BRANCH   1  20
ATOM     19  C   LIG    1       28.499 -33.469   6.117  0.00  0.00    +0.007 C 
ATOM     20  C   LIG    1       27.368 -33.085   6.235  0.00  0.00    -0.070 C 
ENDBRANCH   1  20
BRANCH   1  21
ATOM     21  O   LIG    1       25.117 -33.523   5.684  0.00  0.00    -0.376 OA
ATOM     22  H   LIG    1       24.213 -33.361   6.003  0.00  0.00    +0.211 HD
ENDBRANCH   1  21
BRANCH  11  23
ATOM     23  O   LIG    1       22.941 -27.898  14.645  0.00  0.00    -0.489 OA
BRANCH  23  24
ATOM     24  C   LIG    1       21.822 -27.039  14.474  0.00  0.00    +0.173 C 
ATOM     25  C   LIG    1       21.441 -26.840  13.010  0.00  0.00    +0.044 C 
ATOM     26  C   LIG    1       20.033 -26.275  13.112  0.00  0.00    +0.004 C 
ATOM     27  C   LIG    1       19.410 -26.981  14.317  0.00  0.00    +0.004 C 
ATOM     28  C   LIG    1       20.558 -27.700  15.025  0.00  0.00    +0.044 C 
ENDBRANCH  23  24
ENDBRANCH  11  23
TORSDOF 4
ENDMDL
MODEL 7
REMARK VINA RESULT:      -5.8      5.144      8.004
REMARK  Name = *****
REMARK                            x       y       z     vdW  Elec       q    Type
REMARK                         _______ _______ _______ _____ _____    ______ ____
ROOT
ATOM      1  C   LIG    1       20.504 -28.394  14.149  0.00  0.00    +0.132 C 
ATOM      2  C   LIG    1       21.482 -29.418  13.485  0.00  0.00    +0.011 C 
ATOM      3  C   LIG    1       21.774 -30.599  14.433  0.00  0.00    +0.015 C 
ATOM      4  C   LIG    1       22.739 -28.532  13.264  0.00  0.00    +0.002 C 
ATOM      5  C   LIG    1       23.781 -29.019  12.235  0.00  0.00    +0.001 C 
ATOM      6  C   LIG    1       23.151 -29.605  10.950  0.00  0.00    +0.023 C 
ATOM      7  C   LIG    1       22.018 -30.595  11.261  0.00  0.00    +0.009 C 
ATOM      8  C   LIG    1       24.183 -30.245  10.033  0.00  0.00    -0.041 A 
ATOM      9  C   LIG    1       25.485 -30.546  10.465  0.00  0.00    -0.041 A 
ATOM     10  C   LIG    1       26.406 -31.098   9.556  0.00  0.00    +0.049 A 
ATOM     11  C   LIG    1       26.032 -31.412   8.249  0.00  0.00    +0.121 A 
ATOM     12  C   LIG    1       24.732 -31.140   7.833  0.00  0.00    +0.046 A 
ATOM     13  C   LIG    1       25.941 -30.246  11.870  0.00  0.00    +0.036 C 
ATOM     14  C   LIG    1       23.821 -30.552   8.711  0.00  0.00    +0.008 A 
ATOM     15  C   LIG    1       24.779 -30.019  12.838  0.00  0.00    +0.009 C 
ATOM     16  C   LIG    1       22.172 -27.149  12.873  0.00  0.00    +0.008 C 
ATOM     17  C   LIG    1       20.943 -29.959  12.137  0.00  0.00    +0.011 C 
ATOM     18  C   LIG    1       20.723 -27.099  13.363  0.00  0.00    +0.049 C 
ENDROOT
BRANCH   1  20
ATOM     19  C   LIG    1       17.938 -29.141  14.132  0.00  0.00    +0.007 C 
ATOM     20  C   LIG    1       19.090 -28.807  14.135  0.00  0.00    -0.070 C 
ENDBRANCH   1  20
BRANCH   1  21
ATOM     21  O   LIG    1       20.891 -28.131  15.500  0.00  0.00    -0.376 OA
ATOM     22  H   LIG    1       21.334 -27.265  15.506  0.00  0.00    +0.211 HD
ENDBRANCH   1  21
BRANCH  11  23
ATOM     23  O   LIG    1       27.019 -31.949   7.465  0.00  0.00    -0.489 OA
BRANCH  23  24
ATOM     24  C   LIG    1       26.586 -32.657   6.311  0.00  0.00    +0.173 C 
ATOM     25  C   LIG    1       26.280 -31.741   5.130  0.00  0.00    +0.044 C 
ATOM     26  C   LIG    1       26.265 -32.712   3.959  0.00  0.00    +0.004 C 
ATOM     27  C   LIG    1       27.342 -33.747   4.289  0.00  0.00    +0.004 C 
ATOM     28  C   LIG    1       27.729 -33.502   5.748  0.00  0.00    +0.044 C 
ENDBRANCH  23  24
ENDBRANCH  11  23
TORSDOF 4
ENDMDL
MODEL 8
REMARK VINA RESULT:      -5.8      5.228      8.693
REMARK  Name = *****
REMARK                            x       y       z     vdW  Elec       q    Type
REMARK                         _______ _______ _______ _____ _____    ______ ____
ROOT
ATOM      1  C   LIG    1       19.126 -27.081  14.529  0.00  0.00    +0.132 C 
ATOM      2  C   LIG    1       20.233 -28.138  14.208  0.00  0.00    +0.011 C 
ATOM      3  C   LIG    1       20.900 -28.653  15.500  0.00  0.00    +0.015 C 
ATOM      4  C   LIG    1       21.214 -27.293  13.350  0.00  0.00    +0.002 C 
ATOM      5  C   LIG    1       22.216 -28.054  12.455  0.00  0.00    +0.001 C 
ATOM      6  C   LIG    1       21.597 -29.276  11.739  0.00  0.00    +0.023 C 
ATOM      7  C   LIG    1       20.770 -30.149  12.696  0.00  0.00    +0.009 C 
ATOM      8  C   LIG    1       22.636 -30.117  11.013  0.00  0.00    -0.041 A 
ATOM      9  C   LIG    1       24.014 -29.971  11.248  0.00  0.00    -0.041 A 
ATOM     10  C   LIG    1       24.927 -30.748  10.513  0.00  0.00    +0.049 A 
ATOM     11  C   LIG    1       24.489 -31.709   9.601  0.00  0.00    +0.121 A 
ATOM     12  C   LIG    1       23.123 -31.872   9.393  0.00  0.00    +0.046 A 
ATOM     13  C   LIG    1       24.545 -28.963  12.234  0.00  0.00    +0.036 C 
ATOM     14  C   LIG    1       22.207 -31.077  10.083  0.00  0.00    +0.008 A 
ATOM     15  C   LIG    1       23.482 -28.473  13.217  0.00  0.00    +0.009 C 
ATOM     16  C   LIG    1       20.299 -26.376  12.508  0.00  0.00    +0.008 C 
ATOM     17  C   LIG    1       19.684 -29.338  13.397  0.00  0.00    +0.011 C 
ATOM     18  C   LIG    1       18.945 -26.314  13.218  0.00  0.00    +0.049 C 
ENDROOT
BRANCH   1  20
ATOM     19  C   LIG    1       16.824 -28.124  15.398  0.00  0.00    +0.007 C 
ATOM     20  C   LIG    1       17.856 -27.657  15.004  0.00  0.00    -0.070 C 
ENDBRANCH   1  20
BRANCH   1  21
ATOM     21  O   LIG    1       19.594 -26.142  15.500  0.00  0.00    -0.376 OA
ATOM     22  H   LIG    1       19.739 -26.633  16.326  0.00  0.00    +0.211 HD
ENDBRANCH   1  21
BRANCH  11  23
ATOM     23  O   LIG    1       25.478 -32.403   8.953  0.00  0.00    -0.489 OA
BRANCH  23  24
ATOM     24  C   LIG    1       25.392 -32.440   7.535  0.00  0.00    +0.173 C 
ATOM     25  C   LIG    1       25.469 -31.056   6.897  0.00  0.00    +0.044 C 
ATOM     26  C   LIG    1       25.782 -31.383   5.444  0.00  0.00    +0.004 C 
ATOM     27  C   LIG    1       26.689 -32.613   5.502  0.00  0.00    +0.004 C 
ATOM     28  C   LIG    1       26.631 -33.112   6.946  0.00  0.00    +0.044 C 
ENDBRANCH  23  24
ENDBRANCH  11  23
TORSDOF 4
ENDMDL
MODEL 9
REMARK VINA RESULT:      -5.7      1.778      3.033
REMARK  Name = *****
REMARK                            x       y       z     vdW  Elec       q    Type
REMARK                         _______ _______ _______ _____ _____    ______ ____
ROOT
ATOM      1  C   LIG    1       24.208 -32.778  12.953  0.00  0.00    +0.132 C 
ATOM      2  C   LIG    1       23.898 -31.633  11.934  0.00  0.00    +0.011 C 
ATOM      3  C   LIG    1       22.398 -31.272  11.946  0.00  0.00    +0.015 C 
ATOM      4  C   LIG    1       24.319 -32.301  10.596  0.00  0.00    +0.002 C 
ATOM      5  C   LIG    1       24.596 -31.374   9.393  0.00  0.00    +0.001 C 
ATOM      6  C   LIG    1       25.381 -30.095   9.770  0.00  0.00    +0.023 C 
ATOM      7  C   LIG    1       24.801 -29.407  11.015  0.00  0.00    +0.009 C 
ATOM      8  C   LIG    1       25.483 -29.110   8.614  0.00  0.00    -0.041 A 
ATOM      9  C   LIG    1       24.683 -29.220   7.465  0.00  0.00    -0.041 A 
ATOM     10  C   LIG    1       24.855 -28.303   6.412  0.00  0.00    +0.049 A 
ATOM     11  C   LIG    1       25.761 -27.247   6.513  0.00  0.00    +0.121 A 
ATOM     12  C   LIG    1       26.531 -27.124   7.666  0.00  0.00    +0.046 A 
ATOM     13  C   LIG    1       23.674 -30.328   7.306  0.00  0.00    +0.036 C 
ATOM     14  C   LIG    1       26.402 -28.053   8.700  0.00  0.00    +0.008 A 
ATOM     15  C   LIG    1       23.316 -31.003   8.630  0.00  0.00    +0.009 C 
ATOM     16  C   LIG    1       25.568 -33.135  10.957  0.00  0.00    +0.008 C 
ATOM     17  C   LIG    1       24.738 -30.360  12.204  0.00  0.00    +0.011 C 
ATOM     18  C   LIG    1       25.538 -33.363  12.470  0.00  0.00    +0.049 C 
ENDROOT
BRANCH   1  20
ATOM     19  C   LIG    1       24.339 -31.978  15.500  0.00  0.00    +0.007 C 
ATOM     20  C   LIG    1       24.285 -32.338  14.357  0.00  0.00    -0.070 C 
ENDBRANCH   1  20
BRANCH   1  21
ATOM     21  O   LIG    1       23.234 -33.820  12.852  0.00  0.00    -0.376 OA
ATOM     22  H   LIG    1       22.390 -33.399  12.618  0.00  0.00    +0.211 HD
ENDBRANCH   1  21
BRANCH  11  23
ATOM     23  O   LIG    1       25.831 -26.421   5.422  0.00  0.00    -0.489 OA
BRANCH  23  24
ATOM     24  C   LIG    1       25.196 -25.157   5.553  0.00  0.00    +0.173 C 
ATOM     25  C   LIG    1       23.829 -25.242   6.226  0.00  0.00    +0.044 C 
ATOM     26  C   LIG    1       23.569 -23.797   6.622  0.00  0.00    +0.004 C 
ATOM     27  C   LIG    1       24.941 -23.238   7.002  0.00  0.00    +0.004 C 
ATOM     28  C   LIG    1       25.962 -24.278   6.541  0.00  0.00    +0.044 C 
ENDBRANCH  23  24
ENDBRANCH  11  23
TORSDOF 4
ENDMDL
