MODEL 1
REMARK VINA RESULT:     -11.0      0.000      0.000
REMARK  Name = *****
REMARK                            x       y       z     vdW  Elec       q    Type
REMARK                         _______ _______ _______ _____ _____    ______ ____
ROOT
ATOM      1  C   LIG    1       22.030 -20.816   4.890  0.00  0.00    +0.014 C 
ATOM      2  C   LIG    1       23.389 -21.422   5.345  0.00  0.00    -0.003 C 
ATOM      3  C   LIG    1       23.197 -22.963   5.419  0.00  0.00    +0.121 C 
ATOM      4  C   LIG    1       22.979 -23.315   6.895  0.00  0.00    +0.032 C 
ATOM      5  C   LIG    1       22.845 -21.989   7.635  0.00  0.00    +0.007 C 
ATOM      6  C   LIG    1       23.666 -20.988   6.814  0.00  0.00    +0.001 C 
ATOM      7  C   LIG    1       25.147 -20.837   7.263  0.00  0.00    +0.001 C 
ATOM      8  C   LIG    1       25.997 -20.174   6.158  0.00  0.00    +0.023 C 
ATOM      9  C   LIG    1       27.466 -20.050   6.521  0.00  0.00    -0.041 A 
ATOM     10  C   LIG    1       28.046 -20.822   7.541  0.00  0.00    -0.040 A 
ATOM     11  C   LIG    1       27.217 -21.723   8.415  0.00  0.00    +0.036 C 
ATOM     12  C   LIG    1       29.420 -20.697   7.797  0.00  0.00    +0.050 A 
ATOM     13  C   LIG    1       30.202 -19.835   7.030  0.00  0.00    +0.132 A 
ATOM     14  C   LIG    1       29.632 -19.054   6.032  0.00  0.00    +0.046 A 
ATOM     15  C   LIG    1       28.269 -19.168   5.779  0.00  0.00    +0.008 A 
ATOM     16  C   LIG    1       25.871 -20.932   4.829  0.00  0.00    +0.009 C 
ATOM     17  C   LIG    1       25.863 -22.088   7.803  0.00  0.00    +0.009 C 
ATOM     18  C   LIG    1       24.437 -20.930   4.332  0.00  0.00    +0.010 C 
ENDROOT
BRANCH   3  19
ATOM     19  O   LIG    1       24.271 -23.710   4.873  0.00  0.00    -0.391 OA
ATOM     20  H   LIG    1       25.102 -23.409   5.273  0.00  0.00    +0.210 HD
ENDBRANCH   3  19
BRANCH  13  21
ATOM     21  O   LIG    1       31.554 -19.731   7.396  0.00  0.00    -0.422 OA
BRANCH  21  22
ATOM     22  C   LIG    1       31.929 -19.799   8.729  0.00  0.00    +0.344 C 
ATOM     23  O   LIG    1       32.336 -20.771   9.345  0.00  0.00    -0.244 OA
BRANCH  22  24
ATOM     24  C   LIG    1       31.704 -18.474   9.354  0.00  0.00    +0.059 A 
ATOM     25  C   LIG    1       32.432 -17.335   8.979  0.00  0.00    +0.015 A 
ATOM     26  C   LIG    1       32.189 -16.115   9.609  0.00  0.00    +0.001 A 
ATOM     27  C   LIG    1       31.224 -16.027  10.614  0.00  0.00    +0.000 A 
ATOM     28  C   LIG    1       30.503 -17.157  10.994  0.00  0.00    +0.001 A 
ATOM     29  C   LIG    1       30.743 -18.380  10.371  0.00  0.00    +0.015 A 
ENDBRANCH  22  24
ENDBRANCH  21  22
ENDBRANCH  13  21
TORSDOF 4
ENDMDL
MODEL 2
REMARK VINA RESULT:      -9.3      5.868      9.285
REMARK  Name = *****
REMARK                            x       y       z     vdW  Elec       q    Type
REMARK                         _______ _______ _______ _____ _____    ______ ____
ROOT
ATOM      1  C   LIG    1       26.391 -32.534   8.808  0.00  0.00    +0.014 C 
ATOM      2  C   LIG    1       25.406 -31.444   8.295  0.00  0.00    -0.003 C 
ATOM      3  C   LIG    1       23.975 -32.044   8.391  0.00  0.00    +0.121 C 
ATOM      4  C   LIG    1       23.592 -32.512   6.982  0.00  0.00    +0.032 C 
ATOM      5  C   LIG    1       24.848 -32.372   6.130  0.00  0.00    +0.007 C 
ATOM      6  C   LIG    1       25.642 -31.229   6.772  0.00  0.00    +0.001 C 
ATOM      7  C   LIG    1       25.350 -29.820   6.180  0.00  0.00    +0.001 C 
ATOM      8  C   LIG    1       25.832 -28.707   7.135  0.00  0.00    +0.023 C 
ATOM      9  C   LIG    1       25.523 -27.308   6.632  0.00  0.00    -0.041 A 
ATOM     10  C   LIG    1       24.552 -27.072   5.645  0.00  0.00    -0.040 A 
ATOM     11  C   LIG    1       23.853 -28.203   4.942  0.00  0.00    +0.036 C 
ATOM     12  C   LIG    1       24.278 -25.751   5.257  0.00  0.00    +0.050 A 
ATOM     13  C   LIG    1       24.946 -24.688   5.863  0.00  0.00    +0.132 A 
ATOM     14  C   LIG    1       25.921 -24.915   6.826  0.00  0.00    +0.046 A 
ATOM     15  C   LIG    1       26.202 -26.222   7.210  0.00  0.00    +0.008 A 
ATOM     16  C   LIG    1       25.233 -28.879   8.537  0.00  0.00    +0.009 C 
ATOM     17  C   LIG    1       23.916 -29.527   5.705  0.00  0.00    +0.009 C 
ATOM     18  C   LIG    1       25.662 -30.197   9.158  0.00  0.00    +0.010 C 
ENDROOT
BRANCH   3  19
ATOM     19  O   LIG    1       23.003 -31.152   8.910  0.00  0.00    -0.391 OA
ATOM     20  H   LIG    1       23.228 -30.939   9.830  0.00  0.00    +0.210 HD
ENDBRANCH   3  19
BRANCH  13  21
ATOM     21  O   LIG    1       24.649 -23.406   5.369  0.00  0.00    -0.422 OA
BRANCH  21  22
ATOM     22  C   LIG    1       23.875 -22.529   6.112  0.00  0.00    +0.344 C 
ATOM     23  O   LIG    1       23.352 -22.724   7.197  0.00  0.00    -0.244 OA
BRANCH  22  24
ATOM     24  C   LIG    1       23.712 -21.271   5.343  0.00  0.00    +0.059 A 
ATOM     25  C   LIG    1       22.602 -20.431   5.509  0.00  0.00    +0.015 A 
ATOM     26  C   LIG    1       22.492 -19.265   4.751  0.00  0.00    +0.001 A 
ATOM     27  C   LIG    1       23.484 -18.937   3.826  0.00  0.00    +0.000 A 
ATOM     28  C   LIG    1       24.587 -19.772   3.655  0.00  0.00    +0.001 A 
ATOM     29  C   LIG    1       24.701 -20.940   4.406  0.00  0.00    +0.015 A 
ENDBRANCH  22  24
ENDBRANCH  21  22
ENDBRANCH  13  21
TORSDOF 4
ENDMDL
MODEL 3
REMARK VINA RESULT:      -9.2      1.475      2.878
REMARK  Name = *****
REMARK                            x       y       z     vdW  Elec       q    Type
REMARK                         _______ _______ _______ _____ _____    ______ ____
ROOT
ATOM      1  C   LIG    1       21.650 -21.866   4.976  0.00  0.00    +0.014 C 
ATOM      2  C   LIG    1       22.826 -20.897   5.293  0.00  0.00    -0.003 C 
ATOM      3  C   LIG    1       22.342 -19.464   4.934  0.00  0.00    +0.121 C 
ATOM      4  C   LIG    1       22.932 -19.124   3.561  0.00  0.00    +0.032 C 
ATOM      5  C   LIG    1       23.576 -20.406   3.044  0.00  0.00    +0.007 C 
ATOM      6  C   LIG    1       23.991 -21.180   4.300  0.00  0.00    +0.001 C 
ATOM      7  C   LIG    1       25.444 -20.906   4.784  0.00  0.00    +0.001 C 
ATOM      8  C   LIG    1       25.636 -21.359   6.248  0.00  0.00    +0.023 C 
ATOM      9  C   LIG    1       27.022 -21.066   6.791  0.00  0.00    -0.041 A 
ATOM     10  C   LIG    1       27.873 -20.125   6.187  0.00  0.00    -0.040 A 
ATOM     11  C   LIG    1       27.506 -19.447   4.895  0.00  0.00    +0.036 C 
ATOM     12  C   LIG    1       29.125 -19.863   6.765  0.00  0.00    +0.050 A 
ATOM     13  C   LIG    1       29.506 -20.512   7.939  0.00  0.00    +0.132 A 
ATOM     14  C   LIG    1       28.679 -21.458   8.531  0.00  0.00    +0.046 A 
ATOM     15  C   LIG    1       27.440 -21.727   7.958  0.00  0.00    +0.008 A 
ATOM     16  C   LIG    1       24.590 -20.717   7.170  0.00  0.00    +0.009 C 
ATOM     17  C   LIG    1       26.007 -19.487   4.590  0.00  0.00    +0.009 C 
ATOM     18  C   LIG    1       23.184 -21.128   6.771  0.00  0.00    +0.010 C 
ENDROOT
BRANCH   3  19
ATOM     19  O   LIG    1       22.686 -18.477   5.892  0.00  0.00    -0.391 OA
ATOM     20  H   LIG    1       21.954 -17.845   5.972  0.00  0.00    +0.210 HD
ENDBRANCH   3  19
BRANCH  13  21
ATOM     21  O   LIG    1       30.799 -20.231   8.412  0.00  0.00    -0.422 OA
BRANCH  21  22
ATOM     22  C   LIG    1       31.456 -19.076   8.017  0.00  0.00    +0.344 C 
ATOM     23  O   LIG    1       32.001 -18.851   6.948  0.00  0.00    -0.244 OA
BRANCH  22  24
ATOM     24  C   LIG    1       31.458 -18.120   9.150  0.00  0.00    +0.059 A 
ATOM     25  C   LIG    1       30.619 -18.275  10.263  0.00  0.00    +0.015 A 
ATOM     26  C   LIG    1       30.651 -17.338  11.295  0.00  0.00    +0.001 A 
ATOM     27  C   LIG    1       31.516 -16.245  11.220  0.00  0.00    +0.000 A 
ATOM     28  C   LIG    1       32.347 -16.084  10.113  0.00  0.00    +0.001 A 
ATOM     29  C   LIG    1       32.317 -17.015   9.077  0.00  0.00    +0.015 A 
ENDBRANCH  22  24
ENDBRANCH  21  22
ENDBRANCH  13  21
TORSDOF 4
ENDMDL
MODEL 4
REMARK VINA RESULT:      -8.6      5.835      8.800
REMARK  Name = *****
REMARK                            x       y       z     vdW  Elec       q    Type
REMARK                         _______ _______ _______ _____ _____    ______ ____
ROOT
ATOM      1  C   LIG    1       26.292 -32.611   9.221  0.00  0.00    +0.014 C 
ATOM      2  C   LIG    1       25.320 -31.543   8.642  0.00  0.00    -0.003 C 
ATOM      3  C   LIG    1       23.886 -32.138   8.732  0.00  0.00    +0.121 C 
ATOM      4  C   LIG    1       23.534 -32.664   7.336  0.00  0.00    +0.032 C 
ATOM      5  C   LIG    1       24.808 -32.560   6.506  0.00  0.00    +0.007 C 
ATOM      6  C   LIG    1       25.589 -31.392   7.117  0.00  0.00    +0.001 C 
ATOM      7  C   LIG    1       25.311 -30.009   6.461  0.00  0.00    +0.001 C 
ATOM      8  C   LIG    1       25.774 -28.856   7.379  0.00  0.00    +0.023 C 
ATOM      9  C   LIG    1       25.477 -27.480   6.812  0.00  0.00    -0.041 A 
ATOM     10  C   LIG    1       24.528 -27.284   5.795  0.00  0.00    -0.040 A 
ATOM     11  C   LIG    1       23.843 -28.443   5.124  0.00  0.00    +0.036 C 
ATOM     12  C   LIG    1       24.264 -25.981   5.346  0.00  0.00    +0.050 A 
ATOM     13  C   LIG    1       24.920 -24.893   5.922  0.00  0.00    +0.132 A 
ATOM     14  C   LIG    1       25.874 -25.081   6.914  0.00  0.00    +0.046 A 
ATOM     15  C   LIG    1       26.145 -26.371   7.358  0.00  0.00    +0.008 A 
ATOM     16  C   LIG    1       25.144 -28.970   8.774  0.00  0.00    +0.009 C 
ATOM     17  C   LIG    1       23.888 -29.735   5.943  0.00  0.00    +0.009 C 
ATOM     18  C   LIG    1       25.559 -30.261   9.458  0.00  0.00    +0.010 C 
ENDROOT
BRANCH   3  19
ATOM     19  O   LIG    1       22.905 -31.225   9.193  0.00  0.00    -0.391 OA
ATOM     20  H   LIG    1       23.075 -31.020  10.125  0.00  0.00    +0.210 HD
ENDBRANCH   3  19
BRANCH  13  21
ATOM     21  O   LIG    1       24.635 -23.634   5.369  0.00  0.00    -0.422 OA
BRANCH  21  22
ATOM     22  C   LIG    1       24.038 -22.647   6.138  0.00  0.00    +0.344 C 
ATOM     23  O   LIG    1       22.846 -22.450   6.312  0.00  0.00    -0.244 OA
BRANCH  22  24
ATOM     24  C   LIG    1       25.099 -21.782   6.708  0.00  0.00    +0.059 A 
ATOM     25  C   LIG    1       26.016 -21.091   5.901  0.00  0.00    +0.015 A 
ATOM     26  C   LIG    1       27.002 -20.300   6.490  0.00  0.00    +0.001 A 
ATOM     27  C   LIG    1       27.078 -20.197   7.880  0.00  0.00    +0.000 A 
ATOM     28  C   LIG    1       26.173 -20.886   8.684  0.00  0.00    +0.001 A 
ATOM     29  C   LIG    1       25.187 -21.681   8.103  0.00  0.00    +0.015 A 
ENDBRANCH  22  24
ENDBRANCH  21  22
ENDBRANCH  13  21
TORSDOF 4
ENDMDL
