MODEL 1
REMARK VINA RESULT:      -8.8      0.000      0.000
REMARK  Name = *****
REMARK                            x       y       z     vdW  Elec       q    Type
REMARK                         _______ _______ _______ _____ _____    ______ ____
ROOT
ATOM      1  C   LIG    1       29.066 -20.225   8.215  0.00  0.00    +0.039 C 
ENDROOT
BRANCH   1   2
ATOM      2  C   LIG    1       27.709 -20.351   7.566  0.00  0.00    -0.047 A 
ATOM      3  C   LIG    1       27.549 -20.216   6.182  0.00  0.00    +0.004 A 
ATOM      4  C   LIG    1       26.286 -20.373   5.600  0.00  0.00    +0.004 A 
ATOM      5  C   LIG    1       25.150 -20.692   6.367  0.00  0.00    -0.042 A 
ATOM      6  C   LIG    1       25.323 -20.791   7.759  0.00  0.00    +0.004 A 
ATOM      7  C   LIG    1       26.581 -20.622   8.342  0.00  0.00    +0.004 A 
BRANCH   5   8
ATOM      8  C   LIG    1       23.796 -20.956   5.689  0.00  0.00    -0.013 C 
ATOM      9  C   LIG    1       22.837 -19.745   5.726  0.00  0.00    +0.015 C 
ATOM     10  C   LIG    1       23.086 -22.119   6.416  0.00  0.00    +0.015 C 
ATOM     11  C   LIG    1       24.006 -21.334   4.209  0.00  0.00    +0.015 C 
ENDBRANCH   5   8
ENDBRANCH   1   2
BRANCH   1  13
ATOM     12  C   LIG    1       30.702 -19.181   6.545  0.00  0.00    +0.009 C 
ATOM     13  C   LIG    1       29.850 -18.957   7.809  0.00  0.00    +0.004 C 
BRANCH  13  14
ATOM     14  C   LIG    1       30.788 -18.481   8.949  0.00  0.00    +0.088 C 
BRANCH  14  15
ATOM     15  N   LIG    1       30.655 -17.080   9.390  0.00  0.00    -0.302 NA
ATOM     16  C   LIG    1       30.223 -17.005  10.800  0.00  0.00    +0.084 C 
ATOM     17  C   LIG    1       31.309 -17.415  11.804  0.00  0.00    +0.015 C 
ATOM     18  C   LIG    1       32.616 -16.658  11.574  0.00  0.00    +0.002 C 
ATOM     19  C   LIG    1       33.025 -16.676  10.103  0.00  0.00    +0.015 C 
ATOM     20  C   LIG    1       31.857 -16.252   9.213  0.00  0.00    +0.084 C 
ENDBRANCH  14  15
ENDBRANCH  13  14
ENDBRANCH   1  13
TORSDOF 5
ENDMDL
MODEL 2
REMARK VINA RESULT:      -8.6      2.990      7.970
REMARK  Name = *****
REMARK                            x       y       z     vdW  Elec       q    Type
REMARK                         _______ _______ _______ _____ _____    ______ ____
ROOT
ATOM      1  C   LIG    1       24.347 -20.685   6.728  0.00  0.00    +0.039 C 
ENDROOT
BRANCH   1   2
ATOM      2  C   LIG    1       25.817 -20.475   6.997  0.00  0.00    -0.047 A 
ATOM      3  C   LIG    1       26.720 -20.232   5.955  0.00  0.00    +0.004 A 
ATOM      4  C   LIG    1       28.072 -20.004   6.234  0.00  0.00    +0.004 A 
ATOM      5  C   LIG    1       28.566 -19.987   7.552  0.00  0.00    -0.042 A 
ATOM      6  C   LIG    1       27.652 -20.266   8.584  0.00  0.00    +0.004 A 
ATOM      7  C   LIG    1       26.304 -20.505   8.305  0.00  0.00    +0.004 A 
BRANCH   5   8
ATOM      8  C   LIG    1       30.036 -19.637   7.833  0.00  0.00    -0.013 C 
ATOM      9  C   LIG    1       30.837 -19.255   6.568  0.00  0.00    +0.015 C 
ATOM     10  C   LIG    1       30.736 -20.864   8.459  0.00  0.00    +0.015 C 
ATOM     11  C   LIG    1       30.122 -18.448   8.811  0.00  0.00    +0.015 C 
ENDBRANCH   5   8
ENDBRANCH   1   2
BRANCH   1  13
ATOM     12  C   LIG    1       22.540 -21.286   5.017  0.00  0.00    +0.009 C 
ATOM     13  C   LIG    1       24.038 -21.357   5.372  0.00  0.00    +0.004 C 
BRANCH  13  14
ATOM     14  C   LIG    1       24.468 -22.847   5.367  0.00  0.00    +0.088 C 
BRANCH  14  15
ATOM     15  N   LIG    1       24.417 -23.568   6.653  0.00  0.00    -0.302 NA
ATOM     16  C   LIG    1       23.458 -24.689   6.597  0.00  0.00    +0.084 C 
ATOM     17  C   LIG    1       23.934 -25.870   5.740  0.00  0.00    +0.015 C 
ATOM     18  C   LIG    1       25.331 -26.342   6.141  0.00  0.00    +0.002 C 
ATOM     19  C   LIG    1       26.305 -25.173   6.267  0.00  0.00    +0.015 C 
ATOM     20  C   LIG    1       25.711 -24.068   7.141  0.00  0.00    +0.084 C 
ENDBRANCH  14  15
ENDBRANCH  13  14
ENDBRANCH   1  13
TORSDOF 5
ENDMDL
MODEL 3
REMARK VINA RESULT:      -8.5      5.879      8.978
REMARK  Name = *****
REMARK                            x       y       z     vdW  Elec       q    Type
REMARK                         _______ _______ _______ _____ _____    ______ ____
ROOT
ATOM      1  C   LIG    1       25.125 -24.932   5.126  0.00  0.00    +0.039 C 
ENDROOT
BRANCH   1   2
ATOM      2  C   LIG    1       25.192 -26.235   5.886  0.00  0.00    -0.047 A 
ATOM      3  C   LIG    1       26.064 -26.402   6.968  0.00  0.00    +0.004 A 
ATOM      4  C   LIG    1       26.081 -27.607   7.678  0.00  0.00    +0.004 A 
ATOM      5  C   LIG    1       25.221 -28.673   7.354  0.00  0.00    -0.042 A 
ATOM      6  C   LIG    1       24.375 -28.500   6.243  0.00  0.00    +0.004 A 
ATOM      7  C   LIG    1       24.367 -27.301   5.526  0.00  0.00    +0.004 A 
BRANCH   5   8
ATOM      8  C   LIG    1       25.193 -29.947   8.213  0.00  0.00    -0.013 C 
ATOM      9  C   LIG    1       23.859 -30.160   8.965  0.00  0.00    +0.015 C 
ATOM     10  C   LIG    1       26.306 -29.861   9.280  0.00  0.00    +0.015 C 
ATOM     11  C   LIG    1       25.429 -31.189   7.331  0.00  0.00    +0.015 C 
ENDBRANCH   5   8
ENDBRANCH   1   2
BRANCH   1  13
ATOM     12  C   LIG    1       23.331 -24.007   6.700  0.00  0.00    +0.009 C 
ATOM     13  C   LIG    1       24.659 -23.726   5.970  0.00  0.00    +0.004 C 
BRANCH  13  14
ATOM     14  C   LIG    1       24.475 -22.458   5.096  0.00  0.00    +0.088 C 
BRANCH  14  15
ATOM     15  N   LIG    1       24.711 -21.153   5.742  0.00  0.00    -0.302 NA
ATOM     16  C   LIG    1       25.445 -20.240   4.843  0.00  0.00    +0.084 C 
ATOM     17  C   LIG    1       24.606 -19.719   3.669  0.00  0.00    +0.015 C 
ATOM     18  C   LIG    1       23.285 -19.109   4.136  0.00  0.00    +0.002 C 
ATOM     19  C   LIG    1       22.560 -20.024   5.120  0.00  0.00    +0.015 C 
ATOM     20  C   LIG    1       23.505 -20.473   6.235  0.00  0.00    +0.084 C 
ENDBRANCH  14  15
ENDBRANCH  13  14
ENDBRANCH   1  13
TORSDOF 5
ENDMDL
MODEL 4
REMARK VINA RESULT:      -8.5      2.958      8.025
REMARK  Name = *****
REMARK                            x       y       z     vdW  Elec       q    Type
REMARK                         _______ _______ _______ _____ _____    ______ ____
ROOT
ATOM      1  C   LIG    1       24.833 -20.690   6.103  0.00  0.00    +0.039 C 
ENDROOT
BRANCH   1   2
ATOM      2  C   LIG    1       26.218 -20.361   6.609  0.00  0.00    -0.047 A 
ATOM      3  C   LIG    1       26.527 -20.420   7.973  0.00  0.00    +0.004 A 
ATOM      4  C   LIG    1       27.827 -20.146   8.412  0.00  0.00    +0.004 A 
ATOM      5  C   LIG    1       28.863 -19.827   7.514  0.00  0.00    -0.042 A 
ATOM      6  C   LIG    1       28.527 -19.739   6.151  0.00  0.00    +0.004 A 
ATOM      7  C   LIG    1       27.226 -20.001   5.713  0.00  0.00    +0.004 A 
BRANCH   5   8
ATOM      8  C   LIG    1       30.302 -19.627   8.016  0.00  0.00    -0.013 C 
ATOM      9  C   LIG    1       30.899 -20.876   8.703  0.00  0.00    +0.015 C 
ATOM     10  C   LIG    1       30.319 -18.485   9.056  0.00  0.00    +0.015 C 
ATOM     11  C   LIG    1       31.230 -19.259   6.841  0.00  0.00    +0.015 C 
ENDBRANCH   5   8
ENDBRANCH   1   2
BRANCH   1  13
ATOM     12  C   LIG    1       23.621 -21.078   3.882  0.00  0.00    +0.009 C 
ATOM     13  C   LIG    1       24.812 -21.478   4.775  0.00  0.00    +0.004 C 
BRANCH  13  14
ATOM     14  C   LIG    1       24.739 -23.007   5.025  0.00  0.00    +0.088 C 
BRANCH  14  15
ATOM     15  N   LIG    1       24.638 -23.457   6.426  0.00  0.00    -0.302 NA
ATOM     16  C   LIG    1       23.539 -24.429   6.594  0.00  0.00    +0.084 C 
ATOM     17  C   LIG    1       23.829 -25.804   5.977  0.00  0.00    +0.015 C 
ATOM     18  C   LIG    1       25.164 -26.375   6.451  0.00  0.00    +0.002 C 
ATOM     19  C   LIG    1       26.286 -25.345   6.342  0.00  0.00    +0.015 C 
ATOM     20  C   LIG    1       25.871 -24.024   6.992  0.00  0.00    +0.084 C 
ENDBRANCH  14  15
ENDBRANCH  13  14
ENDBRANCH   1  13
TORSDOF 5
ENDMDL
MODEL 5
REMARK VINA RESULT:      -8.3      2.911      7.685
REMARK  Name = *****
REMARK                            x       y       z     vdW  Elec       q    Type
REMARK                         _______ _______ _______ _____ _____    ______ ____
ROOT
ATOM      1  C   LIG    1       24.920 -22.833   7.749  0.00  0.00    +0.039 C 
ENDROOT
BRANCH   1   2
ATOM      2  C   LIG    1       26.101 -21.893   7.714  0.00  0.00    -0.047 A 
ATOM      3  C   LIG    1       26.187 -20.800   8.584  0.00  0.00    +0.004 A 
ATOM      4  C   LIG    1       27.309 -19.964   8.556  0.00  0.00    +0.004 A 
ATOM      5  C   LIG    1       28.388 -20.199   7.683  0.00  0.00    -0.042 A 
ATOM      6  C   LIG    1       28.270 -21.282   6.793  0.00  0.00    +0.004 A 
ATOM      7  C   LIG    1       27.144 -22.109   6.813  0.00  0.00    +0.004 A 
BRANCH   5   8
ATOM      8  C   LIG    1       29.649 -19.323   7.743  0.00  0.00    -0.013 C 
ATOM      9  C   LIG    1       29.638 -18.296   8.899  0.00  0.00    +0.015 C 
ATOM     10  C   LIG    1       29.771 -18.524   6.427  0.00  0.00    +0.015 C 
ATOM     11  C   LIG    1       30.902 -20.205   7.921  0.00  0.00    +0.015 C 
ENDBRANCH   5   8
ENDBRANCH   1   2
BRANCH   1  13
ATOM     12  C   LIG    1       22.535 -23.143   6.871  0.00  0.00    +0.009 C 
ATOM     13  C   LIG    1       23.560 -22.158   7.465  0.00  0.00    +0.004 C 
BRANCH  13  14
ATOM     14  C   LIG    1       23.713 -20.965   6.485  0.00  0.00    +0.088 C 
BRANCH  14  15
ATOM     15  N   LIG    1       23.279 -21.179   5.092  0.00  0.00    -0.302 NA
ATOM     16  C   LIG    1       22.211 -20.231   4.717  0.00  0.00    +0.084 C 
ATOM     17  C   LIG    1       22.698 -18.786   4.542  0.00  0.00    +0.015 C 
ATOM     18  C   LIG    1       23.891 -18.695   3.593  0.00  0.00    +0.002 C 
ATOM     19  C   LIG    1       24.965 -19.724   3.939  0.00  0.00    +0.015 C 
ATOM     20  C   LIG    1       24.351 -21.116   4.087  0.00  0.00    +0.084 C 
ENDBRANCH  14  15
ENDBRANCH  13  14
ENDBRANCH   1  13
TORSDOF 5
ENDMDL
MODEL 6
REMARK VINA RESULT:      -8.2      6.574     10.293
REMARK  Name = *****
REMARK                            x       y       z     vdW  Elec       q    Type
REMARK                         _______ _______ _______ _____ _____    ______ ____
ROOT
ATOM      1  C   LIG    1       24.228 -26.893   6.057  0.00  0.00    +0.039 C 
ENDROOT
BRANCH   1   2
ATOM      2  C   LIG    1       24.460 -25.450   6.437  0.00  0.00    -0.047 A 
ATOM      3  C   LIG    1       25.739 -24.978   6.754  0.00  0.00    +0.004 A 
ATOM      4  C   LIG    1       25.934 -23.628   7.068  0.00  0.00    +0.004 A 
ATOM      5  C   LIG    1       24.874 -22.703   7.056  0.00  0.00    -0.042 A 
ATOM      6  C   LIG    1       23.590 -23.201   6.769  0.00  0.00    +0.004 A 
ATOM      7  C   LIG    1       23.393 -24.551   6.467  0.00  0.00    +0.004 A 
BRANCH   5   8
ATOM      8  C   LIG    1       25.134 -21.209   7.309  0.00  0.00    -0.013 C 
ATOM      9  C   LIG    1       25.867 -20.923   8.639  0.00  0.00    +0.015 C 
ATOM     10  C   LIG    1       23.783 -20.464   7.366  0.00  0.00    +0.015 C 
ATOM     11  C   LIG    1       25.993 -20.619   6.172  0.00  0.00    +0.015 C 
ENDBRANCH   5   8
ENDBRANCH   1   2
BRANCH   1  13
ATOM     12  C   LIG    1       26.368 -27.242   4.697  0.00  0.00    +0.009 C 
ATOM     13  C   LIG    1       25.520 -27.723   5.891  0.00  0.00    +0.004 C 
BRANCH  13  14
ATOM     14  C   LIG    1       25.204 -29.228   5.688  0.00  0.00    +0.088 C 
BRANCH  14  15
ATOM     15  N   LIG    1       24.195 -29.830   6.579  0.00  0.00    -0.302 NA
ATOM     16  C   LIG    1       23.944 -31.240   6.221  0.00  0.00    +0.084 C 
ATOM     17  C   LIG    1       25.098 -32.186   6.578  0.00  0.00    +0.015 C 
ATOM     18  C   LIG    1       25.525 -32.044   8.037  0.00  0.00    +0.002 C 
ATOM     19  C   LIG    1       25.717 -30.580   8.427  0.00  0.00    +0.015 C 
ATOM     20  C   LIG    1       24.502 -29.748   8.015  0.00  0.00    +0.084 C 
ENDBRANCH  14  15
ENDBRANCH  13  14
ENDBRANCH   1  13
TORSDOF 5
ENDMDL
MODEL 7
REMARK VINA RESULT:      -8.0      3.502      5.554
REMARK  Name = *****
REMARK                            x       y       z     vdW  Elec       q    Type
REMARK                         _______ _______ _______ _____ _____    ______ ____
ROOT
ATOM      1  C   LIG    1       24.498 -21.507   7.601  0.00  0.00    +0.039 C 
ENDROOT
BRANCH   1   2
ATOM      2  C   LIG    1       24.723 -22.934   7.160  0.00  0.00    -0.047 A 
ATOM      3  C   LIG    1       25.990 -23.526   7.233  0.00  0.00    +0.004 A 
ATOM      4  C   LIG    1       26.166 -24.861   6.853  0.00  0.00    +0.004 A 
ATOM      5  C   LIG    1       25.091 -25.655   6.411  0.00  0.00    -0.042 A 
ATOM      6  C   LIG    1       23.833 -25.034   6.312  0.00  0.00    +0.004 A 
ATOM      7  C   LIG    1       23.659 -23.698   6.680  0.00  0.00    +0.004 A 
BRANCH   5   8
ATOM      8  C   LIG    1       25.296 -27.145   6.093  0.00  0.00    -0.013 C 
ATOM      9  C   LIG    1       24.017 -27.855   5.598  0.00  0.00    +0.015 C 
ATOM     10  C   LIG    1       25.754 -27.875   7.375  0.00  0.00    +0.015 C 
ATOM     11  C   LIG    1       26.371 -27.313   5.000  0.00  0.00    +0.015 C 
ENDBRANCH   5   8
ENDBRANCH   1   2
BRANCH   1  13
ATOM     12  C   LIG    1       25.328 -20.814   5.281  0.00  0.00    +0.009 C 
ATOM     13  C   LIG    1       25.276 -20.457   6.779  0.00  0.00    +0.004 C 
BRANCH  13  14
ATOM     14  C   LIG    1       26.732 -20.300   7.292  0.00  0.00    +0.088 C 
BRANCH  14  15
ATOM     15  N   LIG    1       27.814 -20.740   6.392  0.00  0.00    -0.302 NA
ATOM     16  C   LIG    1       28.439 -19.588   5.711  0.00  0.00    +0.084 C 
ATOM     17  C   LIG    1       29.304 -18.717   6.632  0.00  0.00    +0.015 C 
ATOM     18  C   LIG    1       30.333 -19.543   7.401  0.00  0.00    +0.002 C 
ATOM     19  C   LIG    1       29.698 -20.772   8.047  0.00  0.00    +0.015 C 
ATOM     20  C   LIG    1       28.865 -21.549   7.026  0.00  0.00    +0.084 C 
ENDBRANCH  14  15
ENDBRANCH  13  14
ENDBRANCH   1  13
TORSDOF 5
ENDMDL
MODEL 8
REMARK VINA RESULT:      -8.0      6.393      9.917
REMARK  Name = *****
REMARK                            x       y       z     vdW  Elec       q    Type
REMARK                         _______ _______ _______ _____ _____    ______ ____
ROOT
ATOM      1  C   LIG    1       24.274 -26.978   5.688  0.00  0.00    +0.039 C 
ENDROOT
BRANCH   1   2
ATOM      2  C   LIG    1       24.508 -25.566   6.169  0.00  0.00    -0.047 A 
ATOM      3  C   LIG    1       25.801 -25.078   6.391  0.00  0.00    +0.004 A 
ATOM      4  C   LIG    1       25.993 -23.754   6.802  0.00  0.00    +0.004 A 
ATOM      5  C   LIG    1       24.914 -22.869   6.985  0.00  0.00    -0.042 A 
ATOM      6  C   LIG    1       23.620 -23.386   6.791  0.00  0.00    +0.004 A 
ATOM      7  C   LIG    1       23.428 -24.711   6.391  0.00  0.00    +0.004 A 
BRANCH   5   8
ATOM      8  C   LIG    1       25.162 -21.395   7.342  0.00  0.00    -0.013 C 
ATOM      9  C   LIG    1       25.886 -21.196   8.693  0.00  0.00    +0.015 C 
ATOM     10  C   LIG    1       23.804 -20.666   7.444  0.00  0.00    +0.015 C 
ATOM     11  C   LIG    1       26.021 -20.721   6.253  0.00  0.00    +0.015 C 
ENDBRANCH   5   8
ENDBRANCH   1   2
BRANCH   1  13
ATOM     12  C   LIG    1       25.386 -29.260   5.357  0.00  0.00    +0.009 C 
ATOM     13  C   LIG    1       25.262 -28.017   6.261  0.00  0.00    +0.004 C 
BRANCH  13  14
ATOM     14  C   LIG    1       24.833 -28.486   7.676  0.00  0.00    +0.088 C 
BRANCH  14  15
ATOM     15  N   LIG    1       25.213 -29.855   8.076  0.00  0.00    -0.302 NA
ATOM     16  C   LIG    1       26.206 -29.833   9.168  0.00  0.00    +0.084 C 
ATOM     17  C   LIG    1       25.630 -29.396  10.521  0.00  0.00    +0.015 C 
ATOM     18  C   LIG    1       24.389 -30.202  10.903  0.00  0.00    +0.002 C 
ATOM     19  C   LIG    1       23.394 -30.282   9.748  0.00  0.00    +0.015 C 
ATOM     20  C   LIG    1       24.093 -30.726   8.463  0.00  0.00    +0.084 C 
ENDBRANCH  14  15
ENDBRANCH  13  14
ENDBRANCH   1  13
TORSDOF 5
ENDMDL
MODEL 9
REMARK VINA RESULT:      -8.0      7.160     11.156
REMARK  Name = *****
REMARK                            x       y       z     vdW  Elec       q    Type
REMARK                         _______ _______ _______ _____ _____    ______ ____
ROOT
ATOM      1  C   LIG    1       24.900 -27.305   5.603  0.00  0.00    +0.039 C 
ENDROOT
BRANCH   1   2
ATOM      2  C   LIG    1       24.895 -25.880   6.101  0.00  0.00    -0.047 A 
ATOM      3  C   LIG    1       26.086 -25.221   6.431  0.00  0.00    +0.004 A 
ATOM      4  C   LIG    1       26.057 -23.888   6.856  0.00  0.00    +0.004 A 
ATOM      5  C   LIG    1       24.855 -23.161   6.944  0.00  0.00    -0.042 A 
ATOM      6  C   LIG    1       23.666 -23.849   6.640  0.00  0.00    +0.004 A 
ATOM      7  C   LIG    1       23.693 -25.184   6.228  0.00  0.00    +0.004 A 
BRANCH   5   8
ATOM      8  C   LIG    1       24.866 -21.671   7.318  0.00  0.00    -0.013 C 
ATOM      9  C   LIG    1       25.520 -20.767   6.249  0.00  0.00    +0.015 C 
ATOM     10  C   LIG    1       25.670 -21.484   8.624  0.00  0.00    +0.015 C 
ATOM     11  C   LIG    1       23.424 -21.166   7.532  0.00  0.00    +0.015 C 
ENDBRANCH   5   8
ENDBRANCH   1   2
BRANCH   1  13
ATOM     12  C   LIG    1       25.428 -28.481   7.815  0.00  0.00    +0.009 C 
ATOM     13  C   LIG    1       24.433 -28.345   6.646  0.00  0.00    +0.004 C 
BRANCH  13  14
ATOM     14  C   LIG    1       24.242 -29.744   6.005  0.00  0.00    +0.088 C 
BRANCH  14  15
ATOM     15  N   LIG    1       24.899 -30.885   6.670  0.00  0.00    -0.302 NA
ATOM     16  C   LIG    1       23.919 -31.932   7.022  0.00  0.00    +0.084 C 
ATOM     17  C   LIG    1       23.378 -32.706   5.813  0.00  0.00    +0.015 C 
ATOM     18  C   LIG    1       24.501 -33.258   4.937  0.00  0.00    +0.002 C 
ATOM     19  C   LIG    1       25.551 -32.192   4.631  0.00  0.00    +0.015 C 
ATOM     20  C   LIG    1       26.003 -31.497   5.916  0.00  0.00    +0.084 C 
ENDBRANCH  14  15
ENDBRANCH  13  14
ENDBRANCH   1  13
TORSDOF 5
ENDMDL
