MODEL 1
REMARK VINA RESULT:     -10.6      0.000      0.000
REMARK  Name = *****
REMARK                            x       y       z     vdW  Elec       q    Type
REMARK                         _______ _______ _______ _____ _____    ______ ____
ROOT
ATOM      1  C   LIG    1       29.026 -19.686   7.350  0.00  0.00    +0.113 A 
ATOM      2  C   LIG    1       27.848 -20.210   7.876  0.00  0.00    +0.030 A 
ATOM      3  C   LIG    1       26.758 -20.428   7.025  0.00  0.00    +0.010 A 
ATOM      4  C   LIG    1       26.797 -20.049   5.669  0.00  0.00    -0.012 A 
ATOM      5  C   LIG    1       27.993 -19.505   5.176  0.00  0.00    +0.010 A 
ATOM      6  C   LIG    1       29.120 -19.373   5.996  0.00  0.00    +0.030 A 
ENDROOT
BRANCH   4   7
ATOM      7  C   LIG    1       25.613 -20.180   4.811  0.00  0.00    +0.052 A 
ATOM      8  C   LIG    1       24.599 -21.208   4.662  0.00  0.00    +0.121 A 
ATOM      9  N   LIG    1       23.741 -20.860   3.686  0.00  0.00    -0.077 NA
ATOM     10  O   LIG    1       24.153 -19.654   3.197  0.00  0.00    -0.359 OA
ATOM     11  C   LIG    1       25.269 -19.245   3.845  0.00  0.00    +0.142 A 
ATOM     12  C   LIG    1       25.806 -17.952   3.363  0.00  0.00    +0.090 C 
BRANCH   8  13
ATOM     13  C   LIG    1       24.353 -22.469   5.388  0.00  0.00    +0.004 A 
ATOM     14  C   LIG    1       23.283 -22.610   6.279  0.00  0.00    +0.010 A 
ATOM     15  C   LIG    1       23.036 -23.829   6.922  0.00  0.00    +0.001 A 
ATOM     16  C   LIG    1       23.820 -24.946   6.641  0.00  0.00    +0.000 A 
ATOM     17  C   LIG    1       24.881 -24.833   5.749  0.00  0.00    +0.001 A 
ATOM     18  C   LIG    1       25.161 -23.598   5.150  0.00  0.00    +0.010 A 
ENDBRANCH   8  13
ENDBRANCH   4   7
BRANCH   1  19
ATOM     19  S   LIG    1       30.418 -19.358   8.416  0.00  0.00    +0.102 S 
ATOM     20  O   LIG    1       30.694 -20.614   9.105  0.00  0.00    -0.146 OA
ATOM     21  O   LIG    1       31.433 -18.734   7.601  0.00  0.00    -0.146 OA
BRANCH  19  23
ATOM     22  C   LIG    1       30.618 -17.522  10.138  0.00  0.00    +0.207 C 
ATOM     23  N   LIG    1       29.835 -18.290   9.470  0.00  0.00    -0.096 NA
BRANCH  22  25
ATOM     24  C   LIG    1       32.603 -16.048   9.687  0.00  0.00    +0.013 C 
ATOM     25  C   LIG    1       32.125 -17.422  10.118  0.00  0.00    +0.093 C 
ENDBRANCH  22  25
BRANCH  22  26
ATOM     26  O   LIG    1       30.032 -16.673  11.012  0.00  0.00    -0.494 OA
ATOM     27  H   LIG    1       30.193 -15.737  10.817  0.00  0.00    +0.293 HD
ENDBRANCH  22  26
ENDBRANCH  19  23
ENDBRANCH   1  19
TORSDOF 6
ENDMDL
MODEL 2
REMARK VINA RESULT:     -10.1      1.880      2.688
REMARK  Name = *****
REMARK                            x       y       z     vdW  Elec       q    Type
REMARK                         _______ _______ _______ _____ _____    ______ ____
ROOT
ATOM      1  C   LIG    1       28.532 -20.362   7.284  0.00  0.00    +0.113 A 
ATOM      2  C   LIG    1       28.160 -21.415   8.116  0.00  0.00    +0.030 A 
ATOM      3  C   LIG    1       26.951 -22.079   7.875  0.00  0.00    +0.010 A 
ATOM      4  C   LIG    1       26.064 -21.653   6.868  0.00  0.00    -0.012 A 
ATOM      5  C   LIG    1       26.462 -20.576   6.061  0.00  0.00    +0.010 A 
ATOM      6  C   LIG    1       27.711 -19.966   6.231  0.00  0.00    +0.030 A 
ENDROOT
BRANCH   4   7
ATOM      7  C   LIG    1       24.752 -22.286   6.694  0.00  0.00    +0.052 A 
ATOM      8  C   LIG    1       24.332 -23.621   6.311  0.00  0.00    +0.121 A 
ATOM      9  N   LIG    1       22.989 -23.676   6.254  0.00  0.00    -0.077 NA
ATOM     10  O   LIG    1       22.520 -22.437   6.582  0.00  0.00    -0.359 OA
ATOM     11  C   LIG    1       23.554 -21.599   6.833  0.00  0.00    +0.142 A 
ATOM     12  C   LIG    1       23.141 -20.219   7.175  0.00  0.00    +0.090 C 
BRANCH   8  13
ATOM     13  C   LIG    1       25.091 -24.856   6.033  0.00  0.00    +0.004 A 
ATOM     14  C   LIG    1       25.727 -25.577   7.050  0.00  0.00    +0.010 A 
ATOM     15  C   LIG    1       26.400 -26.773   6.774  0.00  0.00    +0.001 A 
ATOM     16  C   LIG    1       26.402 -27.300   5.484  0.00  0.00    +0.000 A 
ATOM     17  C   LIG    1       25.766 -26.608   4.459  0.00  0.00    +0.001 A 
ATOM     18  C   LIG    1       25.140 -25.383   4.726  0.00  0.00    +0.010 A 
ENDBRANCH   8  13
ENDBRANCH   4   7
BRANCH   1  19
ATOM     19  S   LIG    1       30.045 -19.469   7.590  0.00  0.00    +0.102 S 
ATOM     20  O   LIG    1       31.028 -20.475   7.979  0.00  0.00    -0.146 OA
ATOM     21  O   LIG    1       30.276 -18.629   6.439  0.00  0.00    -0.146 OA
BRANCH  19  23
ATOM     22  C   LIG    1       30.560 -17.773   9.390  0.00  0.00    +0.207 C 
ATOM     23  N   LIG    1       29.685 -18.555   8.866  0.00  0.00    -0.096 NA
BRANCH  22  25
ATOM     24  C   LIG    1       32.481 -16.154   9.427  0.00  0.00    +0.013 C 
ATOM     25  C   LIG    1       31.997 -17.526   8.996  0.00  0.00    +0.093 C 
ENDBRANCH  22  25
BRANCH  22  26
ATOM     26  O   LIG    1       30.166 -17.062  10.469  0.00  0.00    -0.494 OA
ATOM     27  H   LIG    1       29.906 -17.609  11.226  0.00  0.00    +0.293 HD
ENDBRANCH  22  26
ENDBRANCH  19  23
ENDBRANCH   1  19
TORSDOF 6
ENDMDL
MODEL 3
REMARK VINA RESULT:     -10.0      1.752      3.530
REMARK  Name = *****
REMARK                            x       y       z     vdW  Elec       q    Type
REMARK                         _______ _______ _______ _____ _____    ______ ____
ROOT
ATOM      1  C   LIG    1       29.011 -20.126   7.516  0.00  0.00    +0.113 A 
ATOM      2  C   LIG    1       28.448 -21.071   8.369  0.00  0.00    +0.030 A 
ATOM      3  C   LIG    1       27.314 -21.779   7.951  0.00  0.00    +0.010 A 
ATOM      4  C   LIG    1       26.681 -21.496   6.725  0.00  0.00    -0.012 A 
ATOM      5  C   LIG    1       27.262 -20.522   5.898  0.00  0.00    +0.010 A 
ATOM      6  C   LIG    1       28.451 -19.877   6.264  0.00  0.00    +0.030 A 
ENDROOT
BRANCH   4   7
ATOM      7  C   LIG    1       25.432 -22.165   6.345  0.00  0.00    +0.052 A 
ATOM      8  C   LIG    1       24.217 -21.711   5.693  0.00  0.00    +0.121 A 
ATOM      9  N   LIG    1       23.336 -22.726   5.617  0.00  0.00    -0.077 NA
ATOM     10  O   LIG    1       23.926 -23.816   6.191  0.00  0.00    -0.359 OA
ATOM     11  C   LIG    1       25.163 -23.495   6.638  0.00  0.00    +0.142 A 
ATOM     12  C   LIG    1       25.874 -24.613   7.300  0.00  0.00    +0.090 C 
BRANCH   8  13
ATOM     13  C   LIG    1       23.834 -20.414   5.103  0.00  0.00    +0.004 A 
ATOM     14  C   LIG    1       24.611 -19.793   4.118  0.00  0.00    +0.010 A 
ATOM     15  C   LIG    1       24.205 -18.586   3.535  0.00  0.00    +0.001 A 
ATOM     16  C   LIG    1       22.988 -18.007   3.885  0.00  0.00    +0.000 A 
ATOM     17  C   LIG    1       22.193 -18.613   4.853  0.00  0.00    +0.001 A 
ATOM     18  C   LIG    1       22.626 -19.790   5.476  0.00  0.00    +0.010 A 
ENDBRANCH   8  13
ENDBRANCH   4   7
BRANCH   1  19
ATOM     19  S   LIG    1       30.429 -19.178   8.036  0.00  0.00    +0.102 S 
ATOM     20  O   LIG    1       31.408 -20.154   8.502  0.00  0.00    -0.146 OA
ATOM     21  O   LIG    1       30.752 -18.279   6.954  0.00  0.00    -0.146 OA
BRANCH  19  23
ATOM     22  C   LIG    1       30.656 -17.597   9.992  0.00  0.00    +0.207 C 
ATOM     23  N   LIG    1       29.874 -18.338   9.293  0.00  0.00    -0.096 NA
BRANCH  22  25
ATOM     24  C   LIG    1       32.437 -15.882   9.544  0.00  0.00    +0.013 C 
ATOM     25  C   LIG    1       32.136 -17.338   9.843  0.00  0.00    +0.093 C 
ENDBRANCH  22  25
BRANCH  22  26
ATOM     26  O   LIG    1       30.097 -16.947  11.038  0.00  0.00    -0.494 OA
ATOM     27  H   LIG    1       30.062 -15.984  10.928  0.00  0.00    +0.293 HD
ENDBRANCH  22  26
ENDBRANCH  19  23
ENDBRANCH   1  19
TORSDOF 6
ENDMDL
MODEL 4
REMARK VINA RESULT:      -8.2      7.144     10.765
REMARK  Name = *****
REMARK                            x       y       z     vdW  Elec       q    Type
REMARK                         _______ _______ _______ _____ _____    ______ ____
ROOT
ATOM      1  C   LIG    1       25.313 -28.108   7.013  0.00  0.00    +0.113 A 
ATOM      2  C   LIG    1       26.222 -27.811   8.026  0.00  0.00    +0.030 A 
ATOM      3  C   LIG    1       26.228 -28.594   9.187  0.00  0.00    +0.010 A 
ATOM      4  C   LIG    1       25.282 -29.617   9.391  0.00  0.00    -0.012 A 
ATOM      5  C   LIG    1       24.367 -29.876   8.358  0.00  0.00    +0.010 A 
ATOM      6  C   LIG    1       24.415 -29.163   7.154  0.00  0.00    +0.030 A 
ENDROOT
BRANCH   4   7
ATOM      7  C   LIG    1       25.226 -30.359  10.656  0.00  0.00    +0.052 A 
ATOM      8  C   LIG    1       24.856 -29.992  12.010  0.00  0.00    +0.121 A 
ATOM      9  N   LIG    1       25.025 -31.047  12.828  0.00  0.00    -0.077 NA
ATOM     10  O   LIG    1       25.489 -32.079  12.065  0.00  0.00    -0.359 OA
ATOM     11  C   LIG    1       25.625 -31.682  10.777  0.00  0.00    +0.142 A 
ATOM     12  C   LIG    1       26.149 -32.733   9.875  0.00  0.00    +0.090 C 
BRANCH   8  13
ATOM     13  C   LIG    1       24.320 -28.744  12.587  0.00  0.00    +0.004 A 
ATOM     14  C   LIG    1       25.157 -27.698  12.991  0.00  0.00    +0.010 A 
ATOM     15  C   LIG    1       24.627 -26.502  13.490  0.00  0.00    +0.001 A 
ATOM     16  C   LIG    1       23.249 -26.308  13.542  0.00  0.00    +0.000 A 
ATOM     17  C   LIG    1       22.397 -27.329  13.135  0.00  0.00    +0.001 A 
ATOM     18  C   LIG    1       22.928 -28.546  12.688  0.00  0.00    +0.010 A 
ENDBRANCH   8  13
ENDBRANCH   4   7
BRANCH   1  19
ATOM     19  S   LIG    1       25.251 -27.104   5.541  0.00  0.00    +0.102 S 
ATOM     20  O   LIG    1       26.464 -26.293   5.563  0.00  0.00    -0.146 OA
ATOM     21  O   LIG    1       24.990 -27.996   4.436  0.00  0.00    -0.146 OA
BRANCH  19  23
ATOM     22  C   LIG    1       24.094 -25.017   6.367  0.00  0.00    +0.207 C 
ATOM     23  N   LIG    1       23.973 -26.158   5.789  0.00  0.00    -0.096 NA
BRANCH  22  25
ATOM     24  C   LIG    1       25.062 -22.882   7.272  0.00  0.00    +0.013 C 
ATOM     25  C   LIG    1       25.326 -24.330   6.906  0.00  0.00    +0.093 C 
ENDBRANCH  22  25
BRANCH  22  26
ATOM     26  O   LIG    1       22.958 -24.306   6.545  0.00  0.00    -0.494 OA
ATOM     27  H   LIG    1       22.916 -23.494   6.016  0.00  0.00    +0.293 HD
ENDBRANCH  22  26
ENDBRANCH  19  23
ENDBRANCH   1  19
TORSDOF 6
ENDMDL
MODEL 5
REMARK VINA RESULT:      -8.2      6.924     10.478
REMARK  Name = *****
REMARK                            x       y       z     vdW  Elec       q    Type
REMARK                         _______ _______ _______ _____ _____    ______ ____
ROOT
ATOM      1  C   LIG    1       25.557 -27.654   6.792  0.00  0.00    +0.113 A 
ATOM      2  C   LIG    1       24.612 -28.677   6.783  0.00  0.00    +0.030 A 
ATOM      3  C   LIG    1       24.499 -29.511   7.902  0.00  0.00    +0.010 A 
ATOM      4  C   LIG    1       25.376 -29.395   8.998  0.00  0.00    -0.012 A 
ATOM      5  C   LIG    1       26.330 -28.366   8.966  0.00  0.00    +0.010 A 
ATOM      6  C   LIG    1       26.387 -27.465   7.894  0.00  0.00    +0.030 A 
ENDROOT
BRANCH   4   7
ATOM      7  C   LIG    1       25.322 -30.342  10.117  0.00  0.00    +0.052 A 
ATOM      8  C   LIG    1       24.758 -30.275  11.453  0.00  0.00    +0.121 A 
ATOM      9  N   LIG    1       25.023 -31.416  12.115  0.00  0.00    -0.077 NA
ATOM     10  O   LIG    1       25.733 -32.218  11.269  0.00  0.00    -0.359 OA
ATOM     11  C   LIG    1       25.929 -31.590  10.085  0.00  0.00    +0.142 A 
ATOM     12  C   LIG    1       26.715 -32.377   9.108  0.00  0.00    +0.090 C 
BRANCH   8  13
ATOM     13  C   LIG    1       23.959 -29.243  12.140  0.00  0.00    +0.004 A 
ATOM     14  C   LIG    1       24.555 -28.141  12.764  0.00  0.00    +0.010 A 
ATOM     15  C   LIG    1       23.777 -27.146  13.369  0.00  0.00    +0.001 A 
ATOM     16  C   LIG    1       22.387 -27.205  13.310  0.00  0.00    +0.000 A 
ATOM     17  C   LIG    1       21.771 -28.284  12.684  0.00  0.00    +0.001 A 
ATOM     18  C   LIG    1       22.550 -29.307  12.129  0.00  0.00    +0.010 A 
ENDBRANCH   8  13
ENDBRANCH   4   7
BRANCH   1  19
ATOM     19  S   LIG    1       25.753 -26.602   5.366  0.00  0.00    +0.102 S 
ATOM     20  O   LIG    1       26.893 -27.139   4.631  0.00  0.00    -0.146 OA
ATOM     21  O   LIG    1       24.459 -26.503   4.735  0.00  0.00    -0.146 OA
BRANCH  19  23
ATOM     22  C   LIG    1       25.259 -24.382   6.465  0.00  0.00    +0.207 C 
ATOM     23  N   LIG    1       26.155 -25.179   6.006  0.00  0.00    -0.096 NA
BRANCH  22  25
ATOM     24  C   LIG    1       23.055 -23.237   6.847  0.00  0.00    +0.013 C 
ATOM     25  C   LIG    1       23.759 -24.541   6.525  0.00  0.00    +0.093 C 
ENDBRANCH  22  25
BRANCH  22  26
ATOM     26  O   LIG    1       25.697 -23.204   6.964  0.00  0.00    -0.494 OA
ATOM     27  H   LIG    1       26.247 -23.295   7.758  0.00  0.00    +0.293 HD
ENDBRANCH  22  26
ENDBRANCH  19  23
ENDBRANCH   1  19
TORSDOF 6
ENDMDL
MODEL 6
REMARK VINA RESULT:      -8.1      7.197     10.675
REMARK  Name = *****
REMARK                            x       y       z     vdW  Elec       q    Type
REMARK                         _______ _______ _______ _____ _____    ______ ____
ROOT
ATOM      1  C   LIG    1       25.062 -27.186   6.521  0.00  0.00    +0.113 A 
ATOM      2  C   LIG    1       25.756 -27.706   7.610  0.00  0.00    +0.030 A 
ATOM      3  C   LIG    1       25.708 -29.084   7.855  0.00  0.00    +0.010 A 
ATOM      4  C   LIG    1       24.906 -29.943   7.078  0.00  0.00    -0.012 A 
ATOM      5  C   LIG    1       24.203 -29.382   6.000  0.00  0.00    +0.010 A 
ATOM      6  C   LIG    1       24.320 -28.022   5.688  0.00  0.00    +0.030 A 
ENDROOT
BRANCH   4   7
ATOM      7  C   LIG    1       24.776 -31.366   7.409  0.00  0.00    +0.052 A 
ATOM      8  C   LIG    1       25.196 -32.586   6.743  0.00  0.00    +0.121 A 
ATOM      9  N   LIG    1       24.786 -33.654   7.452  0.00  0.00    -0.077 NA
ATOM     10  O   LIG    1       24.119 -33.180   8.546  0.00  0.00    -0.359 OA
ATOM     11  C   LIG    1       24.095 -31.826   8.526  0.00  0.00    +0.142 A 
ATOM     12  C   LIG    1       23.368 -31.221   9.666  0.00  0.00    +0.090 C 
BRANCH   8  13
ATOM     13  C   LIG    1       25.983 -32.826   5.519  0.00  0.00    +0.004 A 
ATOM     14  C   LIG    1       27.171 -33.566   5.537  0.00  0.00    +0.010 A 
ATOM     15  C   LIG    1       27.878 -33.824   4.357  0.00  0.00    +0.001 A 
ATOM     16  C   LIG    1       27.380 -33.397   3.128  0.00  0.00    +0.000 A 
ATOM     17  C   LIG    1       26.195 -32.670   3.083  0.00  0.00    +0.001 A 
ATOM     18  C   LIG    1       25.518 -32.364   4.271  0.00  0.00    +0.010 A 
ENDBRANCH   8  13
ENDBRANCH   4   7
BRANCH   1  19
ATOM     19  S   LIG    1       25.068 -25.431   6.207  0.00  0.00    +0.102 S 
ATOM     20  O   LIG    1       25.870 -24.841   7.273  0.00  0.00    -0.146 OA
ATOM     21  O   LIG    1       25.447 -25.253   4.826  0.00  0.00    -0.146 OA
BRANCH  19  23
ATOM     22  C   LIG    1       23.187 -23.782   6.554  0.00  0.00    +0.207 C 
ATOM     23  N   LIG    1       23.526 -25.012   6.407  0.00  0.00    -0.096 NA
BRANCH  22  25
ATOM     24  C   LIG    1       23.355 -21.381   7.276  0.00  0.00    +0.013 C 
ATOM     25  C   LIG    1       24.042 -22.537   6.576  0.00  0.00    +0.093 C 
ENDBRANCH  22  25
BRANCH  22  26
ATOM     26  O   LIG    1       21.870 -23.535   6.733  0.00  0.00    -0.494 OA
ATOM     27  H   LIG    1       21.346 -23.592   5.920  0.00  0.00    +0.293 HD
ENDBRANCH  22  26
ENDBRANCH  19  23
ENDBRANCH   1  19
TORSDOF 6
ENDMDL
MODEL 7
REMARK VINA RESULT:      -8.1      6.877     10.435
REMARK  Name = *****
REMARK                            x       y       z     vdW  Elec       q    Type
REMARK                         _______ _______ _______ _____ _____    ______ ____
ROOT
ATOM      1  C   LIG    1       25.537 -27.521   6.807  0.00  0.00    +0.113 A 
ATOM      2  C   LIG    1       26.386 -27.381   7.903  0.00  0.00    +0.030 A 
ATOM      3  C   LIG    1       26.363 -28.352   8.912  0.00  0.00    +0.010 A 
ATOM      4  C   LIG    1       25.443 -29.418   8.887  0.00  0.00    -0.012 A 
ATOM      5  C   LIG    1       24.588 -29.518   7.778  0.00  0.00    +0.010 A 
ATOM      6  C   LIG    1       24.669 -28.607   6.717  0.00  0.00    +0.030 A 
ENDROOT
BRANCH   4   7
ATOM      7  C   LIG    1       25.352 -30.368  10.001  0.00  0.00    +0.052 A 
ATOM      8  C   LIG    1       24.720 -30.314  11.307  0.00  0.00    +0.121 A 
ATOM      9  N   LIG    1       24.975 -31.450  11.982  0.00  0.00    -0.077 NA
ATOM     10  O   LIG    1       25.744 -32.237  11.172  0.00  0.00    -0.359 OA
ATOM     11  C   LIG    1       25.985 -31.602  10.000  0.00  0.00    +0.142 A 
ATOM     12  C   LIG    1       26.836 -32.372   9.063  0.00  0.00    +0.090 C 
BRANCH   8  13
ATOM     13  C   LIG    1       23.866 -29.299  11.953  0.00  0.00    +0.004 A 
ATOM     14  C   LIG    1       22.470 -29.393  11.941  0.00  0.00    +0.010 A 
ATOM     15  C   LIG    1       21.678 -28.446  12.602  0.00  0.00    +0.001 A 
ATOM     16  C   LIG    1       22.269 -27.420  13.336  0.00  0.00    +0.000 A 
ATOM     17  C   LIG    1       23.655 -27.314  13.373  0.00  0.00    +0.001 A 
ATOM     18  C   LIG    1       24.445 -28.229  12.665  0.00  0.00    +0.010 A 
ENDBRANCH   8  13
ENDBRANCH   4   7
BRANCH   1  19
ATOM     19  S   LIG    1       25.513 -26.281   5.527  0.00  0.00    +0.102 S 
ATOM     20  O   LIG    1       26.540 -25.312   5.894  0.00  0.00    -0.146 OA
ATOM     21  O   LIG    1       25.585 -26.978   4.266  0.00  0.00    -0.146 OA
BRANCH  19  23
ATOM     22  C   LIG    1       23.898 -24.546   6.402  0.00  0.00    +0.207 C 
ATOM     23  N   LIG    1       24.061 -25.604   5.692  0.00  0.00    -0.096 NA
BRANCH  22  25
ATOM     24  C   LIG    1       24.467 -22.301   7.376  0.00  0.00    +0.013 C 
ATOM     25  C   LIG    1       24.908 -23.739   7.183  0.00  0.00    +0.093 C 
ENDBRANCH  22  25
BRANCH  22  26
ATOM     26  O   LIG    1       22.637 -24.067   6.492  0.00  0.00    -0.494 OA
ATOM     27  H   LIG    1       22.070 -24.311   5.745  0.00  0.00    +0.293 HD
ENDBRANCH  22  26
ENDBRANCH  19  23
ENDBRANCH   1  19
TORSDOF 6
ENDMDL
MODEL 8
REMARK VINA RESULT:      -8.1      6.898      9.671
REMARK  Name = *****
REMARK                            x       y       z     vdW  Elec       q    Type
REMARK                         _______ _______ _______ _____ _____    ______ ____
ROOT
ATOM      1  C   LIG    1       25.853 -29.284  10.942  0.00  0.00    +0.113 A 
ATOM      2  C   LIG    1       24.771 -29.890  10.311  0.00  0.00    +0.030 A 
ATOM      3  C   LIG    1       24.593 -29.705   8.934  0.00  0.00    +0.010 A 
ATOM      4  C   LIG    1       25.432 -28.852   8.192  0.00  0.00    -0.012 A 
ATOM      5  C   LIG    1       26.502 -28.240   8.864  0.00  0.00    +0.010 A 
ATOM      6  C   LIG    1       26.745 -28.495  10.219  0.00  0.00    +0.030 A 
ENDROOT
BRANCH   4   7
ATOM      7  C   LIG    1       25.173 -28.579   6.773  0.00  0.00    +0.052 A 
ATOM      8  C   LIG    1       24.890 -27.366   6.028  0.00  0.00    +0.121 A 
ATOM      9  N   LIG    1       24.680 -27.668   4.734  0.00  0.00    -0.077 NA
ATOM     10  O   LIG    1       24.814 -29.020   4.607  0.00  0.00    -0.359 OA
ATOM     11  C   LIG    1       25.094 -29.575   5.811  0.00  0.00    +0.142 A 
ATOM     12  C   LIG    1       25.233 -31.049   5.777  0.00  0.00    +0.090 C 
BRANCH   8  13
ATOM     13  C   LIG    1       24.840 -25.946   6.428  0.00  0.00    +0.004 A 
ATOM     14  C   LIG    1       25.994 -25.235   6.773  0.00  0.00    +0.010 A 
ATOM     15  C   LIG    1       25.932 -23.875   7.102  0.00  0.00    +0.001 A 
ATOM     16  C   LIG    1       24.723 -23.188   7.037  0.00  0.00    +0.000 A 
ATOM     17  C   LIG    1       23.563 -23.871   6.684  0.00  0.00    +0.001 A 
ATOM     18  C   LIG    1       23.617 -25.244   6.410  0.00  0.00    +0.010 A 
ENDBRANCH   8  13
ENDBRANCH   4   7
BRANCH   1  19
ATOM     19  S   LIG    1       26.083 -29.465  12.701  0.00  0.00    +0.102 S 
ATOM     20  O   LIG    1       24.872 -30.114  13.194  0.00  0.00    -0.146 OA
ATOM     21  O   LIG    1       27.373 -30.083  12.894  0.00  0.00    -0.146 OA
BRANCH  19  23
ATOM     22  C   LIG    1       25.045 -27.267  13.388  0.00  0.00    +0.207 C 
ATOM     23  N   LIG    1       26.124 -27.944  13.230  0.00  0.00    -0.096 NA
BRANCH  22  25
ATOM     24  C   LIG    1       22.658 -26.490  13.273  0.00  0.00    +0.013 C 
ATOM     25  C   LIG    1       23.607 -27.666  13.151  0.00  0.00    +0.093 C 
ENDBRANCH  22  25
BRANCH  22  26
ATOM     26  O   LIG    1       25.188 -25.994  13.819  0.00  0.00    -0.494 OA
ATOM     27  H   LIG    1       25.764 -25.904  14.593  0.00  0.00    +0.293 HD
ENDBRANCH  22  26
ENDBRANCH  19  23
ENDBRANCH   1  19
TORSDOF 6
ENDMDL
MODEL 9
REMARK VINA RESULT:      -7.9      6.916     10.443
REMARK  Name = *****
REMARK                            x       y       z     vdW  Elec       q    Type
REMARK                         _______ _______ _______ _____ _____    ______ ____
ROOT
ATOM      1  C   LIG    1       25.119 -27.193   6.585  0.00  0.00    +0.113 A 
ATOM      2  C   LIG    1       25.873 -27.582   7.690  0.00  0.00    +0.030 A 
ATOM      3  C   LIG    1       25.870 -28.928   8.077  0.00  0.00    +0.010 A 
ATOM      4  C   LIG    1       25.059 -29.879   7.429  0.00  0.00    -0.012 A 
ATOM      5  C   LIG    1       24.296 -29.448   6.332  0.00  0.00    +0.010 A 
ATOM      6  C   LIG    1       24.365 -28.126   5.877  0.00  0.00    +0.030 A 
ENDROOT
BRANCH   4   7
ATOM      7  C   LIG    1       24.980 -31.263   7.910  0.00  0.00    +0.052 A 
ATOM      8  C   LIG    1       24.200 -31.914   8.947  0.00  0.00    +0.121 A 
ATOM      9  N   LIG    1       24.540 -33.214   9.020  0.00  0.00    -0.077 NA
ATOM     10  O   LIG    1       25.504 -33.433   8.079  0.00  0.00    -0.359 OA
ATOM     11  C   LIG    1       25.784 -32.283   7.422  0.00  0.00    +0.142 A 
ATOM     12  C   LIG    1       26.841 -32.418   6.394  0.00  0.00    +0.090 C 
BRANCH   8  13
ATOM     13  C   LIG    1       23.137 -31.422   9.844  0.00  0.00    +0.004 A 
ATOM     14  C   LIG    1       23.319 -30.298  10.658  0.00  0.00    +0.010 A 
ATOM     15  C   LIG    1       22.282 -29.817  11.465  0.00  0.00    +0.001 A 
ATOM     16  C   LIG    1       21.025 -30.416  11.431  0.00  0.00    +0.000 A 
ATOM     17  C   LIG    1       20.816 -31.527  10.620  0.00  0.00    +0.001 A 
ATOM     18  C   LIG    1       21.871 -32.042   9.855  0.00  0.00    +0.010 A 
ENDBRANCH   8  13
ENDBRANCH   4   7
BRANCH   1  19
ATOM     19  S   LIG    1       25.068 -25.480   6.093  0.00  0.00    +0.102 S 
ATOM     20  O   LIG    1       25.962 -24.777   7.006  0.00  0.00    -0.146 OA
ATOM     21  O   LIG    1       25.304 -25.445   4.669  0.00  0.00    -0.146 OA
BRANCH  19  23
ATOM     22  C   LIG    1       23.205 -23.813   6.457  0.00  0.00    +0.207 C 
ATOM     23  N   LIG    1       23.547 -25.050   6.402  0.00  0.00    -0.096 NA
BRANCH  22  25
ATOM     24  C   LIG    1       23.709 -21.495   7.289  0.00  0.00    +0.013 C 
ATOM     25  C   LIG    1       24.040 -22.568   6.269  0.00  0.00    +0.093 C 
ENDBRANCH  22  25
BRANCH  22  26
ATOM     26  O   LIG    1       21.909 -23.556   6.741  0.00  0.00    -0.494 OA
ATOM     27  H   LIG    1       21.282 -24.100   6.240  0.00  0.00    +0.293 HD
ENDBRANCH  22  26
ENDBRANCH  19  23
ENDBRANCH   1  19
TORSDOF 6
ENDMDL
