MODEL 1
REMARK VINA RESULT:      -4.7      0.000      0.000
REMARK  Name = *****
REMARK                            x       y       z     vdW  Elec       q    Type
REMARK                         _______ _______ _______ _____ _____    ______ ____
ROOT
ATOM      1  CA  LIG    1       25.946 -20.552   6.944  0.00  0.00    +0.176 C 
ENDROOT
BRANCH   1   3
ATOM      2  C   LIG    1       23.423 -20.834   7.132  0.00  0.00    +0.024 C 
ATOM      3  C   LIG    1       24.719 -21.437   6.560  0.00  0.00    +0.034 C 
ATOM      4  C   LIG    1       24.878 -22.868   7.097  0.00  0.00    +0.024 C 
BRANCH   3   5
ATOM      5  S   LIG    1       24.490 -21.523   4.721  0.00  0.00    -0.170 S 
ATOM      6  H   LIG    1       25.678 -22.082   4.439  0.00  0.00    +0.102 HD
ENDBRANCH   3   5
ENDBRANCH   1   3
BRANCH   1   7
ATOM      7  N   LIG    1       27.060 -20.628   5.964  0.00  0.00    -0.317 NA
ATOM      8  H1  LIG    1       26.744 -20.253   5.067  0.00  0.00    +0.119 HD
ATOM      9  H2  LIG    1       27.851 -20.061   6.265  0.00  0.00    +0.119 HD
ENDBRANCH   1   7
BRANCH   1  10
ATOM     10  C   LIG    1       26.490 -20.827   8.363  0.00  0.00    +0.323 C 
ATOM     11  O   LIG    1       25.912 -20.494   9.387  0.00  0.00    -0.249 OA
BRANCH  10  12
ATOM     12  OXT LIG    1       27.711 -21.411   8.388  0.00  0.00    -0.479 OA
ATOM     13  HXT LIG    1       28.264 -21.143   7.624  0.00  0.00    +0.295 HD
ENDBRANCH  10  12
ENDBRANCH   1  10
TORSDOF 5
ENDMDL
MODEL 2
REMARK VINA RESULT:      -4.6      5.771      6.306
REMARK  Name = *****
REMARK                            x       y       z     vdW  Elec       q    Type
REMARK                         _______ _______ _______ _____ _____    ______ ____
ROOT
ATOM      1  CA  LIG    1       31.696 -19.432   8.348  0.00  0.00    +0.176 C 
ENDROOT
BRANCH   1   3
ATOM      2  C   LIG    1       30.195 -18.987   6.341  0.00  0.00    +0.024 C 
ATOM      3  C   LIG    1       30.230 -19.434   7.814  0.00  0.00    +0.034 C 
ATOM      4  C   LIG    1       29.339 -18.492   8.638  0.00  0.00    +0.024 C 
BRANCH   3   5
ATOM      5  S   LIG    1       29.488 -21.134   7.863  0.00  0.00    -0.170 S 
ATOM      6  H   LIG    1       28.329 -20.819   7.263  0.00  0.00    +0.102 HD
ENDBRANCH   3   5
ENDBRANCH   1   3
BRANCH   1   7
ATOM      7  N   LIG    1       32.020 -20.612   9.191  0.00  0.00    -0.317 NA
ATOM      8  H1  LIG    1       32.990 -20.543   9.506  0.00  0.00    +0.119 HD
ATOM      9  H2  LIG    1       31.435 -20.639  10.024  0.00  0.00    +0.119 HD
ENDBRANCH   1   7
BRANCH   1  10
ATOM     10  C   LIG    1       32.081 -18.141   9.102  0.00  0.00    +0.323 C 
ATOM     11  O   LIG    1       32.095 -18.045  10.320  0.00  0.00    -0.249 OA
BRANCH  10  12
ATOM     12  OXT LIG    1       32.338 -17.083   8.297  0.00  0.00    -0.479 OA
ATOM     13  HXT LIG    1       31.995 -16.244   8.670  0.00  0.00    +0.295 HD
ENDBRANCH  10  12
ENDBRANCH   1  10
TORSDOF 5
ENDMDL
MODEL 3
REMARK VINA RESULT:      -4.6      1.172      1.509
REMARK  Name = *****
REMARK                            x       y       z     vdW  Elec       q    Type
REMARK                         _______ _______ _______ _____ _____    ______ ____
ROOT
ATOM      1  CA  LIG    1       25.925 -20.584   6.908  0.00  0.00    +0.176 C 
ENDROOT
BRANCH   1   3
ATOM      2  C   LIG    1       24.640 -21.675   5.000  0.00  0.00    +0.024 C 
ATOM      3  C   LIG    1       24.852 -21.651   6.526  0.00  0.00    +0.034 C 
ATOM      4  C   LIG    1       23.508 -21.354   7.207  0.00  0.00    +0.024 C 
BRANCH   3   5
ATOM      5  S   LIG    1       25.389 -23.360   7.007  0.00  0.00    -0.170 S 
ATOM      6  H   LIG    1       25.250 -23.202   8.334  0.00  0.00    +0.102 HD
ENDBRANCH   3   5
ENDBRANCH   1   3
BRANCH   1   7
ATOM      7  N   LIG    1       27.029 -20.474   5.920  0.00  0.00    -0.317 NA
ATOM      8  H1  LIG    1       27.918 -20.397   6.418  0.00  0.00    +0.119 HD
ATOM      9  H2  LIG    1       27.083 -21.307   5.338  0.00  0.00    +0.119 HD
ENDBRANCH   1   7
BRANCH   1  10
ATOM     10  C   LIG    1       26.517 -20.776   8.322  0.00  0.00    +0.323 C 
ATOM     11  O   LIG    1       25.907 -20.529   9.351  0.00  0.00    -0.249 OA
BRANCH  10  12
ATOM     12  OXT LIG    1       27.810 -21.177   8.333  0.00  0.00    -0.479 OA
ATOM     13  HXT LIG    1       28.431 -20.420   8.360  0.00  0.00    +0.295 HD
ENDBRANCH  10  12
ENDBRANCH   1  10
TORSDOF 5
ENDMDL
MODEL 4
REMARK VINA RESULT:      -4.4      2.925      3.582
REMARK  Name = *****
REMARK                            x       y       z     vdW  Elec       q    Type
REMARK                         _______ _______ _______ _____ _____    ______ ____
ROOT
ATOM      1  CA  LIG    1       24.686 -23.000   7.102  0.00  0.00    +0.176 C 
ENDROOT
BRANCH   1   3
ATOM      2  C   LIG    1       25.898 -20.772   6.883  0.00  0.00    +0.024 C 
ATOM      3  C   LIG    1       24.608 -21.544   6.546  0.00  0.00    +0.034 C 
ATOM      4  C   LIG    1       23.410 -20.788   7.139  0.00  0.00    +0.024 C 
BRANCH   3   5
ATOM      5  S   LIG    1       24.456 -21.527   4.697  0.00  0.00    -0.170 S 
ATOM      6  H   LIG    1       23.953 -20.286   4.591  0.00  0.00    +0.102 HD
ENDBRANCH   3   5
ENDBRANCH   1   3
BRANCH   1   7
ATOM      7  N   LIG    1       26.030 -23.616   6.962  0.00  0.00    -0.317 NA
ATOM      8  H1  LIG    1       25.996 -24.579   7.304  0.00  0.00    +0.119 HD
ATOM      9  H2  LIG    1       26.315 -23.656   5.985  0.00  0.00    +0.119 HD
ENDBRANCH   1   7
BRANCH   1  10
ATOM     10  C   LIG    1       23.621 -23.949   6.510  0.00  0.00    +0.323 C 
ATOM     11  O   LIG    1       22.440 -23.919   6.819  0.00  0.00    -0.249 OA
BRANCH  10  12
ATOM     12  OXT LIG    1       24.117 -24.880   5.660  0.00  0.00    -0.479 OA
ATOM     13  HXT LIG    1       23.424 -25.499   5.347  0.00  0.00    +0.295 HD
ENDBRANCH  10  12
ENDBRANCH   1  10
TORSDOF 5
ENDMDL
MODEL 5
REMARK VINA RESULT:      -4.3      4.984      5.637
REMARK  Name = *****
REMARK                            x       y       z     vdW  Elec       q    Type
REMARK                         _______ _______ _______ _____ _____    ______ ____
ROOT
ATOM      1  CA  LIG    1       30.074 -21.043   8.057  0.00  0.00    +0.176 C 
ENDROOT
BRANCH   1   3
ATOM      2  C   LIG    1       31.817 -19.201   7.837  0.00  0.00    +0.024 C 
ATOM      3  C   LIG    1       30.309 -19.511   7.884  0.00  0.00    +0.034 C 
ATOM      4  C   LIG    1       29.678 -18.719   9.040  0.00  0.00    +0.024 C 
BRANCH   3   5
ATOM      5  S   LIG    1       29.596 -18.887   6.289  0.00  0.00    -0.170 S 
ATOM      6  H   LIG    1       28.620 -19.803   6.183  0.00  0.00    +0.102 HD
ENDBRANCH   3   5
ENDBRANCH   1   3
BRANCH   1   7
ATOM      7  N   LIG    1       28.668 -21.393   8.386  0.00  0.00    -0.317 NA
ATOM      8  H1  LIG    1       28.113 -21.397   7.527  0.00  0.00    +0.119 HD
ATOM      9  H2  LIG    1       28.607 -22.327   8.787  0.00  0.00    +0.119 HD
ENDBRANCH   1   7
BRANCH   1  10
ATOM     10  C   LIG    1       31.021 -21.706   9.081  0.00  0.00    +0.323 C 
ATOM     11  O   LIG    1       30.849 -21.665  10.290  0.00  0.00    -0.249 OA
BRANCH  10  12
ATOM     12  OXT LIG    1       32.116 -22.285   8.532  0.00  0.00    -0.479 OA
ATOM     13  HXT LIG    1       32.388 -21.844   7.701  0.00  0.00    +0.295 HD
ENDBRANCH  10  12
ENDBRANCH   1  10
TORSDOF 5
ENDMDL
MODEL 6
REMARK VINA RESULT:      -4.3      3.052      3.784
REMARK  Name = *****
REMARK                            x       y       z     vdW  Elec       q    Type
REMARK                         _______ _______ _______ _____ _____    ______ ____
ROOT
ATOM      1  CA  LIG    1       24.310 -22.126   5.206  0.00  0.00    +0.176 C 
ENDROOT
BRANCH   1   3
ATOM      2  C   LIG    1       25.091 -24.550   5.215  0.00  0.00    +0.024 C 
ATOM      3  C   LIG    1       24.549 -23.397   6.080  0.00  0.00    +0.034 C 
ATOM      4  C   LIG    1       23.248 -23.856   6.756  0.00  0.00    +0.024 C 
BRANCH   3   5
ATOM      5  S   LIG    1       25.817 -23.089   7.398  0.00  0.00    -0.170 S 
ATOM      6  H   LIG    1       25.169 -22.085   8.012  0.00  0.00    +0.102 HD
ENDBRANCH   3   5
ENDBRANCH   1   3
BRANCH   1   7
ATOM      7  N   LIG    1       25.523 -21.285   5.041  0.00  0.00    -0.317 NA
ATOM      8  H1  LIG    1       25.336 -20.349   5.406  0.00  0.00    +0.119 HD
ATOM      9  H2  LIG    1       26.306 -21.663   5.572  0.00  0.00    +0.119 HD
ENDBRANCH   1   7
BRANCH   1  10
ATOM     10  C   LIG    1       23.138 -21.248   5.693  0.00  0.00    +0.323 C 
ATOM     11  O   LIG    1       23.189 -20.539   6.687  0.00  0.00    -0.249 OA
BRANCH  10  12
ATOM     12  OXT LIG    1       22.004 -21.377   4.963  0.00  0.00    -0.479 OA
ATOM     13  HXT LIG    1       21.541 -20.522   4.847  0.00  0.00    +0.295 HD
ENDBRANCH  10  12
ENDBRANCH   1  10
TORSDOF 5
ENDMDL
MODEL 7
REMARK VINA RESULT:      -4.2      2.962      3.446
REMARK  Name = *****
REMARK                            x       y       z     vdW  Elec       q    Type
REMARK                         _______ _______ _______ _____ _____    ______ ____
ROOT
ATOM      1  CA  LIG    1       24.846 -22.398   5.431  0.00  0.00    +0.176 C 
ENDROOT
BRANCH   1   3
ATOM      2  C   LIG    1       24.630 -21.280   7.708  0.00  0.00    +0.024 C 
ATOM      3  C   LIG    1       23.857 -21.809   6.485  0.00  0.00    +0.034 C 
ATOM      4  C   LIG    1       22.853 -22.872   6.957  0.00  0.00    +0.024 C 
BRANCH   3   5
ATOM      5  S   LIG    1       22.908 -20.370   5.801  0.00  0.00    -0.170 S 
ATOM      6  H   LIG    1       22.796 -20.836   4.546  0.00  0.00    +0.102 HD
ENDBRANCH   3   5
ENDBRANCH   1   3
BRANCH   1   7
ATOM      7  N   LIG    1       24.410 -22.185   4.027  0.00  0.00    -0.317 NA
ATOM      8  H1  LIG    1       25.175 -22.434   3.396  0.00  0.00    +0.119 HD
ATOM      9  H2  LIG    1       23.622 -22.786   3.794  0.00  0.00    +0.119 HD
ENDBRANCH   1   7
BRANCH   1  10
ATOM     10  C   LIG    1       25.169 -23.893   5.648  0.00  0.00    +0.323 C 
ATOM     11  O   LIG    1       25.850 -24.312   6.571  0.00  0.00    -0.249 OA
BRANCH  10  12
ATOM     12  OXT LIG    1       24.690 -24.711   4.681  0.00  0.00    -0.479 OA
ATOM     13  HXT LIG    1       25.339 -25.401   4.427  0.00  0.00    +0.295 HD
ENDBRANCH  10  12
ENDBRANCH   1  10
TORSDOF 5
ENDMDL
MODEL 8
REMARK VINA RESULT:      -4.2      1.224      1.956
REMARK  Name = *****
REMARK                            x       y       z     vdW  Elec       q    Type
REMARK                         _______ _______ _______ _____ _____    ______ ____
ROOT
ATOM      1  CA  LIG    1       25.961 -20.699   6.874  0.00  0.00    +0.176 C 
ENDROOT
BRANCH   1   3
ATOM      2  C   LIG    1       25.629 -23.217   7.050  0.00  0.00    +0.024 C 
ATOM      3  C   LIG    1       25.024 -21.898   6.532  0.00  0.00    +0.034 C 
ATOM      4  C   LIG    1       24.806 -22.017   5.016  0.00  0.00    +0.024 C 
BRANCH   3   5
ATOM      5  S   LIG    1       23.368 -21.724   7.350  0.00  0.00    -0.170 S 
ATOM      6  H   LIG    1       23.272 -20.390   7.232  0.00  0.00    +0.102 HD
ENDBRANCH   3   5
ENDBRANCH   1   3
BRANCH   1   7
ATOM      7  N   LIG    1       26.958 -20.405   5.812  0.00  0.00    -0.317 NA
ATOM      8  H1  LIG    1       26.508 -19.866   5.069  0.00  0.00    +0.119 HD
ATOM      9  H2  LIG    1       27.722 -19.838   6.174  0.00  0.00    +0.119 HD
ENDBRANCH   1   7
BRANCH   1  10
ATOM     10  C   LIG    1       26.683 -20.841   8.232  0.00  0.00    +0.323 C 
ATOM     11  O   LIG    1       27.831 -21.245   8.350  0.00  0.00    -0.249 OA
BRANCH  10  12
ATOM     12  OXT LIG    1       25.912 -20.548   9.305  0.00  0.00    -0.479 OA
ATOM     13  HXT LIG    1       25.024 -20.957   9.244  0.00  0.00    +0.295 HD
ENDBRANCH  10  12
ENDBRANCH   1  10
TORSDOF 5
ENDMDL
MODEL 9
REMARK VINA RESULT:      -4.2      1.868      2.389
REMARK  Name = *****
REMARK                            x       y       z     vdW  Elec       q    Type
REMARK                         _______ _______ _______ _____ _____    ______ ____
ROOT
ATOM      1  CA  LIG    1       26.329 -21.439   8.148  0.00  0.00    +0.176 C 
ENDROOT
BRANCH   1   3
ATOM      2  C   LIG    1       25.894 -20.505   5.820  0.00  0.00    +0.024 C 
ATOM      3  C   LIG    1       25.351 -21.421   6.933  0.00  0.00    +0.034 C 
ATOM      4  C   LIG    1       23.959 -20.920   7.349  0.00  0.00    +0.024 C 
BRANCH   3   5
ATOM      5  S   LIG    1       25.166 -23.106   6.180  0.00  0.00    -0.170 S 
ATOM      6  H   LIG    1       25.631 -23.801   7.231  0.00  0.00    +0.102 HD
ENDBRANCH   3   5
ENDBRANCH   1   3
BRANCH   1   7
ATOM      7  N   LIG    1       25.854 -20.633   9.302  0.00  0.00    -0.317 NA
ATOM      8  H1  LIG    1       25.950 -19.640   9.081  0.00  0.00    +0.119 HD
ATOM      9  H2  LIG    1       24.867 -20.805   9.487  0.00  0.00    +0.119 HD
ENDBRANCH   1   7
BRANCH   1  10
ATOM     10  C   LIG    1       27.773 -21.024   7.791  0.00  0.00    +0.323 C 
ATOM     11  O   LIG    1       28.534 -21.716   7.132  0.00  0.00    -0.249 OA
BRANCH  10  12
ATOM     12  OXT LIG    1       28.163 -19.846   8.332  0.00  0.00    -0.479 OA
ATOM     13  HXT LIG    1       28.696 -19.972   9.145  0.00  0.00    +0.295 HD
ENDBRANCH  10  12
ENDBRANCH   1  10
TORSDOF 5
ENDMDL
