MODEL 1
REMARK VINA RESULT:      -3.2      0.000      0.000
REMARK  Name = *****
REMARK                            x       y       z     vdW  Elec       q    Type
REMARK                         _______ _______ _______ _____ _____    ______ ____
ROOT
ATOM      1  C   LIG    1       25.943 -14.072   3.509  0.00  0.00    +0.024 C 
ATOM      2  C   LIG    1       24.562 -13.654   4.223  0.00  0.00    -0.014 C 
ATOM      3  C   LIG    1       24.720 -12.861   5.534  0.00  0.00    +0.013 C 
ATOM      4  C   LIG    1       23.637 -14.851   4.581  0.00  0.00    +0.013 C 
ATOM      5  C   LIG    1       23.850 -12.826   3.093  0.00  0.00    -0.003 C 
ATOM      6  C   LIG    1       24.308 -13.534   1.812  0.00  0.00    +0.009 C 
ATOM      7  C   LIG    1       24.500 -11.448   2.890  0.00  0.00    +0.004 C 
ATOM      8  C   LIG    1       25.852 -11.799   2.265  0.00  0.00    +0.005 C 
ATOM      9  C   LIG    1       25.793 -13.335   2.129  0.00  0.00    +0.010 C 
ATOM     10  C   LIG    1       27.212 -13.652   4.274  0.00  0.00    +0.028 C 
ENDROOT
BRANCH   1  12
ATOM     11  C   LIG    1       27.216 -16.225   3.692  0.00  0.00    +0.101 C 
ATOM     12  N   LIG    1       25.980 -15.546   3.335  0.00  0.00    -0.313 NA
ATOM     13  H   LIG    1       25.214 -15.961   3.866  0.00  0.00    +0.122 HD
ENDBRANCH   1  12
TORSDOF 1
ENDMDL
MODEL 2
REMARK VINA RESULT:      -2.7      1.512      2.967
REMARK  Name = *****
REMARK                            x       y       z     vdW  Elec       q    Type
REMARK                         _______ _______ _______ _____ _____    ______ ____
ROOT
ATOM      1  C   LIG    1       26.521 -13.315   4.239  0.00  0.00    +0.024 C 
ATOM      2  C   LIG    1       26.115 -14.432   3.152  0.00  0.00    -0.014 C 
ATOM      3  C   LIG    1       26.290 -15.889   3.621  0.00  0.00    +0.013 C 
ATOM      4  C   LIG    1       26.898 -14.338   1.813  0.00  0.00    +0.013 C 
ATOM      5  C   LIG    1       24.617 -14.064   2.853  0.00  0.00    -0.003 C 
ATOM      6  C   LIG    1       24.610 -12.536   2.982  0.00  0.00    +0.009 C 
ATOM      7  C   LIG    1       23.687 -14.441   4.017  0.00  0.00    +0.004 C 
ATOM      8  C   LIG    1       24.081 -13.438   5.104  0.00  0.00    +0.005 C 
ATOM      9  C   LIG    1       25.151 -12.567   4.414  0.00  0.00    +0.010 C 
ATOM     10  C   LIG    1       27.066 -13.879   5.565  0.00  0.00    +0.028 C 
ENDROOT
BRANCH   1  12
ATOM     11  C   LIG    1       28.914 -12.569   4.163  0.00  0.00    +0.101 C 
ATOM     12  N   LIG    1       27.557 -12.422   3.661  0.00  0.00    -0.313 NA
ATOM     13  H   LIG    1       27.569 -12.540   2.648  0.00  0.00    +0.122 HD
ENDBRANCH   1  12
TORSDOF 1
ENDMDL
MODEL 3
REMARK VINA RESULT:      -2.6      1.545      3.688
REMARK  Name = *****
REMARK                            x       y       z     vdW  Elec       q    Type
REMARK                         _______ _______ _______ _____ _____    ______ ____
ROOT
ATOM      1  C   LIG    1       25.567 -13.339   3.684  0.00  0.00    +0.024 C 
ATOM      2  C   LIG    1       26.971 -13.439   4.465  0.00  0.00    -0.014 C 
ATOM      3  C   LIG    1       26.859 -13.752   5.969  0.00  0.00    +0.013 C 
ATOM      4  C   LIG    1       27.845 -12.157   4.380  0.00  0.00    +0.013 C 
ATOM      5  C   LIG    1       27.709 -14.570   3.661  0.00  0.00    -0.003 C 
ATOM      6  C   LIG    1       27.208 -14.351   2.228  0.00  0.00    +0.009 C 
ATOM      7  C   LIG    1       27.119 -15.960   3.947  0.00  0.00    +0.004 C 
ATOM      8  C   LIG    1       25.747 -15.892   3.272  0.00  0.00    +0.005 C 
ATOM      9  C   LIG    1       25.737 -14.490   2.628  0.00  0.00    +0.010 C 
ATOM     10  C   LIG    1       24.324 -13.527   4.575  0.00  0.00    +0.028 C 
ENDROOT
BRANCH   1  12
ATOM     11  C   LIG    1       24.464 -11.864   1.981  0.00  0.00    +0.101 C 
ATOM     12  N   LIG    1       25.463 -12.011   3.028  0.00  0.00    -0.313 NA
ATOM     13  H   LIG    1       25.295 -11.301   3.742  0.00  0.00    +0.122 HD
ENDBRANCH   1  12
TORSDOF 1
ENDMDL
MODEL 4
REMARK VINA RESULT:      -2.6      1.622      3.471
REMARK  Name = *****
REMARK                            x       y       z     vdW  Elec       q    Type
REMARK                         _______ _______ _______ _____ _____    ______ ____
ROOT
ATOM      1  C   LIG    1       25.640 -13.050   2.881  0.00  0.00    +0.024 C 
ATOM      2  C   LIG    1       25.090 -13.312   4.371  0.00  0.00    -0.014 C 
ATOM      3  C   LIG    1       24.125 -14.506   4.508  0.00  0.00    +0.013 C 
ATOM      4  C   LIG    1       24.337 -12.107   4.999  0.00  0.00    +0.013 C 
ATOM      5  C   LIG    1       26.423 -13.512   5.178  0.00  0.00    -0.003 C 
ATOM      6  C   LIG    1       27.396 -12.564   4.467  0.00  0.00    +0.009 C 
ATOM      7  C   LIG    1       27.087 -14.864   4.871  0.00  0.00    +0.004 C 
ATOM      8  C   LIG    1       27.575 -14.684   3.432  0.00  0.00    +0.005 C 
ATOM      9  C   LIG    1       27.185 -13.228   3.104  0.00  0.00    +0.010 C 
ATOM     10  C   LIG    1       25.078 -14.007   1.812  0.00  0.00    +0.028 C 
ENDROOT
BRANCH   1  12
ATOM     11  C   LIG    1       24.026 -11.453   1.814  0.00  0.00    +0.101 C 
ATOM     12  N   LIG    1       25.306 -11.662   2.472  0.00  0.00    -0.313 NA
ATOM     13  H   LIG    1       25.356 -11.054   3.290  0.00  0.00    +0.122 HD
ENDBRANCH   1  12
TORSDOF 1
ENDMDL
MODEL 5
REMARK VINA RESULT:      -2.6      1.245      3.330
REMARK  Name = *****
REMARK                            x       y       z     vdW  Elec       q    Type
REMARK                         _______ _______ _______ _____ _____    ______ ____
ROOT
ATOM      1  C   LIG    1       25.520 -13.690   4.423  0.00  0.00    +0.024 C 
ATOM      2  C   LIG    1       26.058 -13.311   2.953  0.00  0.00    -0.014 C 
ATOM      3  C   LIG    1       25.777 -11.862   2.510  0.00  0.00    +0.013 C 
ATOM      4  C   LIG    1       25.490 -14.202   1.813  0.00  0.00    +0.013 C 
ATOM      5  C   LIG    1       27.593 -13.622   3.079  0.00  0.00    -0.003 C 
ATOM      6  C   LIG    1       27.619 -14.822   4.034  0.00  0.00    +0.009 C 
ATOM      7  C   LIG    1       28.326 -12.577   3.934  0.00  0.00    +0.004 C 
ATOM      8  C   LIG    1       27.797 -12.858   5.342  0.00  0.00    +0.005 C 
ATOM      9  C   LIG    1       26.866 -14.072   5.136  0.00  0.00    +0.010 C 
ATOM     10  C   LIG    1       24.766 -12.555   5.141  0.00  0.00    +0.028 C 
ENDROOT
BRANCH   1  12
ATOM     11  C   LIG    1       23.186 -14.604   4.512  0.00  0.00    +0.101 C 
ATOM     12  N   LIG    1       24.606 -14.856   4.325  0.00  0.00    -0.313 NA
ATOM     13  H   LIG    1       24.742 -15.309   3.421  0.00  0.00    +0.122 HD
ENDBRANCH   1  12
TORSDOF 1
ENDMDL
MODEL 6
REMARK VINA RESULT:      -2.5      1.120      2.194
REMARK  Name = *****
REMARK                            x       y       z     vdW  Elec       q    Type
REMARK                         _______ _______ _______ _____ _____    ______ ____
ROOT
ATOM      1  C   LIG    1       26.098 -14.529   3.375  0.00  0.00    +0.024 C 
ATOM      2  C   LIG    1       26.368 -13.417   4.507  0.00  0.00    -0.014 C 
ATOM      3  C   LIG    1       27.291 -12.261   4.078  0.00  0.00    +0.013 C 
ATOM      4  C   LIG    1       26.995 -13.973   5.816  0.00  0.00    +0.013 C 
ATOM      5  C   LIG    1       24.910 -12.938   4.846  0.00  0.00    -0.003 C 
ATOM      6  C   LIG    1       24.083 -14.218   4.671  0.00  0.00    +0.009 C 
ATOM      7  C   LIG    1       24.312 -12.072   3.726  0.00  0.00    +0.004 C 
ATOM      8  C   LIG    1       24.093 -13.081   2.596  0.00  0.00    +0.005 C 
ATOM      9  C   LIG    1       24.538 -14.419   3.223  0.00  0.00    +0.010 C 
ATOM     10  C   LIG    1       26.844 -14.287   2.049  0.00  0.00    +0.028 C 
ENDROOT
BRANCH   1  12
ATOM     11  C   LIG    1       25.955 -17.028   3.213  0.00  0.00    +0.101 C 
ATOM     12  N   LIG    1       26.501 -15.862   3.890  0.00  0.00    -0.313 NA
ATOM     13  H   LIG    1       27.519 -15.926   3.881  0.00  0.00    +0.122 HD
ENDBRANCH   1  12
TORSDOF 1
ENDMDL
MODEL 7
REMARK VINA RESULT:      -2.3      1.234      1.528
REMARK  Name = *****
REMARK                            x       y       z     vdW  Elec       q    Type
REMARK                         _______ _______ _______ _____ _____    ______ ____
ROOT
ATOM      1  C   LIG    1       26.269 -15.176   3.502  0.00  0.00    +0.024 C 
ATOM      2  C   LIG    1       25.333 -14.111   4.266  0.00  0.00    -0.014 C 
ATOM      3  C   LIG    1       25.826 -13.696   5.665  0.00  0.00    +0.013 C 
ATOM      4  C   LIG    1       23.866 -14.580   4.474  0.00  0.00    +0.013 C 
ATOM      5  C   LIG    1       25.308 -12.913   3.249  0.00  0.00    -0.003 C 
ATOM      6  C   LIG    1       25.365 -13.620   1.889  0.00  0.00    +0.009 C 
ATOM      7  C   LIG    1       26.645 -12.154   3.218  0.00  0.00    +0.004 C 
ATOM      8  C   LIG    1       27.589 -13.157   2.552  0.00  0.00    +0.005 C 
ATOM      9  C   LIG    1       26.667 -14.351   2.226  0.00  0.00    +0.010 C 
ATOM     10  C   LIG    1       27.491 -15.650   4.311  0.00  0.00    +0.028 C 
ENDROOT
BRANCH   1  12
ATOM     11  C   LIG    1       26.082 -17.672   3.350  0.00  0.00    +0.101 C 
ATOM     12  N   LIG    1       25.463 -16.371   3.147  0.00  0.00    -0.313 NA
ATOM     13  H   LIG    1       24.584 -16.344   3.664  0.00  0.00    +0.122 HD
ENDBRANCH   1  12
TORSDOF 1
ENDMDL
MODEL 8
REMARK VINA RESULT:      -2.2      5.170      7.362
REMARK  Name = *****
REMARK                            x       y       z     vdW  Elec       q    Type
REMARK                         _______ _______ _______ _____ _____    ______ ____
ROOT
ATOM      1  C   LIG    1       22.695 -19.157   4.472  0.00  0.00    +0.024 C 
ATOM      2  C   LIG    1       22.948 -20.495   5.331  0.00  0.00    -0.014 C 
ATOM      3  C   LIG    1       21.854 -21.572   5.196  0.00  0.00    +0.013 C 
ATOM      4  C   LIG    1       23.099 -20.258   6.859  0.00  0.00    +0.013 C 
ATOM      5  C   LIG    1       24.342 -20.972   4.785  0.00  0.00    -0.003 C 
ATOM      6  C   LIG    1       25.061 -19.651   4.486  0.00  0.00    +0.009 C 
ATOM      7  C   LIG    1       24.238 -21.554   3.365  0.00  0.00    +0.004 C 
ATOM      8  C   LIG    1       23.935 -20.318   2.514  0.00  0.00    +0.005 C 
ATOM      9  C   LIG    1       23.959 -19.165   3.539  0.00  0.00    +0.010 C 
ATOM     10  C   LIG    1       21.372 -19.142   3.683  0.00  0.00    +0.028 C 
ENDROOT
BRANCH   1  12
ATOM     11  C   LIG    1       22.336 -16.697   4.806  0.00  0.00    +0.101 C 
ATOM     12  N   LIG    1       22.699 -17.983   5.381  0.00  0.00    -0.313 NA
ATOM     13  H   LIG    1       22.081 -18.173   6.171  0.00  0.00    +0.122 HD
ENDBRANCH   1  12
TORSDOF 1
ENDMDL
MODEL 9
REMARK VINA RESULT:      -2.2      4.738      6.905
REMARK  Name = *****
REMARK                            x       y       z     vdW  Elec       q    Type
REMARK                         _______ _______ _______ _____ _____    ______ ____
ROOT
ATOM      1  C   LIG    1       23.953 -19.169   3.741  0.00  0.00    +0.024 C 
ATOM      2  C   LIG    1       22.549 -18.932   4.494  0.00  0.00    -0.014 C 
ATOM      3  C   LIG    1       21.300 -19.318   3.679  0.00  0.00    +0.013 C 
ATOM      4  C   LIG    1       22.303 -17.465   4.944  0.00  0.00    +0.013 C 
ATOM      5  C   LIG    1       22.724 -19.803   5.790  0.00  0.00    -0.003 C 
ATOM      6  C   LIG    1       24.222 -19.668   6.090  0.00  0.00    +0.009 C 
ATOM      7  C   LIG    1       22.641 -21.308   5.489  0.00  0.00    +0.004 C 
ATOM      8  C   LIG    1       23.935 -21.572   4.715  0.00  0.00    +0.005 C 
ATOM      9  C   LIG    1       24.635 -20.197   4.714  0.00  0.00    +0.010 C 
ATOM     10  C   LIG    1       23.826 -19.704   2.302  0.00  0.00    +0.028 C 
ENDROOT
BRANCH   1  12
ATOM     11  C   LIG    1       26.107 -17.959   3.312  0.00  0.00    +0.101 C 
ATOM     12  N   LIG    1       24.704 -17.889   3.689  0.00  0.00    -0.313 NA
ATOM     13  H   LIG    1       24.226 -17.250   3.053  0.00  0.00    +0.122 HD
ENDBRANCH   1  12
TORSDOF 1
ENDMDL
