MODEL 1
REMARK VINA RESULT:      46.5      0.000      0.000
REMARK  Name = *****
REMARK                            x       y       z     vdW  Elec       q    Type
REMARK                         _______ _______ _______ _____ _____    ______ ____
ROOT
ATOM      1  C   LIG    1       22.138 -16.368   5.848  0.00  0.00    +0.166 C 
ATOM      2  N   LIG    1       22.036 -17.232   4.656  0.00  0.00    -0.285 N 
ATOM      3  C   LIG    1       21.125 -17.040   3.627  0.00  0.00    +0.237 C 
ATOM      4  O   LIG    1       20.421 -16.027   3.653  0.00  0.00    -0.274 OA
ATOM      5  C   LIG    1       22.894 -18.386   4.796  0.00  0.00    +0.153 C 
ATOM      6  C   LIG    1       23.745 -18.148   6.057  0.00  0.00    +0.195 C 
ATOM      7  C   LIG    1       22.798 -17.281   6.893  0.00  0.00    +0.078 C 
ENDROOT
BRANCH   1  10
ATOM      8  N   LIG    1       22.918 -14.517   4.401  0.00  0.00    -0.299 N 
ATOM      9  H   LIG    1       22.194 -14.829   3.759  0.00  0.00    +0.150 HD
ATOM     10  C   LIG    1       23.033 -15.122   5.633  0.00  0.00    +0.234 C 
ATOM     11  O   LIG    1       23.870 -14.734   6.450  0.00  0.00    -0.274 OA
BRANCH   8  13
ATOM     12  C   LIG    1       23.858 -13.156   2.486  0.00  0.00    +0.046 C 
ATOM     13  C   LIG    1       23.738 -13.380   3.996  0.00  0.00    +0.118 C 
ATOM     14  C   LIG    1       23.047 -12.204   3.314  0.00  0.00    +0.046 C 
BRANCH  12  16
ATOM     15  C   LIG    1       25.624 -11.451   2.063  0.00  0.00    +0.004 C 
ATOM     16  C   LIG    1       25.059 -12.641   1.823  0.00  0.00    -0.028 C 
ENDBRANCH  12  16
BRANCH  13  17
ATOM     17  C   LIG    1       24.858 -13.029   4.956  0.00  0.00    +0.231 C 
ATOM     18  N   LIG    1       26.002 -13.602   4.876  0.00  0.00    -0.098 NA
BRANCH  18  19
ATOM     19  S   LIG    1       27.185 -13.249   5.908  0.00  0.00    +0.075 S 
ATOM     20  O   LIG    1       27.701 -14.510   6.431  0.00  0.00    -0.151 OA
ATOM     21  O   LIG    1       26.753 -12.222   6.824  0.00  0.00    -0.151 OA
BRANCH  19  22
ATOM     22  C   LIG    1       28.580 -12.593   4.919  0.00  0.00    +0.155 C 
ATOM     23  C   LIG    1       29.182 -13.555   3.930  0.00  0.00    +0.030 C 
ATOM     24  C   LIG    1       28.274 -12.461   3.447  0.00  0.00    +0.030 C 
ENDBRANCH  19  22
ENDBRANCH  18  19
BRANCH  17  25
ATOM     25  O   LIG    1       24.541 -12.083   5.865  0.00  0.00    -0.493 OA
ATOM     26  H   LIG    1       23.903 -11.436   5.502  0.00  0.00    +0.293 HD
ENDBRANCH  17  25
ENDBRANCH  13  17
ENDBRANCH   8  13
ENDBRANCH   1  10
BRANCH   3  27
ATOM     27  C   LIG    1       20.910 -18.215   2.561  0.00  0.00    +0.168 C 
BRANCH  27  28
ATOM     28  C   LIG    1       20.280 -19.554   3.105  0.00  0.00    -0.011 C 
ATOM     29  C   LIG    1       19.398 -19.182   4.311  0.00  0.00    +0.013 C 
ATOM     30  C   LIG    1       21.307 -20.629   3.508  0.00  0.00    +0.013 C 
ATOM     31  C   LIG    1       19.350 -20.259   2.077  0.00  0.00    +0.013 C 
ENDBRANCH  27  28
BRANCH  27  32
ATOM     32  N   LIG    1       22.227 -18.460   1.926  0.00  0.00    -0.269 N 
ATOM     33  H   LIG    1       22.378 -18.077   1.002  0.00  0.00    +0.153 HD
ATOM     34  C   LIG    1       23.313 -19.027   2.484  0.00  0.00    +0.401 C 
ATOM     35  O   LIG    1       24.347 -19.138   1.812  0.00  0.00    -0.226 OA
BRANCH  34  36
ATOM     36  O   LIG    1       23.144 -19.417   3.817  0.00  0.00    -0.445 OA
BRANCH  36  37
ATOM     37  C   LIG    1       23.143 -20.838   4.133  0.00  0.00    +0.107 C 
ATOM     38  C   LIG    1       22.502 -21.549   2.927  0.00  0.00    +0.055 C 
ATOM     39  C   LIG    1       22.300 -21.206   5.366  0.00  0.00    +0.055 C 
ATOM     40  C   LIG    1       24.589 -21.320   4.282  0.00  0.00    +0.055 C 
ENDBRANCH  36  37
ENDBRANCH  34  36
ENDBRANCH  27  32
ENDBRANCH   3  27
BRANCH   6  41
ATOM     41  O   LIG    1       24.075 -19.344   6.774  0.00  0.00    -0.471 OA
BRANCH  41  42
ATOM     42  C   LIG    1       25.357 -19.779   6.483  0.00  0.00    +0.223 A 
ATOM     43  C   LIG    1       26.167 -19.024   5.635  0.00  0.00    +0.049 A 
ATOM     44  C   LIG    1       27.452 -19.543   5.316  0.00  0.00    +0.030 A 
ATOM     45  C   LIG    1       28.248 -18.794   4.416  0.00  0.00    +0.014 A 
ATOM     46  C   LIG    1       27.787 -17.591   3.858  0.00  0.00    +0.021 A 
ATOM     47  C   LIG    1       26.539 -17.091   4.213  0.00  0.00    +0.042 A 
ATOM     48 CL   LIG    1       25.986 -15.596   3.565  0.00  0.00    -0.084 Cl
ATOM     49  C   LIG    1       27.861 -20.761   5.923  0.00  0.00    +0.146 A 
ATOM     50  C   LIG    1       26.967 -21.390   6.775  0.00  0.00    +0.160 A 
ATOM     51  C   LIG    1       25.734 -17.794   5.098  0.00  0.00    +0.034 A 
ATOM     52  N   LIG    1       25.749 -20.925   7.062  0.00  0.00    -0.217 NA
BRANCH  49  53
ATOM     53  O   LIG    1       29.103 -21.290   5.661  0.00  0.00    -0.493 OA
ATOM     54  C   LIG    1       29.475 -21.242   4.274  0.00  0.00    +0.277 C 
ENDBRANCH  49  53
ENDBRANCH  41  42
ENDBRANCH   6  41
TORSDOF 15
ENDMDL
MODEL 2
REMARK VINA RESULT:      48.7      2.242      7.310
REMARK  Name = *****
REMARK                            x       y       z     vdW  Elec       q    Type
REMARK                         _______ _______ _______ _____ _____    ______ ____
ROOT
ATOM      1  C   LIG    1       22.791 -16.280   3.134  0.00  0.00    +0.166 C 
ATOM      2  N   LIG    1       23.245 -15.423   4.245  0.00  0.00    -0.285 N 
ATOM      3  C   LIG    1       22.465 -15.092   5.345  0.00  0.00    +0.237 C 
ATOM      4  O   LIG    1       21.359 -15.627   5.459  0.00  0.00    -0.274 OA
ATOM      5  C   LIG    1       24.536 -14.850   3.945  0.00  0.00    +0.153 C 
ATOM      6  C   LIG    1       25.030 -15.535   2.658  0.00  0.00    +0.195 C 
ATOM      7  C   LIG    1       23.701 -15.861   1.968  0.00  0.00    +0.078 C 
ENDROOT
BRANCH   1  10
ATOM      8  N   LIG    1       21.833 -18.493   3.688  0.00  0.00    -0.299 N 
ATOM      9  H   LIG    1       20.933 -18.031   3.595  0.00  0.00    +0.150 HD
ATOM     10  C   LIG    1       22.983 -17.793   3.402  0.00  0.00    +0.234 C 
ATOM     11  O   LIG    1       24.086 -18.342   3.461  0.00  0.00    -0.274 OA
BRANCH   8  13
ATOM     12  C   LIG    1       20.481 -20.481   4.479  0.00  0.00    +0.046 C 
ATOM     13  C   LIG    1       21.832 -19.910   4.041  0.00  0.00    +0.118 C 
ATOM     14  C   LIG    1       21.055 -20.872   3.149  0.00  0.00    +0.046 C 
BRANCH  12  16
ATOM     15  C   LIG    1       20.958 -21.570   6.668  0.00  0.00    +0.004 C 
ATOM     16  C   LIG    1       20.318 -21.527   5.493  0.00  0.00    -0.028 C 
ENDBRANCH  12  16
BRANCH  13  17
ATOM     17  C   LIG    1       23.145 -20.427   4.595  0.00  0.00    +0.231 C 
ATOM     18  N   LIG    1       23.746 -19.820   5.551  0.00  0.00    -0.098 NA
BRANCH  18  19
ATOM     19  S   LIG    1       25.152 -20.355   6.125  0.00  0.00    +0.075 S 
ATOM     20  O   LIG    1       24.880 -21.568   6.888  0.00  0.00    -0.151 OA
ATOM     21  O   LIG    1       25.878 -19.273   6.744  0.00  0.00    -0.151 OA
BRANCH  19  22
ATOM     22  C   LIG    1       26.121 -20.957   4.693  0.00  0.00    +0.155 C 
ATOM     23  C   LIG    1       25.584 -20.573   3.340  0.00  0.00    +0.030 C 
ATOM     24  C   LIG    1       26.781 -19.856   3.898  0.00  0.00    +0.030 C 
ENDBRANCH  19  22
ENDBRANCH  18  19
BRANCH  17  25
ATOM     25  O   LIG    1       23.597 -21.555   4.005  0.00  0.00    -0.493 OA
ATOM     26  H   LIG    1       24.570 -21.540   3.901  0.00  0.00    +0.293 HD
ENDBRANCH  17  25
ENDBRANCH  13  17
ENDBRANCH   8  13
ENDBRANCH   1  10
BRANCH   3  27
ATOM     27  C   LIG    1       22.959 -13.915   6.311  0.00  0.00    +0.168 C 
BRANCH  27  28
ATOM     28  C   LIG    1       22.305 -12.498   6.087  0.00  0.00    -0.011 C 
ATOM     29  C   LIG    1       23.432 -11.455   6.204  0.00  0.00    +0.013 C 
ATOM     30  C   LIG    1       21.161 -12.157   7.062  0.00  0.00    +0.013 C 
ATOM     31  C   LIG    1       21.685 -12.323   4.672  0.00  0.00    +0.013 C 
ENDBRANCH  27  28
BRANCH  27  32
ATOM     32  N   LIG    1       24.434 -13.851   6.185  0.00  0.00    -0.269 N 
ATOM     33  H   LIG    1       24.967 -14.635   6.539  0.00  0.00    +0.153 HD
ATOM     34  C   LIG    1       25.163 -12.925   5.533  0.00  0.00    +0.401 C 
ATOM     35  O   LIG    1       26.396 -13.035   5.511  0.00  0.00    -0.226 OA
BRANCH  34  36
ATOM     36  O   LIG    1       24.407 -11.923   4.915  0.00  0.00    -0.445 OA
BRANCH  36  37
ATOM     37  C   LIG    1       24.110 -12.051   3.495  0.00  0.00    +0.107 C 
ATOM     38  C   LIG    1       24.064 -13.561   3.197  0.00  0.00    +0.055 C 
ATOM     39  C   LIG    1       25.183 -11.448   2.573  0.00  0.00    +0.055 C 
ATOM     40  C   LIG    1       22.730 -11.448   3.214  0.00  0.00    +0.055 C 
ENDBRANCH  36  37
ENDBRANCH  34  36
ENDBRANCH  27  32
ENDBRANCH   3  27
BRANCH   6  41
ATOM     41  O   LIG    1       25.825 -14.692   1.814  0.00  0.00    -0.471 OA
BRANCH  41  42
ATOM     42  C   LIG    1       26.776 -13.993   2.539  0.00  0.00    +0.223 A 
ATOM     43  C   LIG    1       27.581 -14.669   3.456  0.00  0.00    +0.049 A 
ATOM     44  C   LIG    1       28.498 -13.897   4.221  0.00  0.00    +0.030 A 
ATOM     45  C   LIG    1       29.276 -14.584   5.185  0.00  0.00    +0.014 A 
ATOM     46  C   LIG    1       29.145 -15.968   5.378  0.00  0.00    +0.021 A 
ATOM     47  C   LIG    1       28.264 -16.703   4.593  0.00  0.00    +0.042 A 
ATOM     48 CL   LIG    1       28.129 -18.405   4.798  0.00  0.00    -0.084 Cl
ATOM     49  C   LIG    1       28.587 -12.501   3.968  0.00  0.00    +0.146 A 
ATOM     50  C   LIG    1       27.751 -11.966   3.002  0.00  0.00    +0.160 A 
ATOM     51  C   LIG    1       27.490 -16.064   3.634  0.00  0.00    +0.034 A 
ATOM     52  N   LIG    1       26.868 -12.676   2.296  0.00  0.00    -0.217 NA
BRANCH  49  53
ATOM     53  O   LIG    1       29.475 -11.720   4.669  0.00  0.00    -0.493 OA
ATOM     54  C   LIG    1       29.128 -11.542   6.052  0.00  0.00    +0.277 C 
ENDBRANCH  49  53
ENDBRANCH  41  42
ENDBRANCH   6  41
TORSDOF 15
ENDMDL
