MODEL 1
REMARK VINA RESULT:      -7.3      0.000      0.000
REMARK  Name = *****
REMARK                            x       y       z     vdW  Elec       q    Type
REMARK                         _______ _______ _______ _____ _____    ______ ____
ROOT
ATOM      1  C   LIG    1       26.243 -23.431   7.610  0.00  0.00    +0.048 C 
ATOM      2  C   LIG    1       26.327 -22.140   6.857  0.00  0.00    -0.004 A 
ATOM      3  C   LIG    1       25.341 -21.689   5.967  0.00  0.00    +0.143 A 
ATOM      4  C   LIG    1       25.536 -20.518   5.186  0.00  0.00    +0.028 A 
ATOM      5  C   LIG    1       26.780 -19.833   5.256  0.00  0.00    +0.028 A 
ATOM      6  C   LIG    1       27.013 -18.754   4.379  0.00  0.00    +0.012 A 
ATOM      7  C   LIG    1       26.034 -18.316   3.485  0.00  0.00    +0.001 A 
ATOM      8  C   LIG    1       24.794 -18.936   3.461  0.00  0.00    +0.001 A 
ATOM      9  C   LIG    1       27.745 -20.289   6.179  0.00  0.00    +0.140 A 
ATOM     10  C   LIG    1       24.550 -20.030   4.296  0.00  0.00    +0.012 A 
ATOM     11  C   LIG    1       27.481 -21.374   7.017  0.00  0.00    +0.053 A 
ENDROOT
BRANCH   3  12
ATOM     12  O   LIG    1       24.251 -22.470   5.676  0.00  0.00    -0.403 OA
BRANCH  12  13
ATOM     13  P   LIG    1       22.857 -22.456   6.462  0.00  0.00    +0.528 P 
ATOM     14  O   LIG    1       22.845 -21.683   7.736  0.00  0.00    -0.216 OA
BRANCH  13  15
ATOM     15  O   LIG    1       22.379 -23.966   6.673  0.00  0.00    -0.293 OA
ATOM     16  H   LIG    1       21.839 -24.035   7.481  0.00  0.00    +0.223 HD
ENDBRANCH  13  15
BRANCH  13  17
ATOM     17  O   LIG    1       21.760 -21.884   5.453  0.00  0.00    -0.293 OA
ATOM     18  H   LIG    1       22.085 -21.917   4.534  0.00  0.00    +0.223 HD
ENDBRANCH  13  17
ENDBRANCH  12  13
ENDBRANCH   3  12
BRANCH   9  19
ATOM     19  O   LIG    1       28.987 -19.699   6.179  0.00  0.00    -0.403 OA
BRANCH  19  20
ATOM     20  P   LIG    1       29.833 -19.499   7.528  0.00  0.00    +0.528 P 
ATOM     21  O   LIG    1       29.076 -19.134   8.760  0.00  0.00    -0.216 OA
BRANCH  20  22
ATOM     22  O   LIG    1       30.948 -18.409   7.183  0.00  0.00    -0.293 OA
ATOM     23  H   LIG    1       31.204 -17.920   7.985  0.00  0.00    +0.223 HD
ENDBRANCH  20  22
BRANCH  20  24
ATOM     24  O   LIG    1       30.734 -20.806   7.741  0.00  0.00    -0.293 OA
ATOM     25  H   LIG    1       30.391 -21.561   7.234  0.00  0.00    +0.223 HD
ENDBRANCH  20  24
ENDBRANCH  19  20
ENDBRANCH   9  19
TORSDOF 8
ENDMDL
MODEL 2
REMARK VINA RESULT:      -7.0      2.618      6.437
REMARK  Name = *****
REMARK                            x       y       z     vdW  Elec       q    Type
REMARK                         _______ _______ _______ _____ _____    ______ ____
ROOT
ATOM      1  C   LIG    1       31.147 -21.609   9.533  0.00  0.00    +0.048 C 
ATOM      2  C   LIG    1       30.334 -21.132   8.370  0.00  0.00    -0.004 A 
ATOM      3  C   LIG    1       30.629 -19.977   7.631  0.00  0.00    +0.143 A 
ATOM      4  C   LIG    1       29.750 -19.506   6.618  0.00  0.00    +0.028 A 
ATOM      5  C   LIG    1       28.516 -20.179   6.400  0.00  0.00    +0.028 A 
ATOM      6  C   LIG    1       27.592 -19.626   5.490  0.00  0.00    +0.012 A 
ATOM      7  C   LIG    1       27.884 -18.468   4.766  0.00  0.00    +0.001 A 
ATOM      8  C   LIG    1       29.113 -17.848   4.924  0.00  0.00    +0.001 A 
ATOM      9  C   LIG    1       28.254 -21.354   7.136  0.00  0.00    +0.140 A 
ATOM     10  C   LIG    1       30.033 -18.356   5.845  0.00  0.00    +0.012 A 
ATOM     11  C   LIG    1       29.189 -21.858   8.042  0.00  0.00    +0.053 A 
ENDROOT
BRANCH   3  12
ATOM     12  O   LIG    1       31.668 -19.158   7.998  0.00  0.00    -0.403 OA
BRANCH  12  13
ATOM     13  P   LIG    1       31.560 -17.891   8.969  0.00  0.00    +0.528 P 
ATOM     14  O   LIG    1       30.177 -17.412   9.249  0.00  0.00    -0.216 OA
BRANCH  13  15
ATOM     15  O   LIG    1       32.491 -16.729   8.392  0.00  0.00    -0.293 OA
ATOM     16  H   LIG    1       33.426 -16.999   8.432  0.00  0.00    +0.223 HD
ENDBRANCH  13  15
BRANCH  13  17
ATOM     17  O   LIG    1       32.299 -18.284  10.329  0.00  0.00    -0.293 OA
ATOM     18  H   LIG    1       32.789 -19.121  10.227  0.00  0.00    +0.223 HD
ENDBRANCH  13  17
ENDBRANCH  12  13
ENDBRANCH   3  12
BRANCH   9  19
ATOM     19  O   LIG    1       27.022 -21.950   7.008  0.00  0.00    -0.403 OA
BRANCH  19  20
ATOM     20  P   LIG    1       25.775 -21.531   7.926  0.00  0.00    +0.528 P 
ATOM     21  O   LIG    1       26.078 -20.926   9.255  0.00  0.00    -0.216 OA
BRANCH  20  22
ATOM     22  O   LIG    1       24.883 -22.848   8.075  0.00  0.00    -0.293 OA
ATOM     23  H   LIG    1       24.460 -22.874   8.952  0.00  0.00    +0.223 HD
ENDBRANCH  20  22
BRANCH  20  24
ATOM     24  O   LIG    1       24.809 -20.602   7.049  0.00  0.00    -0.293 OA
ATOM     25  H   LIG    1       24.261 -21.130   6.443  0.00  0.00    +0.223 HD
ENDBRANCH  20  24
ENDBRANCH  19  20
ENDBRANCH   9  19
TORSDOF 8
ENDMDL
MODEL 3
REMARK VINA RESULT:      -6.8      3.974      5.219
REMARK  Name = *****
REMARK                            x       y       z     vdW  Elec       q    Type
REMARK                         _______ _______ _______ _____ _____    ______ ____
ROOT
ATOM      1  C   LIG    1       21.820 -23.345   6.392  0.00  0.00    +0.048 C 
ATOM      2  C   LIG    1       23.250 -23.104   6.763  0.00  0.00    -0.004 A 
ATOM      3  C   LIG    1       23.811 -21.829   6.928  0.00  0.00    +0.143 A 
ATOM      4  C   LIG    1       25.203 -21.660   7.156  0.00  0.00    +0.028 A 
ATOM      5  C   LIG    1       26.053 -22.801   7.146  0.00  0.00    +0.028 A 
ATOM      6  C   LIG    1       27.447 -22.611   7.237  0.00  0.00    +0.012 A 
ATOM      7  C   LIG    1       28.001 -21.339   7.388  0.00  0.00    +0.001 A 
ATOM      8  C   LIG    1       27.173 -20.230   7.467  0.00  0.00    +0.001 A 
ATOM      9  C   LIG    1       25.462 -24.075   7.006  0.00  0.00    +0.140 A 
ATOM     10  C   LIG    1       25.790 -20.388   7.345  0.00  0.00    +0.012 A 
ATOM     11  C   LIG    1       24.078 -24.218   6.900  0.00  0.00    +0.053 A 
ENDROOT
BRANCH   3  12
ATOM     12  O   LIG    1       23.069 -20.701   6.674  0.00  0.00    -0.403 OA
BRANCH  12  13
ATOM     13  P   LIG    1       22.709 -20.128   5.225  0.00  0.00    +0.528 P 
ATOM     14  O   LIG    1       22.350 -18.683   5.175  0.00  0.00    -0.216 OA
BRANCH  13  15
ATOM     15  O   LIG    1       21.573 -21.050   4.583  0.00  0.00    -0.293 OA
ATOM     16  H   LIG    1       21.477 -21.869   5.099  0.00  0.00    +0.223 HD
ENDBRANCH  13  15
BRANCH  13  17
ATOM     17  O   LIG    1       23.966 -20.422   4.283  0.00  0.00    -0.293 OA
ATOM     18  H   LIG    1       23.930 -21.331   3.934  0.00  0.00    +0.223 HD
ENDBRANCH  13  17
ENDBRANCH  12  13
ENDBRANCH   3  12
BRANCH   9  19
ATOM     19  O   LIG    1       26.283 -25.172   6.890  0.00  0.00    -0.403 OA
BRANCH  19  20
ATOM     20  P   LIG    1       25.989 -26.347   5.838  0.00  0.00    +0.528 P 
ATOM     21  O   LIG    1       25.075 -27.442   6.275  0.00  0.00    -0.216 OA
BRANCH  20  22
ATOM     22  O   LIG    1       27.419 -26.916   5.410  0.00  0.00    -0.293 OA
ATOM     23  H   LIG    1       27.613 -27.740   5.890  0.00  0.00    +0.223 HD
ENDBRANCH  20  22
BRANCH  20  24
ATOM     24  O   LIG    1       25.504 -25.670   4.469  0.00  0.00    -0.293 OA
ATOM     25  H   LIG    1       26.234 -25.598   3.831  0.00  0.00    +0.223 HD
ENDBRANCH  20  24
ENDBRANCH  19  20
ENDBRANCH   9  19
TORSDOF 8
ENDMDL
MODEL 4
REMARK VINA RESULT:      -6.6      1.505      3.514
REMARK  Name = *****
REMARK                            x       y       z     vdW  Elec       q    Type
REMARK                         _______ _______ _______ _____ _____    ______ ____
ROOT
ATOM      1  C   LIG    1       25.712 -18.374   3.516  0.00  0.00    +0.048 C 
ATOM      2  C   LIG    1       26.032 -19.495   4.456  0.00  0.00    -0.004 A 
ATOM      3  C   LIG    1       25.176 -20.579   4.700  0.00  0.00    +0.143 A 
ATOM      4  C   LIG    1       25.478 -21.546   5.697  0.00  0.00    +0.028 A 
ATOM      5  C   LIG    1       26.633 -21.370   6.509  0.00  0.00    +0.028 A 
ATOM      6  C   LIG    1       26.850 -22.258   7.582  0.00  0.00    +0.012 A 
ATOM      7  C   LIG    1       25.988 -23.329   7.830  0.00  0.00    +0.001 A 
ATOM      8  C   LIG    1       24.900 -23.545   6.998  0.00  0.00    +0.001 A 
ATOM      9  C   LIG    1       27.492 -20.288   6.227  0.00  0.00    +0.140 A 
ATOM     10  C   LIG    1       24.643 -22.659   5.948  0.00  0.00    +0.012 A 
ATOM     11  C   LIG    1       27.231 -19.419   5.165  0.00  0.00    +0.053 A 
ENDROOT
BRANCH   3  12
ATOM     12  O   LIG    1       23.930 -20.629   4.126  0.00  0.00    -0.403 OA
BRANCH  12  13
ATOM     13  P   LIG    1       22.576 -20.091   4.788  0.00  0.00    +0.528 P 
ATOM     14  O   LIG    1       21.987 -18.879   4.153  0.00  0.00    -0.216 OA
BRANCH  13  15
ATOM     15  O   LIG    1       22.822 -19.887   6.353  0.00  0.00    -0.293 OA
ATOM     16  H   LIG    1       23.720 -19.542   6.507  0.00  0.00    +0.223 HD
ENDBRANCH  13  15
BRANCH  13  17
ATOM     17  O   LIG    1       21.531 -21.299   4.757  0.00  0.00    -0.293 OA
ATOM     18  H   LIG    1       20.956 -21.279   5.543  0.00  0.00    +0.223 HD
ENDBRANCH  13  17
ENDBRANCH  12  13
ENDBRANCH   3  12
BRANCH   9  19
ATOM     19  O   LIG    1       28.551 -20.050   7.071  0.00  0.00    -0.403 OA
BRANCH  19  20
ATOM     20  P   LIG    1       29.735 -19.039   6.685  0.00  0.00    +0.528 P 
ATOM     21  O   LIG    1       29.585 -18.261   5.422  0.00  0.00    -0.216 OA
BRANCH  20  22
ATOM     22  O   LIG    1       31.070 -19.917   6.675  0.00  0.00    -0.293 OA
ATOM     23  H   LIG    1       31.634 -19.686   7.434  0.00  0.00    +0.223 HD
ENDBRANCH  20  22
BRANCH  20  24
ATOM     24  O   LIG    1       30.001 -18.089   7.948  0.00  0.00    -0.293 OA
ATOM     25  H   LIG    1       29.918 -18.578   8.785  0.00  0.00    +0.223 HD
ENDBRANCH  20  24
ENDBRANCH  19  20
ENDBRANCH   9  19
TORSDOF 8
ENDMDL
MODEL 5
REMARK VINA RESULT:      -6.5      1.722      5.724
REMARK  Name = *****
REMARK                            x       y       z     vdW  Elec       q    Type
REMARK                         _______ _______ _______ _____ _____    ______ ____
ROOT
ATOM      1  C   LIG    1       28.463 -21.324   8.559  0.00  0.00    +0.048 C 
ATOM      2  C   LIG    1       27.497 -21.372   7.417  0.00  0.00    -0.004 A 
ATOM      3  C   LIG    1       27.319 -20.327   6.498  0.00  0.00    +0.143 A 
ATOM      4  C   LIG    1       26.298 -20.380   5.512  0.00  0.00    +0.028 A 
ATOM      5  C   LIG    1       25.395 -21.480   5.503  0.00  0.00    +0.028 A 
ATOM      6  C   LIG    1       24.305 -21.456   4.609  0.00  0.00    +0.012 A 
ATOM      7  C   LIG    1       24.125 -20.407   3.705  0.00  0.00    +0.001 A 
ATOM      8  C   LIG    1       25.041 -19.368   3.663  0.00  0.00    +0.001 A 
ATOM      9  C   LIG    1       25.611 -22.531   6.418  0.00  0.00    +0.140 A 
ATOM     10  C   LIG    1       26.111 -19.350   4.561  0.00  0.00    +0.012 A 
ATOM     11  C   LIG    1       26.693 -22.506   7.300  0.00  0.00    +0.053 A 
ENDROOT
BRANCH   3  12
ATOM     12  O   LIG    1       27.992 -19.140   6.651  0.00  0.00    -0.403 OA
BRANCH  12  13
ATOM     13  P   LIG    1       29.552 -18.910   6.381  0.00  0.00    +0.528 P 
ATOM     14  O   LIG    1       30.301 -18.230   7.474  0.00  0.00    -0.216 OA
BRANCH  13  15
ATOM     15  O   LIG    1       29.719 -18.158   4.982  0.00  0.00    -0.293 OA
ATOM     16  H   LIG    1       29.989 -17.235   5.129  0.00  0.00    +0.223 HD
ENDBRANCH  13  15
BRANCH  13  17
ATOM     17  O   LIG    1       30.187 -20.345   6.080  0.00  0.00    -0.293 OA
ATOM     18  H   LIG    1       30.996 -20.259   5.542  0.00  0.00    +0.223 HD
ENDBRANCH  13  17
ENDBRANCH  12  13
ENDBRANCH   3  12
BRANCH   9  19
ATOM     19  O   LIG    1       24.684 -23.544   6.487  0.00  0.00    -0.403 OA
BRANCH  19  20
ATOM     20  P   LIG    1       24.986 -25.012   5.914  0.00  0.00    +0.528 P 
ATOM     21  O   LIG    1       26.271 -25.652   6.317  0.00  0.00    -0.216 OA
BRANCH  20  22
ATOM     22  O   LIG    1       24.867 -24.892   4.326  0.00  0.00    -0.293 OA
ATOM     23  H   LIG    1       24.894 -25.774   3.915  0.00  0.00    +0.223 HD
ENDBRANCH  20  22
BRANCH  20  24
ATOM     24  O   LIG    1       23.722 -25.939   6.247  0.00  0.00    -0.293 OA
ATOM     25  H   LIG    1       23.725 -26.223   7.178  0.00  0.00    +0.223 HD
ENDBRANCH  20  24
ENDBRANCH  19  20
ENDBRANCH   9  19
TORSDOF 8
ENDMDL
MODEL 6
REMARK VINA RESULT:      -6.5      1.644      6.226
REMARK  Name = *****
REMARK                            x       y       z     vdW  Elec       q    Type
REMARK                         _______ _______ _______ _____ _____    ______ ____
ROOT
ATOM      1  C   LIG    1       28.565 -18.960   5.320  0.00  0.00    +0.048 C 
ATOM      2  C   LIG    1       27.457 -19.918   5.627  0.00  0.00    -0.004 A 
ATOM      3  C   LIG    1       27.610 -21.061   6.425  0.00  0.00    +0.143 A 
ATOM      4  C   LIG    1       26.554 -22.000   6.576  0.00  0.00    +0.028 A 
ATOM      5  C   LIG    1       25.347 -21.813   5.848  0.00  0.00    +0.028 A 
ATOM      6  C   LIG    1       24.360 -22.819   5.899  0.00  0.00    +0.012 A 
ATOM      7  C   LIG    1       24.522 -23.961   6.684  0.00  0.00    +0.001 A 
ATOM      8  C   LIG    1       25.668 -24.115   7.450  0.00  0.00    +0.001 A 
ATOM      9  C   LIG    1       25.206 -20.642   5.074  0.00  0.00    +0.140 A 
ATOM     10  C   LIG    1       26.676 -23.150   7.391  0.00  0.00    +0.012 A 
ATOM     11  C   LIG    1       26.216 -19.679   5.036  0.00  0.00    +0.053 A 
ENDROOT
BRANCH   3  12
ATOM     12  O   LIG    1       28.843 -21.409   6.919  0.00  0.00    -0.403 OA
BRANCH  12  13
ATOM     13  P   LIG    1       29.645 -20.627   8.062  0.00  0.00    +0.528 P 
ATOM     14  O   LIG    1       28.931 -19.469   8.670  0.00  0.00    -0.216 OA
BRANCH  13  15
ATOM     15  O   LIG    1       31.075 -20.213   7.485  0.00  0.00    -0.293 OA
ATOM     16  H   LIG    1       31.781 -20.601   8.033  0.00  0.00    +0.223 HD
ENDBRANCH  13  15
BRANCH  13  17
ATOM     17  O   LIG    1       30.021 -21.700   9.183  0.00  0.00    -0.293 OA
ATOM     18  H   LIG    1       30.492 -22.458   8.791  0.00  0.00    +0.223 HD
ENDBRANCH  13  17
ENDBRANCH  12  13
ENDBRANCH   3  12
BRANCH   9  19
ATOM     19  O   LIG    1       24.088 -20.505   4.286  0.00  0.00    -0.403 OA
BRANCH  19  20
ATOM     20  P   LIG    1       22.699 -19.952   4.869  0.00  0.00    +0.528 P 
ATOM     21  O   LIG    1       22.183 -18.671   4.305  0.00  0.00    -0.216 OA
BRANCH  20  22
ATOM     22  O   LIG    1       22.900 -19.854   6.451  0.00  0.00    -0.293 OA
ATOM     23  H   LIG    1       22.097 -20.152   6.914  0.00  0.00    +0.223 HD
ENDBRANCH  20  22
BRANCH  20  24
ATOM     24  O   LIG    1       21.620 -21.131   4.768  0.00  0.00    -0.293 OA
ATOM     25  H   LIG    1       20.748 -20.794   4.498  0.00  0.00    +0.223 HD
ENDBRANCH  20  24
ENDBRANCH  19  20
ENDBRANCH   9  19
TORSDOF 8
ENDMDL
MODEL 7
REMARK VINA RESULT:      -6.4      3.657      5.425
REMARK  Name = *****
REMARK                            x       y       z     vdW  Elec       q    Type
REMARK                         _______ _______ _______ _____ _____    ______ ____
ROOT
ATOM      1  C   LIG    1       22.101 -21.989   5.506  0.00  0.00    +0.048 C 
ATOM      2  C   LIG    1       23.476 -22.049   6.095  0.00  0.00    -0.004 A 
ATOM      3  C   LIG    1       24.387 -20.982   6.064  0.00  0.00    +0.143 A 
ATOM      4  C   LIG    1       25.721 -21.140   6.527  0.00  0.00    +0.028 A 
ATOM      5  C   LIG    1       26.160 -22.422   6.961  0.00  0.00    +0.028 A 
ATOM      6  C   LIG    1       27.520 -22.600   7.288  0.00  0.00    +0.012 A 
ATOM      7  C   LIG    1       28.426 -21.538   7.244  0.00  0.00    +0.001 A 
ATOM      8  C   LIG    1       27.988 -20.272   6.888  0.00  0.00    +0.001 A 
ATOM      9  C   LIG    1       25.219 -23.471   7.008  0.00  0.00    +0.140 A 
ATOM     10  C   LIG    1       26.652 -20.076   6.526  0.00  0.00    +0.012 A 
ATOM     11  C   LIG    1       23.885 -23.258   6.658  0.00  0.00    +0.053 A 
ENDROOT
BRANCH   3  12
ATOM     12  O   LIG    1       24.078 -19.818   5.405  0.00  0.00    -0.403 OA
BRANCH  12  13
ATOM     13  P   LIG    1       24.228 -19.569   3.832  0.00  0.00    +0.528 P 
ATOM     14  O   LIG    1       24.162 -20.788   2.978  0.00  0.00    -0.216 OA
BRANCH  13  15
ATOM     15  O   LIG    1       25.563 -18.730   3.576  0.00  0.00    -0.293 OA
ATOM     16  H   LIG    1       25.692 -18.081   4.290  0.00  0.00    +0.223 HD
ENDBRANCH  13  15
BRANCH  13  17
ATOM     17  O   LIG    1       23.085 -18.535   3.414  0.00  0.00    -0.293 OA
ATOM     18  H   LIG    1       23.457 -17.799   2.894  0.00  0.00    +0.223 HD
ENDBRANCH  13  17
ENDBRANCH  12  13
ENDBRANCH   3  12
BRANCH   9  19
ATOM     19  O   LIG    1       25.658 -24.735   7.326  0.00  0.00    -0.403 OA
BRANCH  19  20
ATOM     20  P   LIG    1       25.390 -25.994   6.367  0.00  0.00    +0.528 P 
ATOM     21  O   LIG    1       24.021 -26.585   6.382  0.00  0.00    -0.216 OA
BRANCH  20  22
ATOM     22  O   LIG    1       26.498 -27.078   6.755  0.00  0.00    -0.293 OA
ATOM     23  H   LIG    1       26.080 -27.863   7.152  0.00  0.00    +0.223 HD
ENDBRANCH  20  22
BRANCH  20  24
ATOM     24  O   LIG    1       25.856 -25.593   4.888  0.00  0.00    -0.293 OA
ATOM     25  H   LIG    1       25.263 -25.967   4.214  0.00  0.00    +0.223 HD
ENDBRANCH  20  24
ENDBRANCH  19  20
ENDBRANCH   9  19
TORSDOF 8
ENDMDL
MODEL 8
REMARK VINA RESULT:      -6.1      0.818      5.797
REMARK  Name = *****
REMARK                            x       y       z     vdW  Elec       q    Type
REMARK                         _______ _______ _______ _____ _____    ______ ____
ROOT
ATOM      1  C   LIG    1       28.176 -21.467   8.546  0.00  0.00    +0.048 C 
ATOM      2  C   LIG    1       27.383 -21.260   7.293  0.00  0.00    -0.004 A 
ATOM      3  C   LIG    1       27.489 -20.121   6.480  0.00  0.00    +0.143 A 
ATOM      4  C   LIG    1       26.620 -19.924   5.373  0.00  0.00    +0.028 A 
ATOM      5  C   LIG    1       25.579 -20.863   5.130  0.00  0.00    +0.028 A 
ATOM      6  C   LIG    1       24.640 -20.588   4.114  0.00  0.00    +0.012 A 
ATOM      7  C   LIG    1       24.741 -19.447   3.316  0.00  0.00    +0.001 A 
ATOM      8  C   LIG    1       25.794 -18.564   3.504  0.00  0.00    +0.001 A 
ATOM      9  C   LIG    1       25.510 -22.013   5.943  0.00  0.00    +0.140 A 
ATOM     10  C   LIG    1       26.719 -18.796   4.526  0.00  0.00    +0.012 A 
ATOM     11  C   LIG    1       26.449 -22.238   6.951  0.00  0.00    +0.053 A 
ENDROOT
BRANCH   3  12
ATOM     12  O   LIG    1       28.296 -19.073   6.846  0.00  0.00    -0.403 OA
BRANCH  12  13
ATOM     13  P   LIG    1       29.858 -18.941   6.522  0.00  0.00    +0.528 P 
ATOM     14  O   LIG    1       30.661 -18.185   7.522  0.00  0.00    -0.216 OA
BRANCH  13  15
ATOM     15  O   LIG    1       30.021 -18.345   5.049  0.00  0.00    -0.293 OA
ATOM     16  H   LIG    1       30.095 -17.375   5.088  0.00  0.00    +0.223 HD
ENDBRANCH  13  15
BRANCH  13  17
ATOM     17  O   LIG    1       30.425 -20.425   6.359  0.00  0.00    -0.293 OA
ATOM     18  H   LIG    1       29.925 -20.914   5.680  0.00  0.00    +0.223 HD
ENDBRANCH  13  17
ENDBRANCH  12  13
ENDBRANCH   3  12
BRANCH   9  19
ATOM     19  O   LIG    1       24.447 -22.870   5.783  0.00  0.00    -0.403 OA
BRANCH  19  20
ATOM     20  P   LIG    1       23.052 -22.647   6.543  0.00  0.00    +0.528 P 
ATOM     21  O   LIG    1       23.085 -21.873   7.817  0.00  0.00    -0.216 OA
BRANCH  20  22
ATOM     22  O   LIG    1       22.438 -24.105   6.762  0.00  0.00    -0.293 OA
ATOM     23  H   LIG    1       21.580 -24.183   6.308  0.00  0.00    +0.223 HD
ENDBRANCH  20  22
BRANCH  20  24
ATOM     24  O   LIG    1       22.013 -22.030   5.491  0.00  0.00    -0.293 OA
ATOM     25  H   LIG    1       21.872 -21.080   5.646  0.00  0.00    +0.223 HD
ENDBRANCH  20  24
ENDBRANCH  19  20
ENDBRANCH   9  19
TORSDOF 8
ENDMDL
MODEL 9
REMARK VINA RESULT:      -5.9      2.291      6.241
REMARK  Name = *****
REMARK                            x       y       z     vdW  Elec       q    Type
REMARK                         _______ _______ _______ _____ _____    ______ ____
ROOT
ATOM      1  C   LIG    1       29.717 -18.420   5.494  0.00  0.00    +0.048 C 
ATOM      2  C   LIG    1       28.470 -19.135   5.913  0.00  0.00    -0.004 A 
ATOM      3  C   LIG    1       28.245 -19.619   7.210  0.00  0.00    +0.143 A 
ATOM      4  C   LIG    1       27.097 -20.400   7.516  0.00  0.00    +0.028 A 
ATOM      5  C   LIG    1       26.199 -20.754   6.471  0.00  0.00    +0.028 A 
ATOM      6  C   LIG    1       25.139 -21.639   6.757  0.00  0.00    +0.012 A 
ATOM      7  C   LIG    1       24.927 -22.130   8.047  0.00  0.00    +0.001 A 
ATOM      8  C   LIG    1       25.759 -21.733   9.082  0.00  0.00    +0.001 A 
ATOM      9  C   LIG    1       26.431 -20.232   5.182  0.00  0.00    +0.140 A 
ATOM     10  C   LIG    1       26.837 -20.883   8.819  0.00  0.00    +0.012 A 
ATOM     11  C   LIG    1       27.503 -19.372   4.936  0.00  0.00    +0.053 A 
ENDROOT
BRANCH   3  12
ATOM     12  O   LIG    1       29.222 -19.526   8.171  0.00  0.00    -0.403 OA
BRANCH  12  13
ATOM     13  P   LIG    1       30.441 -20.544   8.363  0.00  0.00    +0.528 P 
ATOM     14  O   LIG    1       30.896 -20.746   9.767  0.00  0.00    -0.216 OA
BRANCH  13  15
ATOM     15  O   LIG    1       31.637 -20.088   7.406  0.00  0.00    -0.293 OA
ATOM     16  H   LIG    1       31.853 -19.152   7.565  0.00  0.00    +0.223 HD
ENDBRANCH  13  15
BRANCH  13  17
ATOM     17  O   LIG    1       29.993 -21.934   7.717  0.00  0.00    -0.293 OA
ATOM     18  H   LIG    1       30.274 -22.681   8.276  0.00  0.00    +0.223 HD
ENDBRANCH  13  17
ENDBRANCH  12  13
ENDBRANCH   3  12
BRANCH   9  19
ATOM     19  O   LIG    1       25.630 -20.652   4.146  0.00  0.00    -0.403 OA
BRANCH  19  20
ATOM     20  P   LIG    1       24.431 -19.750   3.577  0.00  0.00    +0.528 P 
ATOM     21  O   LIG    1       24.689 -18.289   3.428  0.00  0.00    -0.216 OA
BRANCH  20  22
ATOM     22  O   LIG    1       23.185 -20.028   4.536  0.00  0.00    -0.293 OA
ATOM     23  H   LIG    1       22.394 -20.244   4.011  0.00  0.00    +0.223 HD
ENDBRANCH  20  22
BRANCH  20  24
ATOM     24  O   LIG    1       23.923 -20.414   2.211  0.00  0.00    -0.293 OA
ATOM     25  H   LIG    1       23.917 -21.385   2.268  0.00  0.00    +0.223 HD
ENDBRANCH  20  24
ENDBRANCH  19  20
ENDBRANCH   9  19
TORSDOF 8
ENDMDL
