MODEL 1
REMARK VINA RESULT:      -8.8      0.000      0.000
REMARK  Name = *****
REMARK                            x       y       z     vdW  Elec       q    Type
REMARK                         _______ _______ _______ _____ _____    ______ ____
ROOT
ATOM      1  C   LIG    1       25.495 -20.613   8.188  0.00  0.00    +0.027 C 
ATOM      2  C   LIG    1       26.502 -21.765   8.177  0.00  0.00    +0.084 C 
ENDROOT
BRANCH   2   3
ATOM      3  N   LIG    1       25.719 -23.009   7.996  0.00  0.00    -0.305 NA
ATOM      4  H   LIG    1       24.749 -22.822   8.249  0.00  0.00    +0.123 HD
BRANCH   3   5
ATOM      5  C   LIG    1       25.768 -23.576   6.629  0.00  0.00    +0.088 C 
ATOM      6  C   LIG    1       25.844 -25.109   6.644  0.00  0.00    +0.027 C 
BRANCH   5   7
ATOM      7  C   LIG    1       24.503 -23.129   5.850  0.00  0.00    +0.247 C 
BRANCH   7   8
ATOM      8  O   LIG    1       24.842 -22.291   4.732  0.00  0.00    -0.490 OA
BRANCH   8   9
ATOM      9  C   LIG    1       24.120 -21.126   4.639  0.00  0.00    +0.121 A 
ATOM     10  C   LIG    1       24.590 -20.179   3.723  0.00  0.00    +0.045 A 
ATOM     11  C   LIG    1       23.919 -18.958   3.557  0.00  0.00    +0.004 A 
ATOM     12  C   LIG    1       22.788 -18.675   4.319  0.00  0.00    +0.000 A 
ATOM     13  C   LIG    1       22.332 -19.603   5.249  0.00  0.00    +0.004 A 
ATOM     14  C   LIG    1       23.000 -20.819   5.414  0.00  0.00    +0.045 A 
ENDBRANCH   8   9
ENDBRANCH   7   8
ENDBRANCH   5   7
ENDBRANCH   3   5
ENDBRANCH   2   3
BRANCH   2  15
ATOM     15  C   LIG    1       27.671 -21.523   7.168  0.00  0.00    +0.161 C 
BRANCH  15  16
ATOM     16  C   LIG    1       28.900 -20.831   7.714  0.00  0.00    -0.018 A 
ATOM     17  C   LIG    1       29.901 -21.580   8.357  0.00  0.00    +0.010 A 
ATOM     18  C   LIG    1       31.038 -20.963   8.874  0.00  0.00    +0.046 A 
ATOM     19  C   LIG    1       31.188 -19.584   8.744  0.00  0.00    +0.117 A 
ATOM     20  C   LIG    1       30.217 -18.821   8.109  0.00  0.00    +0.046 A 
ATOM     21  C   LIG    1       29.075 -19.438   7.601  0.00  0.00    +0.010 A 
BRANCH  19  22
ATOM     22  O   LIG    1       32.325 -19.019   9.253  0.00  0.00    -0.507 OA
ATOM     23  H   LIG    1       32.680 -18.408   8.589  0.00  0.00    +0.292 HD
ENDBRANCH  19  22
ENDBRANCH  15  16
BRANCH  15  24
ATOM     24  O   LIG    1       27.176 -20.815   6.021  0.00  0.00    -0.386 OA
ATOM     25  H   LIG    1       27.424 -21.345   5.243  0.00  0.00    +0.210 HD
ENDBRANCH  15  24
ENDBRANCH   2  15
TORSDOF 9
ENDMDL
MODEL 2
REMARK VINA RESULT:      -8.7      2.554      7.857
REMARK  Name = *****
REMARK                            x       y       z     vdW  Elec       q    Type
REMARK                         _______ _______ _______ _____ _____    ______ ____
ROOT
ATOM      1  C   LIG    1       26.952 -20.322   5.885  0.00  0.00    +0.027 C 
ATOM      2  C   LIG    1       27.750 -20.854   7.077  0.00  0.00    +0.084 C 
ENDROOT
BRANCH   2   3
ATOM      3  N   LIG    1       28.648 -19.758   7.507  0.00  0.00    -0.305 NA
ATOM      4  H   LIG    1       28.902 -19.910   8.483  0.00  0.00    +0.123 HD
BRANCH   3   5
ATOM      5  C   LIG    1       29.880 -19.615   6.697  0.00  0.00    +0.088 C 
ATOM      6  C   LIG    1       29.794 -18.433   5.722  0.00  0.00    +0.027 C 
BRANCH   5   7
ATOM      7  C   LIG    1       31.091 -19.416   7.647  0.00  0.00    +0.247 C 
BRANCH   7   8
ATOM      8  O   LIG    1       31.493 -18.037   7.703  0.00  0.00    -0.490 OA
BRANCH   8   9
ATOM      9  C   LIG    1       31.531 -17.494   8.964  0.00  0.00    +0.121 A 
ATOM     10  C   LIG    1       30.490 -17.856   9.826  0.00  0.00    +0.045 A 
ATOM     11  C   LIG    1       30.443 -17.352  11.134  0.00  0.00    +0.004 A 
ATOM     12  C   LIG    1       31.428 -16.471  11.578  0.00  0.00    +0.000 A 
ATOM     13  C   LIG    1       32.451 -16.088  10.716  0.00  0.00    +0.004 A 
ATOM     14  C   LIG    1       32.497 -16.591   9.414  0.00  0.00    +0.045 A 
ENDBRANCH   8   9
ENDBRANCH   7   8
ENDBRANCH   5   7
ENDBRANCH   3   5
ENDBRANCH   2   3
BRANCH   2  15
ATOM     15  C   LIG    1       26.830 -21.475   8.178  0.00  0.00    +0.161 C 
BRANCH  15  16
ATOM     16  C   LIG    1       25.552 -22.127   7.699  0.00  0.00    -0.018 A 
ATOM     17  C   LIG    1       24.338 -21.422   7.757  0.00  0.00    +0.010 A 
ATOM     18  C   LIG    1       23.147 -22.004   7.328  0.00  0.00    +0.046 A 
ATOM     19  C   LIG    1       23.163 -23.304   6.826  0.00  0.00    +0.117 A 
ATOM     20  C   LIG    1       24.350 -24.021   6.753  0.00  0.00    +0.046 A 
ATOM     21  C   LIG    1       25.538 -23.441   7.191  0.00  0.00    +0.010 A 
BRANCH  19  22
ATOM     22  O   LIG    1       21.976 -23.834   6.402  0.00  0.00    -0.507 OA
ATOM     23  H   LIG    1       22.172 -24.532   5.757  0.00  0.00    +0.292 HD
ENDBRANCH  19  22
ENDBRANCH  15  16
BRANCH  15  24
ATOM     24  O   LIG    1       26.533 -20.483   9.172  0.00  0.00    -0.386 OA
ATOM     25  H   LIG    1       26.996 -20.759   9.983  0.00  0.00    +0.210 HD
ENDBRANCH  15  24
ENDBRANCH   2  15
TORSDOF 9
ENDMDL
MODEL 3
REMARK VINA RESULT:      -8.5      2.152      3.443
REMARK  Name = *****
REMARK                            x       y       z     vdW  Elec       q    Type
REMARK                         _______ _______ _______ _____ _____    ______ ____
ROOT
ATOM      1  C   LIG    1       30.470 -21.214   8.552  0.00  0.00    +0.027 C 
ATOM      2  C   LIG    1       29.698 -20.227   7.674  0.00  0.00    +0.084 C 
ENDROOT
BRANCH   2   3
ATOM      3  N   LIG    1       28.376 -20.038   8.314  0.00  0.00    -0.305 NA
ATOM      4  H   LIG    1       28.100 -19.062   8.206  0.00  0.00    +0.123 HD
BRANCH   3   5
ATOM      5  C   LIG    1       27.303 -20.911   7.784  0.00  0.00    +0.088 C 
ATOM      6  C   LIG    1       26.037 -20.857   8.650  0.00  0.00    +0.027 C 
BRANCH   5   7
ATOM      7  C   LIG    1       26.959 -20.470   6.336  0.00  0.00    +0.247 C 
BRANCH   7   8
ATOM      8  O   LIG    1       25.851 -21.217   5.808  0.00  0.00    -0.490 OA
BRANCH   8   9
ATOM      9  C   LIG    1       24.856 -20.458   5.241  0.00  0.00    +0.121 A 
ATOM     10  C   LIG    1       23.635 -20.430   5.922  0.00  0.00    +0.045 A 
ATOM     11  C   LIG    1       22.559 -19.682   5.421  0.00  0.00    +0.004 A 
ATOM     12  C   LIG    1       22.697 -18.976   4.227  0.00  0.00    +0.000 A 
ATOM     13  C   LIG    1       23.902 -19.022   3.533  0.00  0.00    +0.004 A 
ATOM     14  C   LIG    1       24.973 -19.765   4.033  0.00  0.00    +0.045 A 
ENDBRANCH   8   9
ENDBRANCH   7   8
ENDBRANCH   5   7
ENDBRANCH   3   5
ENDBRANCH   2   3
BRANCH   2  15
ATOM     15  C   LIG    1       30.520 -18.932   7.372  0.00  0.00    +0.161 C 
BRANCH  15  16
ATOM     16  C   LIG    1       30.912 -18.090   8.565  0.00  0.00    -0.018 A 
ATOM     17  C   LIG    1       32.230 -17.614   8.687  0.00  0.00    +0.010 A 
ATOM     18  C   LIG    1       32.616 -16.843   9.782  0.00  0.00    +0.046 A 
ATOM     19  C   LIG    1       31.680 -16.532  10.765  0.00  0.00    +0.117 A 
ATOM     20  C   LIG    1       30.371 -16.986  10.667  0.00  0.00    +0.046 A 
ATOM     21  C   LIG    1       29.988 -17.765   9.577  0.00  0.00    +0.010 A 
BRANCH  19  22
ATOM     22  O   LIG    1       32.096 -15.761  11.816  0.00  0.00    -0.507 OA
ATOM     23  H   LIG    1       32.247 -14.861  11.486  0.00  0.00    +0.292 HD
ENDBRANCH  19  22
ENDBRANCH  15  16
BRANCH  15  24
ATOM     24  O   LIG    1       29.815 -18.130   6.414  0.00  0.00    -0.386 OA
ATOM     25  H   LIG    1       30.224 -18.311   5.549  0.00  0.00    +0.210 HD
ENDBRANCH  15  24
ENDBRANCH   2  15
TORSDOF 9
ENDMDL
MODEL 4
REMARK VINA RESULT:      -8.5      2.098      3.198
REMARK  Name = *****
REMARK                            x       y       z     vdW  Elec       q    Type
REMARK                         _______ _______ _______ _____ _____    ______ ____
ROOT
ATOM      1  C   LIG    1       29.288 -18.607   5.779  0.00  0.00    +0.027 C 
ATOM      2  C   LIG    1       29.124 -19.552   6.971  0.00  0.00    +0.084 C 
ENDROOT
BRANCH   2   3
ATOM      3  N   LIG    1       28.469 -20.775   6.452  0.00  0.00    -0.305 NA
ATOM      4  H   LIG    1       29.190 -21.465   6.241  0.00  0.00    +0.123 HD
BRANCH   3   5
ATOM      5  C   LIG    1       27.469 -21.375   7.366  0.00  0.00    +0.088 C 
ATOM      6  C   LIG    1       26.918 -20.351   8.368  0.00  0.00    +0.027 C 
BRANCH   5   7
ATOM      7  C   LIG    1       26.301 -21.956   6.526  0.00  0.00    +0.247 C 
BRANCH   7   8
ATOM      8  O   LIG    1       25.039 -21.390   6.917  0.00  0.00    -0.490 OA
BRANCH   8   9
ATOM      9  C   LIG    1       24.407 -20.651   5.947  0.00  0.00    +0.121 A 
ATOM     10  C   LIG    1       25.186 -20.282   4.845  0.00  0.00    +0.045 A 
ATOM     11  C   LIG    1       24.630 -19.527   3.802  0.00  0.00    +0.004 A 
ATOM     12  C   LIG    1       23.298 -19.123   3.868  0.00  0.00    +0.000 A 
ATOM     13  C   LIG    1       22.526 -19.466   4.974  0.00  0.00    +0.004 A 
ATOM     14  C   LIG    1       23.081 -20.219   6.011  0.00  0.00    +0.045 A 
ENDBRANCH   8   9
ENDBRANCH   7   8
ENDBRANCH   5   7
ENDBRANCH   3   5
ENDBRANCH   2   3
BRANCH   2  15
ATOM     15  C   LIG    1       30.459 -19.755   7.758  0.00  0.00    +0.161 C 
BRANCH  15  16
ATOM     16  C   LIG    1       30.825 -18.678   8.754  0.00  0.00    -0.018 A 
ATOM     17  C   LIG    1       32.040 -17.982   8.623  0.00  0.00    +0.010 A 
ATOM     18  C   LIG    1       32.401 -16.990   9.533  0.00  0.00    +0.046 A 
ATOM     19  C   LIG    1       31.540 -16.679  10.583  0.00  0.00    +0.117 A 
ATOM     20  C   LIG    1       30.332 -17.347  10.733  0.00  0.00    +0.046 A 
ATOM     21  C   LIG    1       29.976 -18.346   9.828  0.00  0.00    +0.010 A 
BRANCH  19  22
ATOM     22  O   LIG    1       31.925 -15.690  11.446  0.00  0.00    -0.507 OA
ATOM     23  H   LIG    1       32.608 -16.052  12.033  0.00  0.00    +0.292 HD
ENDBRANCH  19  22
ENDBRANCH  15  16
BRANCH  15  24
ATOM     24  O   LIG    1       31.537 -19.954   6.831  0.00  0.00    -0.386 OA
ATOM     25  H   LIG    1       32.207 -19.280   7.039  0.00  0.00    +0.210 HD
ENDBRANCH  15  24
ENDBRANCH   2  15
TORSDOF 9
ENDMDL
MODEL 5
REMARK VINA RESULT:      -8.4      2.202      6.440
REMARK  Name = *****
REMARK                            x       y       z     vdW  Elec       q    Type
REMARK                         _______ _______ _______ _____ _____    ______ ____
ROOT
ATOM      1  C   LIG    1       22.619 -21.334   5.501  0.00  0.00    +0.027 C 
ATOM      2  C   LIG    1       23.666 -21.906   6.460  0.00  0.00    +0.084 C 
ENDROOT
BRANCH   2   3
ATOM      3  N   LIG    1       23.886 -20.880   7.505  0.00  0.00    -0.305 NA
ATOM      4  H   LIG    1       23.413 -21.179   8.358  0.00  0.00    +0.123 HD
BRANCH   3   5
ATOM      5  C   LIG    1       25.309 -20.600   7.805  0.00  0.00    +0.088 C 
ATOM      6  C   LIG    1       25.875 -21.562   8.860  0.00  0.00    +0.027 C 
BRANCH   5   7
ATOM      7  C   LIG    1       26.136 -20.722   6.498  0.00  0.00    +0.247 C 
BRANCH   7   8
ATOM      8  O   LIG    1       27.354 -21.455   6.712  0.00  0.00    -0.490 OA
BRANCH   8   9
ATOM      9  C   LIG    1       28.481 -20.681   6.849  0.00  0.00    +0.121 A 
ATOM     10  C   LIG    1       28.597 -19.597   5.974  0.00  0.00    +0.045 A 
ATOM     11  C   LIG    1       29.713 -18.749   6.037  0.00  0.00    +0.004 A 
ATOM     12  C   LIG    1       30.723 -18.994   6.965  0.00  0.00    +0.000 A 
ATOM     13  C   LIG    1       30.624 -20.086   7.821  0.00  0.00    +0.004 A 
ATOM     14  C   LIG    1       29.512 -20.930   7.757  0.00  0.00    +0.045 A 
ENDBRANCH   8   9
ENDBRANCH   7   8
ENDBRANCH   5   7
ENDBRANCH   3   5
ENDBRANCH   2   3
BRANCH   2  15
ATOM     15  C   LIG    1       23.296 -23.341   6.957  0.00  0.00    +0.161 C 
BRANCH  15  16
ATOM     16  C   LIG    1       24.209 -24.463   6.515  0.00  0.00    -0.018 A 
ATOM     17  C   LIG    1       23.681 -25.572   5.830  0.00  0.00    +0.010 A 
ATOM     18  C   LIG    1       24.502 -26.620   5.420  0.00  0.00    +0.046 A 
ATOM     19  C   LIG    1       25.868 -26.564   5.686  0.00  0.00    +0.117 A 
ATOM     20  C   LIG    1       26.417 -25.479   6.356  0.00  0.00    +0.046 A 
ATOM     21  C   LIG    1       25.593 -24.435   6.775  0.00  0.00    +0.010 A 
BRANCH  19  22
ATOM     22  O   LIG    1       26.641 -27.607   5.254  0.00  0.00    -0.507 OA
ATOM     23  H   LIG    1       27.403 -27.683   5.851  0.00  0.00    +0.292 HD
ENDBRANCH  19  22
ENDBRANCH  15  16
BRANCH  15  24
ATOM     24  O   LIG    1       21.940 -23.640   6.595  0.00  0.00    -0.386 OA
ATOM     25  H   LIG    1       21.861 -24.610   6.599  0.00  0.00    +0.210 HD
ENDBRANCH  15  24
ENDBRANCH   2  15
TORSDOF 9
ENDMDL
MODEL 6
REMARK VINA RESULT:      -8.4      2.297      7.612
REMARK  Name = *****
REMARK                            x       y       z     vdW  Elec       q    Type
REMARK                         _______ _______ _______ _____ _____    ______ ____
ROOT
ATOM      1  C   LIG    1       26.169 -20.603   8.670  0.00  0.00    +0.027 C 
ATOM      2  C   LIG    1       26.824 -20.775   7.298  0.00  0.00    +0.084 C 
ENDROOT
BRANCH   2   3
ATOM      3  N   LIG    1       28.156 -21.375   7.539  0.00  0.00    -0.305 NA
ATOM      4  H   LIG    1       28.161 -22.320   7.155  0.00  0.00    +0.123 HD
BRANCH   3   5
ATOM      5  C   LIG    1       29.291 -20.610   6.972  0.00  0.00    +0.088 C 
ATOM      6  C   LIG    1       28.816 -19.421   6.124  0.00  0.00    +0.027 C 
BRANCH   5   7
ATOM      7  C   LIG    1       30.184 -20.094   8.131  0.00  0.00    +0.247 C 
BRANCH   7   8
ATOM      8  O   LIG    1       29.578 -18.979   8.806  0.00  0.00    -0.490 OA
BRANCH   8   9
ATOM      9  C   LIG    1       30.461 -18.083   9.357  0.00  0.00    +0.121 A 
ATOM     10  C   LIG    1       30.139 -17.601  10.630  0.00  0.00    +0.045 A 
ATOM     11  C   LIG    1       30.980 -16.682  11.275  0.00  0.00    +0.004 A 
ATOM     12  C   LIG    1       32.135 -16.230  10.641  0.00  0.00    +0.000 A 
ATOM     13  C   LIG    1       32.447 -16.688   9.365  0.00  0.00    +0.004 A 
ATOM     14  C   LIG    1       31.609 -17.604   8.723  0.00  0.00    +0.045 A 
ENDBRANCH   8   9
ENDBRANCH   7   8
ENDBRANCH   5   7
ENDBRANCH   3   5
ENDBRANCH   2   3
BRANCH   2  15
ATOM     15  C   LIG    1       25.896 -21.518   6.285  0.00  0.00    +0.161 C 
BRANCH  15  16
ATOM     16  C   LIG    1       24.817 -20.688   5.625  0.00  0.00    -0.018 A 
ATOM     17  C   LIG    1       23.552 -20.571   6.227  0.00  0.00    +0.010 A 
ATOM     18  C   LIG    1       22.541 -19.817   5.635  0.00  0.00    +0.046 A 
ATOM     19  C   LIG    1       22.792 -19.164   4.430  0.00  0.00    +0.117 A 
ATOM     20  C   LIG    1       24.034 -19.259   3.816  0.00  0.00    +0.046 A 
ATOM     21  C   LIG    1       25.041 -20.021   4.405  0.00  0.00    +0.010 A 
BRANCH  19  22
ATOM     22  O   LIG    1       21.777 -18.423   3.888  0.00  0.00    -0.507 OA
ATOM     23  H   LIG    1       22.174 -17.696   3.383  0.00  0.00    +0.292 HD
ENDBRANCH  19  22
ENDBRANCH  15  16
BRANCH  15  24
ATOM     24  O   LIG    1       25.314 -22.666   6.920  0.00  0.00    -0.386 OA
ATOM     25  H   LIG    1       26.014 -23.062   7.468  0.00  0.00    +0.210 HD
ENDBRANCH  15  24
ENDBRANCH   2  15
TORSDOF 9
ENDMDL
MODEL 7
REMARK VINA RESULT:      -8.2      2.606      5.489
REMARK  Name = *****
REMARK                            x       y       z     vdW  Elec       q    Type
REMARK                         _______ _______ _______ _____ _____    ______ ____
ROOT
ATOM      1  C   LIG    1       23.426 -20.841   4.386  0.00  0.00    +0.027 C 
ATOM      2  C   LIG    1       23.914 -21.655   5.586  0.00  0.00    +0.084 C 
ENDROOT
BRANCH   2   3
ATOM      3  N   LIG    1       24.791 -22.719   5.045  0.00  0.00    -0.305 NA
ATOM      4  H   LIG    1       25.734 -22.345   4.950  0.00  0.00    +0.123 HD
BRANCH   3   5
ATOM      5  C   LIG    1       24.834 -23.957   5.859  0.00  0.00    +0.088 C 
ATOM      6  C   LIG    1       23.502 -24.221   6.575  0.00  0.00    +0.027 C 
BRANCH   5   7
ATOM      7  C   LIG    1       25.173 -25.158   4.936  0.00  0.00    +0.247 C 
BRANCH   7   8
ATOM      8  O   LIG    1       26.163 -26.014   5.530  0.00  0.00    -0.490 OA
BRANCH   8   9
ATOM      9  C   LIG    1       25.667 -27.129   6.158  0.00  0.00    +0.121 A 
ATOM     10  C   LIG    1       24.672 -27.834   5.472  0.00  0.00    +0.045 A 
ATOM     11  C   LIG    1       24.103 -28.987   6.033  0.00  0.00    +0.004 A 
ATOM     12  C   LIG    1       24.516 -29.428   7.289  0.00  0.00    +0.000 A 
ATOM     13  C   LIG    1       25.487 -28.716   7.985  0.00  0.00    +0.004 A 
ATOM     14  C   LIG    1       26.053 -27.568   7.426  0.00  0.00    +0.045 A 
ENDBRANCH   8   9
ENDBRANCH   7   8
ENDBRANCH   5   7
ENDBRANCH   3   5
ENDBRANCH   2   3
BRANCH   2  15
ATOM     15  C   LIG    1       24.521 -20.754   6.709  0.00  0.00    +0.161 C 
BRANCH  15  16
ATOM     16  C   LIG    1       26.030 -20.678   6.769  0.00  0.00    -0.018 A 
ATOM     17  C   LIG    1       26.719 -21.225   7.867  0.00  0.00    +0.010 A 
ATOM     18  C   LIG    1       28.108 -21.160   7.948  0.00  0.00    +0.046 A 
ATOM     19  C   LIG    1       28.826 -20.552   6.920  0.00  0.00    +0.117 A 
ATOM     20  C   LIG    1       28.172 -20.008   5.823  0.00  0.00    +0.046 A 
ATOM     21  C   LIG    1       26.781 -20.064   5.748  0.00  0.00    +0.010 A 
BRANCH  19  22
ATOM     22  O   LIG    1       30.189 -20.521   7.031  0.00  0.00    -0.507 OA
ATOM     23  H   LIG    1       30.533 -19.927   6.345  0.00  0.00    +0.292 HD
ENDBRANCH  19  22
ENDBRANCH  15  16
BRANCH  15  24
ATOM     24  O   LIG    1       23.997 -21.156   7.983  0.00  0.00    -0.386 OA
ATOM     25  H   LIG    1       23.933 -22.127   7.960  0.00  0.00    +0.210 HD
ENDBRANCH  15  24
ENDBRANCH   2  15
TORSDOF 9
ENDMDL
MODEL 8
REMARK VINA RESULT:      -8.1      2.319      4.424
REMARK  Name = *****
REMARK                            x       y       z     vdW  Elec       q    Type
REMARK                         _______ _______ _______ _____ _____    ______ ____
ROOT
ATOM      1  C   LIG    1       29.465 -18.637   5.644  0.00  0.00    +0.027 C 
ATOM      2  C   LIG    1       29.172 -19.339   6.971  0.00  0.00    +0.084 C 
ENDROOT
BRANCH   2   3
ATOM      3  N   LIG    1       28.324 -20.510   6.651  0.00  0.00    -0.305 NA
ATOM      4  H   LIG    1       28.598 -21.285   7.254  0.00  0.00    +0.123 HD
BRANCH   3   5
ATOM      5  C   LIG    1       26.868 -20.274   6.787  0.00  0.00    +0.088 C 
ATOM      6  C   LIG    1       26.148 -20.320   5.433  0.00  0.00    +0.027 C 
BRANCH   5   7
ATOM      7  C   LIG    1       26.266 -21.351   7.729  0.00  0.00    +0.247 C 
BRANCH   7   8
ATOM      8  O   LIG    1       26.746 -22.665   7.399  0.00  0.00    -0.490 OA
BRANCH   8   9
ATOM      9  C   LIG    1       25.775 -23.562   7.025  0.00  0.00    +0.121 A 
ATOM     10  C   LIG    1       24.457 -23.094   7.055  0.00  0.00    +0.045 A 
ATOM     11  C   LIG    1       23.396 -23.937   6.691  0.00  0.00    +0.004 A 
ATOM     12  C   LIG    1       23.649 -25.254   6.312  0.00  0.00    +0.000 A 
ATOM     13  C   LIG    1       24.957 -25.730   6.305  0.00  0.00    +0.004 A 
ATOM     14  C   LIG    1       26.012 -24.891   6.668  0.00  0.00    +0.045 A 
ENDBRANCH   8   9
ENDBRANCH   7   8
ENDBRANCH   5   7
ENDBRANCH   3   5
ENDBRANCH   2   3
BRANCH   2  15
ATOM     15  C   LIG    1       30.470 -19.622   7.794  0.00  0.00    +0.161 C 
BRANCH  15  16
ATOM     16  C   LIG    1       30.880 -18.561   8.791  0.00  0.00    -0.018 A 
ATOM     17  C   LIG    1       30.006 -18.197   9.830  0.00  0.00    +0.010 A 
ATOM     18  C   LIG    1       30.359 -17.218  10.756  0.00  0.00    +0.046 A 
ATOM     19  C   LIG    1       31.601 -16.595  10.654  0.00  0.00    +0.117 A 
ATOM     20  C   LIG    1       32.486 -16.939   9.640  0.00  0.00    +0.046 A 
ATOM     21  C   LIG    1       32.127 -17.912   8.709  0.00  0.00    +0.010 A 
BRANCH  19  22
ATOM     22  O   LIG    1       31.915 -15.649  11.590  0.00  0.00    -0.507 OA
ATOM     23  H   LIG    1       32.175 -14.839  11.123  0.00  0.00    +0.292 HD
ENDBRANCH  19  22
ENDBRANCH  15  16
BRANCH  15  24
ATOM     24  O   LIG    1       31.556 -19.900   6.897  0.00  0.00    -0.386 OA
ATOM     25  H   LIG    1       32.204 -19.185   7.020  0.00  0.00    +0.210 HD
ENDBRANCH  15  24
ENDBRANCH   2  15
TORSDOF 9
ENDMDL
MODEL 9
REMARK VINA RESULT:      -8.1      2.282      6.474
REMARK  Name = *****
REMARK                            x       y       z     vdW  Elec       q    Type
REMARK                         _______ _______ _______ _____ _____    ______ ____
ROOT
ATOM      1  C   LIG    1       22.665 -21.394   5.487  0.00  0.00    +0.027 C 
ATOM      2  C   LIG    1       23.706 -21.981   6.442  0.00  0.00    +0.084 C 
ENDROOT
BRANCH   2   3
ATOM      3  N   LIG    1       23.942 -20.961   7.489  0.00  0.00    -0.305 NA
ATOM      4  H   LIG    1       23.664 -21.349   8.390  0.00  0.00    +0.123 HD
BRANCH   3   5
ATOM      5  C   LIG    1       25.339 -20.475   7.574  0.00  0.00    +0.088 C 
ATOM      6  C   LIG    1       25.943 -20.703   8.967  0.00  0.00    +0.027 C 
BRANCH   5   7
ATOM      7  C   LIG    1       26.196 -21.213   6.512  0.00  0.00    +0.247 C 
BRANCH   7   8
ATOM      8  O   LIG    1       26.942 -20.287   5.704  0.00  0.00    -0.490 OA
BRANCH   8   9
ATOM      9  C   LIG    1       28.209 -20.010   6.157  0.00  0.00    +0.121 A 
ATOM     10  C   LIG    1       28.748 -20.913   7.079  0.00  0.00    +0.045 A 
ATOM     11  C   LIG    1       30.035 -20.714   7.599  0.00  0.00    +0.004 A 
ATOM     12  C   LIG    1       30.780 -19.602   7.211  0.00  0.00    +0.000 A 
ATOM     13  C   LIG    1       30.238 -18.688   6.312  0.00  0.00    +0.004 A 
ATOM     14  C   LIG    1       28.956 -18.887   5.795  0.00  0.00    +0.045 A 
ENDBRANCH   8   9
ENDBRANCH   7   8
ENDBRANCH   5   7
ENDBRANCH   3   5
ENDBRANCH   2   3
BRANCH   2  15
ATOM     15  C   LIG    1       23.318 -23.412   6.937  0.00  0.00    +0.161 C 
BRANCH  15  16
ATOM     16  C   LIG    1       24.215 -24.545   6.491  0.00  0.00    -0.018 A 
ATOM     17  C   LIG    1       25.593 -24.503   6.771  0.00  0.00    +0.010 A 
ATOM     18  C   LIG    1       26.440 -25.532   6.364  0.00  0.00    +0.046 A 
ATOM     19  C   LIG    1       25.912 -26.622   5.676  0.00  0.00    +0.117 A 
ATOM     20  C   LIG    1       24.554 -26.691   5.391  0.00  0.00    +0.046 A 
ATOM     21  C   LIG    1       23.709 -25.657   5.790  0.00  0.00    +0.010 A 
BRANCH  19  22
ATOM     22  O   LIG    1       26.775 -27.617   5.306  0.00  0.00    -0.507 OA
ATOM     23  H   LIG    1       27.209 -27.951   6.108  0.00  0.00    +0.292 HD
ENDBRANCH  19  22
ENDBRANCH  15  16
BRANCH  15  24
ATOM     24  O   LIG    1       21.957 -23.692   6.578  0.00  0.00    -0.386 OA
ATOM     25  H   LIG    1       21.437 -22.912   6.840  0.00  0.00    +0.210 HD
ENDBRANCH  15  24
ENDBRANCH   2  15
TORSDOF 9
ENDMDL
