MODEL 1
REMARK VINA RESULT:      -9.1      0.000      0.000
REMARK  Name = *****
REMARK                            x       y       z     vdW  Elec       q    Type
REMARK                         _______ _______ _______ _____ _____    ______ ____
ROOT
ATOM      1  C   LIG    1       25.597 -21.264   5.713  0.00  0.00    +0.165 C 
ATOM      2  C   LIG    1       24.532 -20.416   5.053  0.00  0.00    +0.013 A 
ATOM      3  C   LIG    1       23.187 -20.678   5.337  0.00  0.00    +0.133 A 
ATOM      4  C   LIG    1       22.191 -19.809   4.896  0.00  0.00    +0.046 A 
ATOM      5  C   LIG    1       22.530 -18.700   4.123  0.00  0.00    +0.004 A 
ATOM      6  C   LIG    1       23.861 -18.474   3.771  0.00  0.00    +0.001 A 
ATOM      7  O   LIG    1       22.778 -21.774   6.060  0.00  0.00    -0.455 OA
ATOM      8  C   LIG    1       23.680 -22.800   6.229  0.00  0.00    +0.133 A 
ATOM      9  C   LIG    1       23.155 -24.045   6.579  0.00  0.00    +0.046 A 
ATOM     10  C   LIG    1       24.010 -25.128   6.778  0.00  0.00    +0.004 A 
ATOM     11  C   LIG    1       25.388 -24.964   6.642  0.00  0.00    +0.001 A 
ATOM     12  C   LIG    1       25.914 -23.719   6.293  0.00  0.00    +0.008 A 
ATOM     13  C   LIG    1       24.863 -19.328   4.233  0.00  0.00    +0.008 A 
ATOM     14  C   LIG    1       25.059 -22.629   6.074  0.00  0.00    +0.013 A 
ENDROOT
BRANCH   1  15
ATOM     15  C   LIG    1       26.153 -20.586   6.955  0.00  0.00    +0.319 C 
ATOM     16  O   LIG    1       25.589 -20.586   8.049  0.00  0.00    -0.250 OA
BRANCH  15  17
ATOM     17  O   LIG    1       27.291 -19.888   6.715  0.00  0.00    -0.459 OA
BRANCH  17  18
ATOM     18  C   LIG    1       28.479 -20.680   6.487  0.00  0.00    +0.282 C 
BRANCH  18  19
ATOM     19  C   LIG    1       29.288 -20.935   7.770  0.00  0.00    +0.174 C 
BRANCH  19  20
ATOM     20  N   LIG    1       30.372 -19.844   8.078  0.00  0.00    +0.243 N 
ATOM     21  C   LIG    1       30.947 -19.378   6.734  0.00  0.00    +0.192 C 
BRANCH  20  23
ATOM     22  C   LIG    1       30.745 -18.030   9.861  0.00  0.00    +0.060 C 
ATOM     23  C   LIG    1       29.783 -18.639   8.842  0.00  0.00    +0.129 C 
ENDBRANCH  20  23
BRANCH  20  24
ATOM     24  C   LIG    1       31.496 -20.546   8.893  0.00  0.00    +0.129 C 
ATOM     25  C   LIG    1       31.239 -22.004   9.236  0.00  0.00    +0.060 C 
ENDBRANCH  20  24
ENDBRANCH  19  20
ENDBRANCH  18  19
ENDBRANCH  17  18
ENDBRANCH  15  17
ENDBRANCH   1  15
TORSDOF 7
ENDMDL
MODEL 2
REMARK VINA RESULT:      -8.9      0.616      1.552
REMARK  Name = *****
REMARK                            x       y       z     vdW  Elec       q    Type
REMARK                         _______ _______ _______ _____ _____    ______ ____
ROOT
ATOM      1  C   LIG    1       25.609 -21.485   5.566  0.00  0.00    +0.165 C 
ATOM      2  C   LIG    1       24.576 -20.550   4.979  0.00  0.00    +0.013 A 
ATOM      3  C   LIG    1       23.235 -20.709   5.344  0.00  0.00    +0.133 A 
ATOM      4  C   LIG    1       22.285 -19.761   4.971  0.00  0.00    +0.046 A 
ATOM      5  C   LIG    1       22.661 -18.672   4.186  0.00  0.00    +0.004 A 
ATOM      6  C   LIG    1       23.981 -18.547   3.753  0.00  0.00    +0.001 A 
ATOM      7  O   LIG    1       22.787 -21.778   6.085  0.00  0.00    -0.455 OA
ATOM      8  C   LIG    1       23.613 -22.873   6.190  0.00  0.00    +0.133 A 
ATOM      9  C   LIG    1       23.015 -24.077   6.564  0.00  0.00    +0.046 A 
ATOM     10  C   LIG    1       23.793 -25.226   6.703  0.00  0.00    +0.004 A 
ATOM     11  C   LIG    1       25.169 -25.168   6.482  0.00  0.00    +0.001 A 
ATOM     12  C   LIG    1       25.769 -23.963   6.109  0.00  0.00    +0.008 A 
ATOM     13  C   LIG    1       24.940 -19.481   4.146  0.00  0.00    +0.008 A 
ATOM     14  C   LIG    1       24.990 -22.808   5.951  0.00  0.00    +0.013 A 
ENDROOT
BRANCH   1  15
ATOM     15  C   LIG    1       26.293 -20.867   6.775  0.00  0.00    +0.319 C 
ATOM     16  O   LIG    1       25.692 -20.319   7.699  0.00  0.00    -0.250 OA
BRANCH  15  17
ATOM     17  O   LIG    1       27.646 -20.884   6.687  0.00  0.00    -0.459 OA
BRANCH  17  18
ATOM     18  C   LIG    1       28.357 -20.966   7.943  0.00  0.00    +0.282 C 
BRANCH  18  19
ATOM     19  C   LIG    1       29.033 -19.642   8.340  0.00  0.00    +0.174 C 
BRANCH  19  20
ATOM     20  N   LIG    1       30.599 -19.665   8.255  0.00  0.00    +0.243 N 
ATOM     21  C   LIG    1       31.058 -21.072   8.659  0.00  0.00    +0.192 C 
BRANCH  20  23
ATOM     22  C   LIG    1       30.089 -18.592   5.976  0.00  0.00    +0.060 C 
ATOM     23  C   LIG    1       31.110 -19.333   6.838  0.00  0.00    +0.129 C 
ENDBRANCH  20  23
BRANCH  20  24
ATOM     24  C   LIG    1       31.119 -18.643   9.306  0.00  0.00    +0.129 C 
ATOM     25  C   LIG    1       30.131 -17.560   9.709  0.00  0.00    +0.060 C 
ENDBRANCH  20  24
ENDBRANCH  19  20
ENDBRANCH  18  19
ENDBRANCH  17  18
ENDBRANCH  15  17
ENDBRANCH   1  15
TORSDOF 7
ENDMDL
MODEL 3
REMARK VINA RESULT:      -8.3      2.596      6.148
REMARK  Name = *****
REMARK                            x       y       z     vdW  Elec       q    Type
REMARK                         _______ _______ _______ _____ _____    ______ ____
ROOT
ATOM      1  C   LIG    1       25.406 -21.092   7.152  0.00  0.00    +0.165 C 
ATOM      2  C   LIG    1       24.504 -20.479   6.104  0.00  0.00    +0.013 A 
ATOM      3  C   LIG    1       25.066 -20.045   4.898  0.00  0.00    +0.133 A 
ATOM      4  C   LIG    1       24.249 -19.646   3.842  0.00  0.00    +0.046 A 
ATOM      5  C   LIG    1       22.864 -19.629   4.004  0.00  0.00    +0.004 A 
ATOM      6  C   LIG    1       22.300 -19.986   5.228  0.00  0.00    +0.001 A 
ATOM      7  O   LIG    1       26.424 -19.999   4.683  0.00  0.00    -0.455 OA
ATOM      8  C   LIG    1       27.247 -20.073   5.783  0.00  0.00    +0.133 A 
ATOM      9  C   LIG    1       28.555 -19.615   5.620  0.00  0.00    +0.046 A 
ATOM     10  C   LIG    1       29.449 -19.670   6.688  0.00  0.00    +0.004 A 
ATOM     11  C   LIG    1       29.041 -20.195   7.914  0.00  0.00    +0.001 A 
ATOM     12  C   LIG    1       27.733 -20.655   8.078  0.00  0.00    +0.008 A 
ATOM     13  C   LIG    1       23.114 -20.412   6.279  0.00  0.00    +0.008 A 
ATOM     14  C   LIG    1       26.823 -20.587   7.013  0.00  0.00    +0.013 A 
ENDROOT
BRANCH   1  15
ATOM     15  C   LIG    1       25.392 -22.610   7.075  0.00  0.00    +0.319 C 
ATOM     16  O   LIG    1       26.074 -23.341   7.793  0.00  0.00    -0.250 OA
BRANCH  15  17
ATOM     17  O   LIG    1       24.626 -23.084   6.061  0.00  0.00    -0.459 OA
BRANCH  17  18
ATOM     18  C   LIG    1       25.108 -24.284   5.415  0.00  0.00    +0.282 C 
BRANCH  18  19
ATOM     19  C   LIG    1       24.308 -25.540   5.803  0.00  0.00    +0.174 C 
BRANCH  19  20
ATOM     20  N   LIG    1       25.181 -26.828   5.993  0.00  0.00    +0.243 N 
ATOM     21  C   LIG    1       25.953 -27.055   4.687  0.00  0.00    +0.192 C 
BRANCH  20  23
ATOM     22  C   LIG    1       26.172 -27.896   8.112  0.00  0.00    +0.060 C 
ATOM     23  C   LIG    1       26.170 -26.693   7.170  0.00  0.00    +0.129 C 
ENDBRANCH  20  23
BRANCH  20  24
ATOM     24  C   LIG    1       24.193 -28.011   6.208  0.00  0.00    +0.129 C 
ATOM     25  C   LIG    1       24.383 -29.198   5.279  0.00  0.00    +0.060 C 
ENDBRANCH  20  24
ENDBRANCH  19  20
ENDBRANCH  18  19
ENDBRANCH  17  18
ENDBRANCH  15  17
ENDBRANCH   1  15
TORSDOF 7
ENDMDL
MODEL 4
REMARK VINA RESULT:      -7.9      1.358      4.192
REMARK  Name = *****
REMARK                            x       y       z     vdW  Elec       q    Type
REMARK                         _______ _______ _______ _____ _____    ______ ____
ROOT
ATOM      1  C   LIG    1       23.976 -22.177   6.976  0.00  0.00    +0.165 C 
ATOM      2  C   LIG    1       24.238 -23.505   6.302  0.00  0.00    +0.013 A 
ATOM      3  C   LIG    1       24.657 -23.515   4.967  0.00  0.00    +0.133 A 
ATOM      4  C   LIG    1       25.081 -24.700   4.370  0.00  0.00    +0.046 A 
ATOM      5  C   LIG    1       25.040 -25.894   5.089  0.00  0.00    +0.004 A 
ATOM      6  C   LIG    1       24.552 -25.905   6.395  0.00  0.00    +0.001 A 
ATOM      7  O   LIG    1       24.685 -22.383   4.187  0.00  0.00    -0.455 OA
ATOM      8  C   LIG    1       23.984 -21.285   4.630  0.00  0.00    +0.133 A 
ATOM      9  C   LIG    1       23.669 -20.315   3.677  0.00  0.00    +0.046 A 
ATOM     10  C   LIG    1       22.970 -19.170   4.056  0.00  0.00    +0.004 A 
ATOM     11  C   LIG    1       22.599 -18.987   5.388  0.00  0.00    +0.001 A 
ATOM     12  C   LIG    1       22.916 -19.955   6.343  0.00  0.00    +0.008 A 
ATOM     13  C   LIG    1       24.151 -24.716   7.005  0.00  0.00    +0.008 A 
ATOM     14  C   LIG    1       23.603 -21.118   5.965  0.00  0.00    +0.013 A 
ENDROOT
BRANCH   1  15
ATOM     15  C   LIG    1       25.181 -21.717   7.780  0.00  0.00    +0.319 C 
ATOM     16  O   LIG    1       25.267 -21.811   9.005  0.00  0.00    -0.250 OA
BRANCH  15  17
ATOM     17  O   LIG    1       26.119 -21.094   7.024  0.00  0.00    -0.459 OA
BRANCH  17  18
ATOM     18  C   LIG    1       27.210 -20.484   7.750  0.00  0.00    +0.282 C 
BRANCH  18  19
ATOM     19  C   LIG    1       28.593 -20.961   7.273  0.00  0.00    +0.174 C 
BRANCH  19  20
ATOM     20  N   LIG    1       29.773 -20.000   7.651  0.00  0.00    +0.243 N 
ATOM     21  C   LIG    1       30.828 -20.838   8.385  0.00  0.00    +0.192 C 
BRANCH  20  23
ATOM     22  C   LIG    1       29.430 -18.450   5.629  0.00  0.00    +0.060 C 
ATOM     23  C   LIG    1       30.402 -19.334   6.410  0.00  0.00    +0.129 C 
ENDBRANCH  20  23
BRANCH  20  24
ATOM     24  C   LIG    1       29.192 -18.945   8.636  0.00  0.00    +0.129 C 
ATOM     25  C   LIG    1       30.203 -17.972   9.221  0.00  0.00    +0.060 C 
ENDBRANCH  20  24
ENDBRANCH  19  20
ENDBRANCH  18  19
ENDBRANCH  17  18
ENDBRANCH  15  17
ENDBRANCH   1  15
TORSDOF 7
ENDMDL
MODEL 5
REMARK VINA RESULT:      -7.4      2.424      6.101
REMARK  Name = *****
REMARK                            x       y       z     vdW  Elec       q    Type
REMARK                         _______ _______ _______ _____ _____    ______ ____
ROOT
ATOM      1  C   LIG    1       25.995 -20.548   7.802  0.00  0.00    +0.165 C 
ATOM      2  C   LIG    1       25.018 -20.410   6.656  0.00  0.00    +0.013 A 
ATOM      3  C   LIG    1       25.508 -20.412   5.346  0.00  0.00    +0.133 A 
ATOM      4  C   LIG    1       24.631 -20.471   4.264  0.00  0.00    +0.046 A 
ATOM      5  C   LIG    1       23.255 -20.476   4.486  0.00  0.00    +0.004 A 
ATOM      6  C   LIG    1       22.757 -20.397   5.787  0.00  0.00    +0.001 A 
ATOM      7  O   LIG    1       26.851 -20.369   5.053  0.00  0.00    -0.455 OA
ATOM      8  C   LIG    1       27.711 -19.991   6.058  0.00  0.00    +0.133 A 
ATOM      9  C   LIG    1       28.976 -19.549   5.668  0.00  0.00    +0.046 A 
ATOM     10  C   LIG    1       29.905 -19.161   6.632  0.00  0.00    +0.004 A 
ATOM     11  C   LIG    1       29.575 -19.228   7.986  0.00  0.00    +0.001 A 
ATOM     12  C   LIG    1       28.311 -19.672   8.378  0.00  0.00    +0.008 A 
ATOM     13  C   LIG    1       23.633 -20.364   6.873  0.00  0.00    +0.008 A 
ATOM     14  C   LIG    1       27.366 -20.047   7.412  0.00  0.00    +0.013 A 
ENDROOT
BRANCH   1  15
ATOM     15  C   LIG    1       26.091 -21.989   8.277  0.00  0.00    +0.319 C 
ATOM     16  O   LIG    1       25.544 -22.416   9.294  0.00  0.00    -0.250 OA
BRANCH  15  17
ATOM     17  O   LIG    1       26.931 -22.742   7.524  0.00  0.00    -0.459 OA
BRANCH  17  18
ATOM     18  C   LIG    1       26.317 -23.473   6.438  0.00  0.00    +0.282 C 
BRANCH  18  19
ATOM     19  C   LIG    1       26.037 -24.946   6.786  0.00  0.00    +0.174 C 
BRANCH  19  20
ATOM     20  N   LIG    1       24.899 -25.606   5.932  0.00  0.00    +0.243 N 
ATOM     21  C   LIG    1       25.534 -26.097   4.624  0.00  0.00    +0.192 C 
BRANCH  20  23
ATOM     22  C   LIG    1       24.419 -28.131   5.965  0.00  0.00    +0.060 C 
ATOM     23  C   LIG    1       24.231 -26.787   6.666  0.00  0.00    +0.129 C 
ENDBRANCH  20  23
BRANCH  20  24
ATOM     24  C   LIG    1       23.875 -24.481   5.605  0.00  0.00    +0.129 C 
ATOM     25  C   LIG    1       22.975 -24.063   6.755  0.00  0.00    +0.060 C 
ENDBRANCH  20  24
ENDBRANCH  19  20
ENDBRANCH  18  19
ENDBRANCH  17  18
ENDBRANCH  15  17
ENDBRANCH   1  15
TORSDOF 7
ENDMDL
MODEL 6
REMARK VINA RESULT:      -6.1      2.382      6.399
REMARK  Name = *****
REMARK                            x       y       z     vdW  Elec       q    Type
REMARK                         _______ _______ _______ _____ _____    ______ ____
ROOT
ATOM      1  C   LIG    1       26.387 -21.643   6.449  0.00  0.00    +0.165 C 
ATOM      2  C   LIG    1       27.755 -21.030   6.649  0.00  0.00    +0.013 A 
ATOM      3  C   LIG    1       27.994 -19.739   6.166  0.00  0.00    +0.133 A 
ATOM      4  C   LIG    1       29.175 -19.072   6.488  0.00  0.00    +0.046 A 
ATOM      5  C   LIG    1       30.147 -19.714   7.253  0.00  0.00    +0.004 A 
ATOM      6  C   LIG    1       29.949 -21.029   7.675  0.00  0.00    +0.001 A 
ATOM      7  O   LIG    1       27.097 -19.062   5.373  0.00  0.00    -0.455 OA
ATOM      8  C   LIG    1       26.092 -19.791   4.781  0.00  0.00    +0.133 A 
ATOM      9  C   LIG    1       25.460 -19.211   3.680  0.00  0.00    +0.046 A 
ATOM     10  C   LIG    1       24.424 -19.887   3.036  0.00  0.00    +0.004 A 
ATOM     11  C   LIG    1       24.011 -21.135   3.501  0.00  0.00    +0.001 A 
ATOM     12  C   LIG    1       24.642 -21.717   4.603  0.00  0.00    +0.008 A 
ATOM     13  C   LIG    1       28.757 -21.689   7.376  0.00  0.00    +0.008 A 
ATOM     14  C   LIG    1       25.695 -21.050   5.244  0.00  0.00    +0.013 A 
ENDROOT
BRANCH   1  15
ATOM     15  C   LIG    1       25.515 -21.464   7.681  0.00  0.00    +0.319 C 
ATOM     16  O   LIG    1       25.507 -20.448   8.377  0.00  0.00    -0.250 OA
BRANCH  15  17
ATOM     17  O   LIG    1       24.816 -22.581   8.004  0.00  0.00    -0.459 OA
BRANCH  17  18
ATOM     18  C   LIG    1       25.384 -23.831   7.554  0.00  0.00    +0.282 C 
BRANCH  18  19
ATOM     19  C   LIG    1       24.400 -24.677   6.727  0.00  0.00    +0.174 C 
BRANCH  19  20
ATOM     20  N   LIG    1       25.062 -25.882   5.972  0.00  0.00    +0.243 N 
ATOM     21  C   LIG    1       25.213 -25.473   4.501  0.00  0.00    +0.192 C 
BRANCH  20  23
ATOM     22  C   LIG    1       26.376 -27.299   7.667  0.00  0.00    +0.060 C 
ATOM     23  C   LIG    1       26.441 -26.250   6.558  0.00  0.00    +0.129 C 
ENDBRANCH  20  23
BRANCH  20  24
ATOM     24  C   LIG    1       24.063 -27.072   6.066  0.00  0.00    +0.129 C 
ATOM     25  C   LIG    1       24.370 -28.254   5.162  0.00  0.00    +0.060 C 
ENDBRANCH  20  24
ENDBRANCH  19  20
ENDBRANCH  18  19
ENDBRANCH  17  18
ENDBRANCH  15  17
ENDBRANCH   1  15
TORSDOF 7
ENDMDL
MODEL 7
REMARK VINA RESULT:      -6.1      6.103      9.591
REMARK  Name = *****
REMARK                            x       y       z     vdW  Elec       q    Type
REMARK                         _______ _______ _______ _____ _____    ______ ____
ROOT
ATOM      1  C   LIG    1       24.557 -30.078   7.556  0.00  0.00    +0.165 C 
ATOM      2  C   LIG    1       24.395 -30.562   8.980  0.00  0.00    +0.013 A 
ATOM      3  C   LIG    1       25.371 -31.406   9.522  0.00  0.00    +0.133 A 
ATOM      4  C   LIG    1       25.353 -31.724  10.878  0.00  0.00    +0.046 A 
ATOM      5  C   LIG    1       24.329 -31.242  11.692  0.00  0.00    +0.004 A 
ATOM      6  C   LIG    1       23.310 -30.463  11.143  0.00  0.00    +0.001 A 
ATOM      7  O   LIG    1       26.387 -31.949   8.770  0.00  0.00    -0.455 OA
ATOM      8  C   LIG    1       26.252 -31.922   7.401  0.00  0.00    +0.133 A 
ATOM      9  C   LIG    1       27.042 -32.815   6.676  0.00  0.00    +0.046 A 
ATOM     10  C   LIG    1       26.968 -32.836   5.283  0.00  0.00    +0.004 A 
ATOM     11  C   LIG    1       26.116 -31.955   4.617  0.00  0.00    +0.001 A 
ATOM     12  C   LIG    1       25.327 -31.059   5.341  0.00  0.00    +0.008 A 
ATOM     13  C   LIG    1       23.339 -30.121   9.791  0.00  0.00    +0.008 A 
ATOM     14  C   LIG    1       25.384 -31.045   6.743  0.00  0.00    +0.013 A 
ENDROOT
BRANCH   1  15
ATOM     15  C   LIG    1       25.190 -28.696   7.510  0.00  0.00    +0.319 C 
ATOM     16  O   LIG    1       26.021 -28.293   8.324  0.00  0.00    -0.250 OA
BRANCH  15  17
ATOM     17  O   LIG    1       24.670 -27.906   6.538  0.00  0.00    -0.459 OA
BRANCH  17  18
ATOM     18  C   LIG    1       25.440 -26.728   6.206  0.00  0.00    +0.282 C 
BRANCH  18  19
ATOM     19  C   LIG    1       24.634 -25.686   5.411  0.00  0.00    +0.174 C 
BRANCH  19  20
ATOM     20  N   LIG    1       24.585 -24.266   6.075  0.00  0.00    +0.243 N 
ATOM     21  C   LIG    1       24.793 -23.232   4.961  0.00  0.00    +0.192 C 
BRANCH  20  23
ATOM     22  C   LIG    1       22.869 -22.524   6.870  0.00  0.00    +0.060 C 
ATOM     23  C   LIG    1       23.242 -24.004   6.789  0.00  0.00    +0.129 C 
ENDBRANCH  20  23
BRANCH  20  24
ATOM     24  C   LIG    1       25.784 -24.192   7.064  0.00  0.00    +0.129 C 
ATOM     25  C   LIG    1       26.391 -22.812   7.252  0.00  0.00    +0.060 C 
ENDBRANCH  20  24
ENDBRANCH  19  20
ENDBRANCH  18  19
ENDBRANCH  17  18
ENDBRANCH  15  17
ENDBRANCH   1  15
TORSDOF 7
ENDMDL
