MODEL 1
REMARK VINA RESULT:      -8.4      0.000      0.000
REMARK  Name = *****
REMARK                            x       y       z     vdW  Elec       q    Type
REMARK                         _______ _______ _______ _____ _____    ______ ____
ROOT
ATOM      1  C   LIG    1       26.437 -20.965   7.171  0.00  0.00    +0.119 A 
ATOM      2  C   LIG    1       26.476 -20.384   5.892  0.00  0.00    +0.083 A 
ATOM      3  C   LIG    1       27.697 -19.795   5.470  0.00  0.00    +0.039 A 
ATOM      4  C   LIG    1       28.841 -19.748   6.278  0.00  0.00    +0.055 A 
ATOM      5  N   LIG    1       30.025 -19.246   5.744  0.00  0.00    -0.328 N 
ATOM      6  H   LIG    1       29.889 -18.535   5.031  0.00  0.00    +0.147 HD
ATOM      7  C   LIG    1       31.137 -18.966   6.620  0.00  0.00    +0.209 C 
ATOM      8  N   LIG    1       31.417 -20.120   7.441  0.00  0.00    -0.173 NA
ATOM      9  H   LIG    1       32.302 -20.050   7.939  0.00  0.00    +0.150 HD
ATOM     10  S   LIG    1       30.184 -20.400   8.541  0.00  0.00    +0.062 S 
ATOM     11  O   LIG    1       30.132 -19.253   9.420  0.00  0.00    -0.153 OA
ATOM     12  O   LIG    1       30.365 -21.739   9.051  0.00  0.00    -0.153 OA
ATOM     13  C   LIG    1       28.755 -20.363   7.524  0.00  0.00    +0.128 A 
ATOM     14  C   LIG    1       27.578 -20.961   7.985  0.00  0.00    +0.059 A 
ENDROOT
BRANCH   2  15
ATOM     15  C   LIG    1       25.337 -20.332   4.898  0.00  0.00    +0.419 C 
ATOM     16  F   LIG    1       25.003 -21.585   4.469  0.00  0.00    -0.166 F 
ATOM     17  F   LIG    1       25.692 -19.653   3.770  0.00  0.00    -0.166 F 
ATOM     18  F   LIG    1       24.167 -19.782   5.304  0.00  0.00    -0.166 F 
ENDBRANCH   2  15
BRANCH   1  19
ATOM     19  S   LIG    1       24.971 -21.713   7.833  0.00  0.00    +0.057 S 
ATOM     20  O   LIG    1       23.929 -20.717   7.910  0.00  0.00    -0.153 OA
ATOM     21  O   LIG    1       24.776 -22.978   7.171  0.00  0.00    -0.153 OA
BRANCH  19  22
ATOM     22  N   LIG    1       25.409 -22.006   9.423  0.00  0.00    -0.203 NA
ATOM     23  H   LIG    1       25.600 -21.125   9.903  0.00  0.00    +0.144 HD
ATOM     24  H   LIG    1       24.696 -22.579   9.880  0.00  0.00    +0.144 HD
ENDBRANCH  19  22
ENDBRANCH   1  19
TORSDOF 3
ENDMDL
MODEL 2
REMARK VINA RESULT:      -7.7      2.852      5.383
REMARK  Name = *****
REMARK                            x       y       z     vdW  Elec       q    Type
REMARK                         _______ _______ _______ _____ _____    ______ ____
ROOT
ATOM      1  C   LIG    1       29.371 -20.720   7.887  0.00  0.00    +0.119 A 
ATOM      2  C   LIG    1       29.313 -19.800   6.826  0.00  0.00    +0.083 A 
ATOM      3  C   LIG    1       28.149 -19.800   6.013  0.00  0.00    +0.039 A 
ATOM      4  C   LIG    1       27.082 -20.687   6.209  0.00  0.00    +0.055 A 
ATOM      5  N   LIG    1       25.936 -20.546   5.431  0.00  0.00    -0.328 N 
ATOM      6  H   LIG    1       26.109 -20.172   4.503  0.00  0.00    +0.147 HD
ATOM      7  C   LIG    1       24.935 -21.586   5.447  0.00  0.00    +0.209 C 
ATOM      8  N   LIG    1       24.571 -21.896   6.809  0.00  0.00    -0.173 NA
ATOM      9  H   LIG    1       23.741 -22.481   6.878  0.00  0.00    +0.150 HD
ATOM     10  S   LIG    1       25.836 -22.633   7.625  0.00  0.00    +0.062 S 
ATOM     11  O   LIG    1       26.096 -23.890   6.956  0.00  0.00    -0.153 OA
ATOM     12  O   LIG    1       25.524 -22.575   9.034  0.00  0.00    -0.153 OA
ATOM     13  C   LIG    1       27.180 -21.558   7.291  0.00  0.00    +0.128 A 
ATOM     14  C   LIG    1       28.303 -21.595   8.124  0.00  0.00    +0.059 A 
ENDROOT
BRANCH   2  15
ATOM     15  C   LIG    1       30.375 -18.785   6.463  0.00  0.00    +0.419 C 
ATOM     16  F   LIG    1       30.520 -17.852   7.450  0.00  0.00    -0.166 F 
ATOM     17  F   LIG    1       30.025 -18.075   5.352  0.00  0.00    -0.166 F 
ATOM     18  F   LIG    1       31.630 -19.238   6.228  0.00  0.00    -0.166 F 
ENDBRANCH   2  15
BRANCH   1  19
ATOM     19  S   LIG    1       30.775 -20.843   8.965  0.00  0.00    +0.057 S 
ATOM     20  O   LIG    1       31.933 -21.220   8.187  0.00  0.00    -0.153 OA
ATOM     21  O   LIG    1       30.775 -19.694   9.833  0.00  0.00    -0.153 OA
BRANCH  19  22
ATOM     22  N   LIG    1       30.405 -22.200   9.875  0.00  0.00    -0.203 NA
ATOM     23  H   LIG    1       29.498 -22.575   9.594  0.00  0.00    +0.144 HD
ATOM     24  H   LIG    1       31.170 -22.877   9.815  0.00  0.00    +0.144 HD
ENDBRANCH  19  22
ENDBRANCH   1  19
TORSDOF 3
ENDMDL
MODEL 3
REMARK VINA RESULT:      -7.5      3.832      5.718
REMARK  Name = *****
REMARK                            x       y       z     vdW  Elec       q    Type
REMARK                         _______ _______ _______ _____ _____    ______ ____
ROOT
ATOM      1  C   LIG    1       25.488 -22.546   7.343  0.00  0.00    +0.119 A 
ATOM      2  C   LIG    1       24.290 -22.326   6.644  0.00  0.00    +0.083 A 
ATOM      3  C   LIG    1       23.710 -23.427   5.959  0.00  0.00    +0.039 A 
ATOM      4  C   LIG    1       24.293 -24.702   5.936  0.00  0.00    +0.055 A 
ATOM      5  N   LIG    1       23.602 -25.748   5.330  0.00  0.00    -0.328 N 
ATOM      6  H   LIG    1       23.003 -25.459   4.562  0.00  0.00    +0.147 HD
ATOM      7  C   LIG    1       24.282 -26.997   5.081  0.00  0.00    +0.209 C 
ATOM      8  N   LIG    1       24.914 -27.461   6.294  0.00  0.00    -0.173 NA
ATOM      9  H   LIG    1       25.244 -28.421   6.230  0.00  0.00    +0.150 HD
ATOM     10  S   LIG    1       26.189 -26.466   6.735  0.00  0.00    +0.062 S 
ATOM     11  O   LIG    1       27.176 -26.549   5.679  0.00  0.00    -0.153 OA
ATOM     12  O   LIG    1       26.518 -26.779   8.106  0.00  0.00    -0.153 OA
ATOM     13  C   LIG    1       25.465 -24.871   6.668  0.00  0.00    +0.128 A 
ATOM     14  C   LIG    1       26.072 -23.819   7.362  0.00  0.00    +0.059 A 
ENDROOT
BRANCH   2  15
ATOM     15  C   LIG    1       23.534 -21.018   6.551  0.00  0.00    +0.419 C 
ATOM     16  F   LIG    1       22.322 -21.193   5.947  0.00  0.00    -0.166 F 
ATOM     17  F   LIG    1       24.194 -20.116   5.769  0.00  0.00    -0.166 F 
ATOM     18  F   LIG    1       23.255 -20.366   7.706  0.00  0.00    -0.166 F 
ENDBRANCH   2  15
BRANCH   1  19
ATOM     19  S   LIG    1       26.330 -21.254   8.220  0.00  0.00    +0.057 S 
ATOM     20  O   LIG    1       26.599 -20.166   7.309  0.00  0.00    -0.153 OA
ATOM     21  O   LIG    1       25.656 -21.053   9.477  0.00  0.00    -0.153 OA
BRANCH  19  22
ATOM     22  N   LIG    1       27.826 -21.945   8.520  0.00  0.00    -0.203 NA
ATOM     23  H   LIG    1       28.535 -21.218   8.626  0.00  0.00    +0.144 HD
ATOM     24  H   LIG    1       27.761 -22.579   9.320  0.00  0.00    +0.144 HD
ENDBRANCH  19  22
ENDBRANCH   1  19
TORSDOF 3
ENDMDL
MODEL 4
REMARK VINA RESULT:      -6.9      3.565      6.030
REMARK  Name = *****
REMARK                            x       y       z     vdW  Elec       q    Type
REMARK                         _______ _______ _______ _____ _____    ______ ____
ROOT
ATOM      1  C   LIG    1       28.891 -19.965   6.860  0.00  0.00    +0.119 A 
ATOM      2  C   LIG    1       29.153 -20.982   7.793  0.00  0.00    +0.083 A 
ATOM      3  C   LIG    1       28.153 -21.970   7.995  0.00  0.00    +0.039 A 
ATOM      4  C   LIG    1       26.921 -21.955   7.326  0.00  0.00    +0.055 A 
ATOM      5  N   LIG    1       26.043 -23.020   7.506  0.00  0.00    -0.328 N 
ATOM      6  H   LIG    1       26.110 -23.463   8.418  0.00  0.00    +0.147 HD
ATOM      7  C   LIG    1       24.685 -22.910   7.027  0.00  0.00    +0.209 C 
ATOM      8  N   LIG    1       24.686 -22.500   5.642  0.00  0.00    -0.173 NA
ATOM      9  H   LIG    1       23.774 -22.589   5.199  0.00  0.00    +0.150 HD
ATOM     10  S   LIG    1       25.232 -20.924   5.474  0.00  0.00    +0.062 S 
ATOM     11  O   LIG    1       24.291 -20.074   6.170  0.00  0.00    -0.153 OA
ATOM     12  O   LIG    1       25.540 -20.729   4.076  0.00  0.00    -0.153 OA
ATOM     13  C   LIG    1       26.725 -20.940   6.393  0.00  0.00    +0.128 A 
ATOM     14  C   LIG    1       27.680 -19.947   6.154  0.00  0.00    +0.059 A 
ENDROOT
BRANCH   2  15
ATOM     15  C   LIG    1       30.417 -21.144   8.610  0.00  0.00    +0.419 C 
ATOM     16  F   LIG    1       30.309 -22.194   9.477  0.00  0.00    -0.166 F 
ATOM     17  F   LIG    1       30.642 -20.054   9.398  0.00  0.00    -0.166 F 
ATOM     18  F   LIG    1       31.577 -21.361   7.945  0.00  0.00    -0.166 F 
ENDBRANCH   2  15
BRANCH   1  19
ATOM     19  S   LIG    1       30.042 -18.657   6.528  0.00  0.00    +0.057 S 
ATOM     20  O   LIG    1       30.000 -17.707   7.616  0.00  0.00    -0.153 OA
ATOM     21  O   LIG    1       31.275 -19.249   6.075  0.00  0.00    -0.153 OA
BRANCH  19  22
ATOM     22  N   LIG    1       29.322 -17.869   5.237  0.00  0.00    -0.203 NA
ATOM     23  H   LIG    1       29.661 -18.257   4.356  0.00  0.00    +0.144 HD
ATOM     24  H   LIG    1       28.305 -17.897   5.338  0.00  0.00    +0.144 HD
ENDBRANCH  19  22
ENDBRANCH   1  19
TORSDOF 3
ENDMDL
MODEL 5
REMARK VINA RESULT:      -6.7      4.692      6.201
REMARK  Name = *****
REMARK                            x       y       z     vdW  Elec       q    Type
REMARK                         _______ _______ _______ _____ _____    ______ ____
ROOT
ATOM      1  C   LIG    1       24.832 -22.535   5.514  0.00  0.00    +0.119 A 
ATOM      2  C   LIG    1       25.265 -22.379   6.841  0.00  0.00    +0.083 A 
ATOM      3  C   LIG    1       25.696 -23.539   7.538  0.00  0.00    +0.039 A 
ATOM      4  C   LIG    1       25.682 -24.820   6.968  0.00  0.00    +0.055 A 
ATOM      5  N   LIG    1       26.221 -25.884   7.686  0.00  0.00    -0.328 N 
ATOM      6  H   LIG    1       26.141 -25.786   8.695  0.00  0.00    +0.147 HD
ATOM      7  C   LIG    1       26.000 -27.235   7.228  0.00  0.00    +0.209 C 
ATOM      8  N   LIG    1       26.364 -27.345   5.835  0.00  0.00    -0.173 NA
ATOM      9  H   LIG    1       26.410 -28.309   5.510  0.00  0.00    +0.150 HD
ATOM     10  S   LIG    1       25.310 -26.481   4.859  0.00  0.00    +0.062 S 
ATOM     11  O   LIG    1       24.004 -27.085   5.009  0.00  0.00    -0.153 OA
ATOM     12  O   LIG    1       25.941 -26.348   3.567  0.00  0.00    -0.153 OA
ATOM     13  C   LIG    1       25.270 -24.913   5.642  0.00  0.00    +0.128 A 
ATOM     14  C   LIG    1       24.841 -23.800   4.911  0.00  0.00    +0.059 A 
ENDROOT
BRANCH   2  15
ATOM     15  C   LIG    1       25.332 -21.080   7.615  0.00  0.00    +0.419 C 
ATOM     16  F   LIG    1       25.738 -21.295   8.901  0.00  0.00    -0.166 F 
ATOM     17  F   LIG    1       24.101 -20.501   7.723  0.00  0.00    -0.166 F 
ATOM     18  F   LIG    1       26.154 -20.108   7.149  0.00  0.00    -0.166 F 
ENDBRANCH   2  15
BRANCH   1  19
ATOM     19  S   LIG    1       24.246 -21.175   4.537  0.00  0.00    +0.057 S 
ATOM     20  O   LIG    1       22.961 -20.752   5.044  0.00  0.00    -0.153 OA
ATOM     21  O   LIG    1       25.338 -20.254   4.351  0.00  0.00    -0.153 OA
BRANCH  19  22
ATOM     22  N   LIG    1       23.911 -21.910   3.070  0.00  0.00    -0.203 NA
ATOM     23  H   LIG    1       24.767 -22.295   2.666  0.00  0.00    +0.144 HD
ATOM     24  H   LIG    1       23.164 -22.598   3.189  0.00  0.00    +0.144 HD
ENDBRANCH  19  22
ENDBRANCH   1  19
TORSDOF 3
ENDMDL
MODEL 6
REMARK VINA RESULT:      -6.5      2.818      3.523
REMARK  Name = *****
REMARK                            x       y       z     vdW  Elec       q    Type
REMARK                         _______ _______ _______ _____ _____    ______ ____
ROOT
ATOM      1  C   LIG    1       26.421 -20.784   6.043  0.00  0.00    +0.119 A 
ATOM      2  C   LIG    1       26.609 -21.590   7.178  0.00  0.00    +0.083 A 
ATOM      3  C   LIG    1       27.811 -21.423   7.917  0.00  0.00    +0.039 A 
ATOM      4  C   LIG    1       28.813 -20.516   7.547  0.00  0.00    +0.055 A 
ATOM      5  N   LIG    1       29.910 -20.343   8.388  0.00  0.00    -0.328 N 
ATOM      6  H   LIG    1       30.159 -21.172   8.920  0.00  0.00    +0.147 HD
ATOM      7  C   LIG    1       31.057 -19.605   7.915  0.00  0.00    +0.209 C 
ATOM      8  N   LIG    1       30.636 -18.330   7.385  0.00  0.00    -0.173 NA
ATOM      9  H   LIG    1       31.411 -17.693   7.213  0.00  0.00    +0.150 HD
ATOM     10  S   LIG    1       29.752 -18.519   5.974  0.00  0.00    +0.062 S 
ATOM     11  O   LIG    1       30.636 -19.116   4.997  0.00  0.00    -0.153 OA
ATOM     12  O   LIG    1       29.080 -17.265   5.722  0.00  0.00    -0.153 OA
ATOM     13  C   LIG    1       28.563 -19.724   6.430  0.00  0.00    +0.128 A 
ATOM     14  C   LIG    1       27.394 -19.846   5.672  0.00  0.00    +0.059 A 
ENDROOT
BRANCH   2  15
ATOM     15  C   LIG    1       25.643 -22.626   7.711  0.00  0.00    +0.419 C 
ATOM     16  F   LIG    1       25.925 -22.936   9.012  0.00  0.00    -0.166 F 
ATOM     17  F   LIG    1       25.753 -23.804   7.033  0.00  0.00    -0.166 F 
ATOM     18  F   LIG    1       24.323 -22.321   7.706  0.00  0.00    -0.166 F 
ENDBRANCH   2  15
BRANCH   1  19
ATOM     19  S   LIG    1       24.979 -20.906   5.017  0.00  0.00    +0.057 S 
ATOM     20  O   LIG    1       24.788 -22.286   4.637  0.00  0.00    -0.153 OA
ATOM     21  O   LIG    1       23.931 -20.126   5.625  0.00  0.00    -0.153 OA
BRANCH  19  22
ATOM     22  N   LIG    1       25.474 -20.135   3.615  0.00  0.00    -0.203 NA
ATOM     23  H   LIG    1       24.782 -20.271   2.876  0.00  0.00    +0.144 HD
ATOM     24  H   LIG    1       25.680 -19.153   3.814  0.00  0.00    +0.144 HD
ENDBRANCH  19  22
ENDBRANCH   1  19
TORSDOF 3
ENDMDL
MODEL 7
REMARK VINA RESULT:      -6.5      2.680      5.255
REMARK  Name = *****
REMARK                            x       y       z     vdW  Elec       q    Type
REMARK                         _______ _______ _______ _____ _____    ______ ____
ROOT
ATOM      1  C   LIG    1       28.316 -20.396   6.874  0.00  0.00    +0.119 A 
ATOM      2  C   LIG    1       28.218 -19.456   5.835  0.00  0.00    +0.083 A 
ATOM      3  C   LIG    1       27.083 -19.524   4.985  0.00  0.00    +0.039 A 
ATOM      4  C   LIG    1       26.083 -20.496   5.125  0.00  0.00    +0.055 A 
ATOM      5  N   LIG    1       24.953 -20.424   4.315  0.00  0.00    -0.328 N 
ATOM      6  H   LIG    1       25.124 -20.013   3.401  0.00  0.00    +0.147 HD
ATOM      7  C   LIG    1       24.037 -21.539   4.273  0.00  0.00    +0.209 C 
ATOM      8  N   LIG    1       23.658 -21.912   5.615  0.00  0.00    -0.173 NA
ATOM      9  H   LIG    1       22.874 -22.561   5.643  0.00  0.00    +0.150 HD
ATOM     10  S   LIG    1       24.951 -22.570   6.453  0.00  0.00    +0.062 S 
ATOM     11  O   LIG    1       25.329 -23.785   5.763  0.00  0.00    -0.153 OA
ATOM     12  O   LIG    1       24.593 -22.574   7.853  0.00  0.00    -0.153 OA
ATOM     13  C   LIG    1       26.216 -21.386   6.188  0.00  0.00    +0.128 A 
ATOM     14  C   LIG    1       27.312 -21.357   7.056  0.00  0.00    +0.059 A 
ENDROOT
BRANCH   2  15
ATOM     15  C   LIG    1       29.207 -18.352   5.531  0.00  0.00    +0.419 C 
ATOM     16  F   LIG    1       28.701 -17.481   4.608  0.00  0.00    -0.166 F 
ATOM     17  F   LIG    1       30.346 -18.846   4.966  0.00  0.00    -0.166 F 
ATOM     18  F   LIG    1       29.618 -17.569   6.557  0.00  0.00    -0.166 F 
ENDBRANCH   2  15
BRANCH   1  19
ATOM     19  S   LIG    1       29.692 -20.439   7.994  0.00  0.00    +0.057 S 
ATOM     20  O   LIG    1       29.536 -21.564   8.886  0.00  0.00    -0.153 OA
ATOM     21  O   LIG    1       30.896 -20.226   7.232  0.00  0.00    -0.153 OA
BRANCH  19  22
ATOM     22  N   LIG    1       29.417 -19.089   8.947  0.00  0.00    -0.203 NA
ATOM     23  H   LIG    1       28.937 -18.368   8.405  0.00  0.00    +0.144 HD
ATOM     24  H   LIG    1       28.924 -19.362   9.801  0.00  0.00    +0.144 HD
ENDBRANCH  19  22
ENDBRANCH   1  19
TORSDOF 3
ENDMDL
MODEL 8
REMARK VINA RESULT:      -6.4      2.616      3.444
REMARK  Name = *****
REMARK                            x       y       z     vdW  Elec       q    Type
REMARK                         _______ _______ _______ _____ _____    ______ ____
ROOT
ATOM      1  C   LIG    1       26.363 -20.713   5.898  0.00  0.00    +0.119 A 
ATOM      2  C   LIG    1       26.314 -21.806   6.780  0.00  0.00    +0.083 A 
ATOM      3  C   LIG    1       27.434 -22.026   7.625  0.00  0.00    +0.039 A 
ATOM      4  C   LIG    1       28.580 -21.221   7.596  0.00  0.00    +0.055 A 
ATOM      5  N   LIG    1       29.586 -21.444   8.533  0.00  0.00    -0.328 N 
ATOM      6  H   LIG    1       29.663 -22.412   8.835  0.00  0.00    +0.147 HD
ATOM      7  C   LIG    1       30.866 -20.797   8.369  0.00  0.00    +0.209 C 
ATOM      8  N   LIG    1       30.676 -19.378   8.178  0.00  0.00    -0.173 NA
ATOM      9  H   LIG    1       31.542 -18.847   8.247  0.00  0.00    +0.150 HD
ATOM     10  S   LIG    1       29.944 -19.054   6.706  0.00  0.00    +0.062 S 
ATOM     11  O   LIG    1       30.851 -19.507   5.673  0.00  0.00    -0.153 OA
ATOM     12  O   LIG    1       29.474 -17.689   6.757  0.00  0.00    -0.153 OA
ATOM     13  C   LIG    1       28.565 -20.136   6.723  0.00  0.00    +0.128 A 
ATOM     14  C   LIG    1       27.486 -19.874   5.873  0.00  0.00    +0.059 A 
ENDROOT
BRANCH   2  15
ATOM     15  C   LIG    1       25.167 -22.781   6.933  0.00  0.00    +0.419 C 
ATOM     16  F   LIG    1       24.101 -22.191   7.550  0.00  0.00    -0.166 F 
ATOM     17  F   LIG    1       25.509 -23.828   7.737  0.00  0.00    -0.166 F 
ATOM     18  F   LIG    1       24.653 -23.335   5.808  0.00  0.00    -0.166 F 
ENDBRANCH   2  15
BRANCH   1  19
ATOM     19  S   LIG    1       25.046 -20.338   4.771  0.00  0.00    +0.057 S 
ATOM     20  O   LIG    1       24.886 -21.440   3.851  0.00  0.00    -0.153 OA
ATOM     21  O   LIG    1       23.943 -19.808   5.532  0.00  0.00    -0.153 OA
BRANCH  19  22
ATOM     22  N   LIG    1       25.704 -19.101   3.853  0.00  0.00    -0.203 NA
ATOM     23  H   LIG    1       25.823 -19.406   2.886  0.00  0.00    +0.144 HD
ATOM     24  H   LIG    1       25.138 -18.255   3.954  0.00  0.00    +0.144 HD
ENDBRANCH  19  22
ENDBRANCH   1  19
TORSDOF 3
ENDMDL
MODEL 9
REMARK VINA RESULT:      -5.7      8.669      9.766
REMARK  Name = *****
REMARK                            x       y       z     vdW  Elec       q    Type
REMARK                         _______ _______ _______ _____ _____    ______ ____
ROOT
ATOM      1  C   LIG    1       25.120 -29.642   7.465  0.00  0.00    +0.119 A 
ATOM      2  C   LIG    1       25.684 -28.355   7.475  0.00  0.00    +0.083 A 
ATOM      3  C   LIG    1       26.280 -27.902   8.682  0.00  0.00    +0.039 A 
ATOM      4  C   LIG    1       26.304 -28.669   9.855  0.00  0.00    +0.055 A 
ATOM      5  N   LIG    1       27.002 -28.190  10.960  0.00  0.00    -0.328 N 
ATOM      6  H   LIG    1       27.027 -27.177  11.026  0.00  0.00    +0.147 HD
ATOM      7  C   LIG    1       26.838 -28.839  12.239  0.00  0.00    +0.209 C 
ATOM      8  N   LIG    1       27.052 -30.260  12.099  0.00  0.00    -0.173 NA
ATOM      9  H   LIG    1       27.138 -30.741  12.992  0.00  0.00    +0.150 HD
ATOM     10  S   LIG    1       25.832 -30.975  11.200  0.00  0.00    +0.062 S 
ATOM     11  O   LIG    1       24.602 -30.800  11.941  0.00  0.00    -0.153 OA
ATOM     12  O   LIG    1       26.302 -32.284  10.810  0.00  0.00    -0.153 OA
ATOM     13  C   LIG    1       25.755 -29.947   9.782  0.00  0.00    +0.128 A 
ATOM     14  C   LIG    1       25.161 -30.441   8.616  0.00  0.00    +0.059 A 
ENDROOT
BRANCH   2  15
ATOM     15  C   LIG    1       25.734 -27.391   6.310  0.00  0.00    +0.419 C 
ATOM     16  F   LIG    1       26.544 -26.327   6.588  0.00  0.00    -0.166 F 
ATOM     17  F   LIG    1       24.508 -26.849   6.060  0.00  0.00    -0.166 F 
ATOM     18  F   LIG    1       26.176 -27.861   5.118  0.00  0.00    -0.166 F 
ENDBRANCH   2  15
BRANCH   1  19
ATOM     19  S   LIG    1       24.323 -30.322   6.034  0.00  0.00    +0.057 S 
ATOM     20  O   LIG    1       23.246 -29.447   5.635  0.00  0.00    -0.153 OA
ATOM     21  O   LIG    1       25.346 -30.749   5.113  0.00  0.00    -0.153 OA
BRANCH  19  22
ATOM     22  N   LIG    1       23.568 -31.680   6.659  0.00  0.00    -0.203 NA
ATOM     23  H   LIG    1       24.243 -32.438   6.770  0.00  0.00    +0.144 HD
ATOM     24  H   LIG    1       23.074 -31.436   7.521  0.00  0.00    +0.144 HD
ENDBRANCH  19  22
ENDBRANCH   1  19
TORSDOF 3
ENDMDL
