MODEL 1
REMARK VINA RESULT:      -8.8      0.000      0.000
REMARK  Name = *****
REMARK                            x       y       z     vdW  Elec       q    Type
REMARK                         _______ _______ _______ _____ _____    ______ ____
ROOT
ATOM      1  C   LIG    1       23.980 -22.988   6.397  0.00  0.00    +0.057 A 
ATOM      2  C   LIG    1       25.300 -22.732   6.878  0.00  0.00    +0.055 A 
ATOM      3  C   LIG    1       26.068 -23.873   7.152  0.00  0.00    +0.072 A 
ATOM      4  C   LIG    1       25.735 -25.154   6.692  0.00  0.00    +0.143 A 
ATOM      5  C   LIG    1       24.442 -25.431   6.251  0.00  0.00    +0.078 A 
ATOM      6  C   LIG    1       23.581 -24.326   6.153  0.00  0.00    +0.052 A 
ENDROOT
BRANCH   1   8
ATOM      7  C   LIG    1       23.135 -21.135   4.904  0.00  0.00    +0.241 C 
ATOM      8  N   LIG    1       23.062 -21.945   6.051  0.00  0.00    -0.280 N 
ATOM      9  H   LIG    1       22.332 -21.784   6.721  0.00  0.00    +0.155 HD
ATOM     10  O   LIG    1       23.900 -21.234   3.987  0.00  0.00    -0.271 OA
BRANCH   7  12
ATOM     11  C   LIG    1       22.374 -18.813   4.530  0.00  0.00    +0.013 C 
ATOM     12  C   LIG    1       22.069 -20.065   4.880  0.00  0.00    +0.060 C 
ENDBRANCH   7  12
ENDBRANCH   1   8
BRANCH   2  13
ATOM     13  N   LIG    1       25.889 -21.501   7.168  0.00  0.00    -0.330 N 
ATOM     14  C   LIG    1       25.721 -20.912   8.494  0.00  0.00    +0.129 C 
BRANCH  13  15
ATOM     15  C   LIG    1       26.482 -20.575   6.148  0.00  0.00    +0.120 C 
BRANCH  15  16
ATOM     16  C   LIG    1       28.000 -20.234   6.046  0.00  0.00    +0.102 C 
BRANCH  16  17
ATOM     17  N   LIG    1       28.786 -19.869   7.257  0.00  0.00    -0.307 NA
ATOM     18  C   LIG    1       29.814 -18.875   6.886  0.00  0.00    +0.104 C 
ATOM     19  C   LIG    1       29.455 -21.035   7.839  0.00  0.00    +0.104 C 
ENDBRANCH  16  17
ENDBRANCH  15  16
ENDBRANCH  13  15
ENDBRANCH   2  13
BRANCH   4  20
ATOM     20  O   LIG    1       26.657 -26.156   6.691  0.00  0.00    -0.493 OA
ATOM     21  C   LIG    1       27.192 -26.584   5.462  0.00  0.00    +0.277 C 
ENDBRANCH   4  20
BRANCH   5  22
ATOM     22  N   LIG    1       23.958 -26.666   5.763  0.00  0.00    -0.281 N 
ATOM     23  H   LIG    1       23.027 -26.636   5.368  0.00  0.00    +0.155 HD
BRANCH  22  24
ATOM     24  C   LIG    1       24.286 -28.001   6.008  0.00  0.00    +0.220 A 
ATOM     25  N   LIG    1       24.383 -28.402   7.280  0.00  0.00    -0.214 NA
ATOM     26  C   LIG    1       24.766 -29.687   7.490  0.00  0.00    +0.078 A 
ATOM     27  C   LIG    1       25.075 -30.568   6.473  0.00  0.00    +0.048 A 
ATOM     28  C   LIG    1       24.929 -30.078   5.219  0.00  0.00    +0.116 A 
ATOM     29  N   LIG    1       24.540 -28.831   5.000  0.00  0.00    -0.223 NA
BRANCH  26  30
ATOM     30  C   LIG    1       24.845 -30.128   8.877  0.00  0.00    +0.026 C 
ATOM     31  C   LIG    1       25.636 -29.620   9.957  0.00  0.00    +0.009 C 
ATOM     32  C   LIG    1       25.354 -30.398  11.086  0.00  0.00    +0.050 C 
ATOM     33  C   LIG    1       25.986 -30.182  12.320  0.00  0.00    +0.026 C 
ATOM     34  C   LIG    1       26.920 -29.146  12.407  0.00  0.00    +0.002 C 
ATOM     35  C   LIG    1       27.206 -28.346  11.305  0.00  0.00    +0.001 C 
ATOM     36  N   LIG    1       24.412 -31.329  10.709  0.00  0.00    -0.349 NA
ATOM     37  C   LIG    1       23.836 -32.333  11.575  0.00  0.00    +0.149 C 
ATOM     38  C   LIG    1       26.570 -28.570  10.080  0.00  0.00    +0.010 C 
ATOM     39  C   LIG    1       24.116 -31.192   9.380  0.00  0.00    +0.096 C 
ENDBRANCH  26  30
ENDBRANCH  22  24
ENDBRANCH   5  22
TORSDOF 10
ENDMDL
MODEL 2
REMARK VINA RESULT:      -8.1      0.809      2.107
REMARK  Name = *****
REMARK                            x       y       z     vdW  Elec       q    Type
REMARK                         _______ _______ _______ _____ _____    ______ ____
ROOT
ATOM      1  C   LIG    1       23.990 -23.224   6.393  0.00  0.00    +0.057 A 
ATOM      2  C   LIG    1       25.298 -22.959   6.903  0.00  0.00    +0.055 A 
ATOM      3  C   LIG    1       26.071 -24.095   7.184  0.00  0.00    +0.072 A 
ATOM      4  C   LIG    1       25.759 -25.376   6.710  0.00  0.00    +0.143 A 
ATOM      5  C   LIG    1       24.478 -25.662   6.240  0.00  0.00    +0.078 A 
ATOM      6  C   LIG    1       23.608 -24.564   6.132  0.00  0.00    +0.052 A 
ENDROOT
BRANCH   1   8
ATOM      7  C   LIG    1       23.268 -21.227   5.027  0.00  0.00    +0.241 C 
ATOM      8  N   LIG    1       23.070 -22.187   6.035  0.00  0.00    -0.280 N 
ATOM      9  H   LIG    1       22.235 -22.152   6.591  0.00  0.00    +0.155 HD
ATOM     10  O   LIG    1       24.171 -21.166   4.243  0.00  0.00    -0.271 OA
BRANCH   7  12
ATOM     11  C   LIG    1       22.386 -18.970   4.540  0.00  0.00    +0.013 C 
ATOM     12  C   LIG    1       22.149 -20.214   4.963  0.00  0.00    +0.060 C 
ENDBRANCH   7  12
ENDBRANCH   1   8
BRANCH   2  13
ATOM     13  N   LIG    1       25.870 -21.725   7.213  0.00  0.00    -0.330 N 
ATOM     14  C   LIG    1       25.222 -20.851   8.188  0.00  0.00    +0.129 C 
BRANCH  13  15
ATOM     15  C   LIG    1       26.978 -21.077   6.437  0.00  0.00    +0.120 C 
BRANCH  15  16
ATOM     16  C   LIG    1       28.437 -20.908   6.960  0.00  0.00    +0.102 C 
BRANCH  16  17
ATOM     17  N   LIG    1       29.109 -19.579   6.939  0.00  0.00    -0.307 NA
ATOM     18  C   LIG    1       28.881 -18.942   5.626  0.00  0.00    +0.104 C 
ATOM     19  C   LIG    1       30.553 -19.699   7.154  0.00  0.00    +0.104 C 
ENDBRANCH  16  17
ENDBRANCH  15  16
ENDBRANCH  13  15
ENDBRANCH   2  13
BRANCH   4  20
ATOM     20  O   LIG    1       26.690 -26.370   6.720  0.00  0.00    -0.493 OA
ATOM     21  C   LIG    1       27.308 -26.734   5.509  0.00  0.00    +0.277 C 
ENDBRANCH   4  20
BRANCH   5  22
ATOM     22  N   LIG    1       24.015 -26.898   5.734  0.00  0.00    -0.281 N 
ATOM     23  H   LIG    1       23.104 -26.868   5.294  0.00  0.00    +0.155 HD
BRANCH  22  24
ATOM     24  C   LIG    1       24.329 -28.232   6.000  0.00  0.00    +0.220 A 
ATOM     25  N   LIG    1       24.274 -28.651   7.269  0.00  0.00    -0.214 NA
ATOM     26  C   LIG    1       24.645 -29.934   7.507  0.00  0.00    +0.078 A 
ATOM     27  C   LIG    1       25.088 -30.797   6.524  0.00  0.00    +0.048 A 
ATOM     28  C   LIG    1       25.090 -30.291   5.268  0.00  0.00    +0.116 A 
ATOM     29  N   LIG    1       24.714 -29.044   5.020  0.00  0.00    -0.223 NA
BRANCH  26  30
ATOM     30  C   LIG    1       24.559 -30.394   8.888  0.00  0.00    +0.026 C 
ATOM     31  C   LIG    1       23.730 -31.406   9.467  0.00  0.00    +0.009 C 
ATOM     32  C   LIG    1       24.023 -31.458  10.835  0.00  0.00    +0.050 C 
ATOM     33  C   LIG    1       23.361 -32.332  11.710  0.00  0.00    +0.026 C 
ATOM     34  C   LIG    1       22.383 -33.177  11.179  0.00  0.00    +0.002 C 
ATOM     35  C   LIG    1       22.084 -33.159   9.820  0.00  0.00    +0.001 C 
ATOM     36  N   LIG    1       25.009 -30.525  11.071  0.00  0.00    -0.349 NA
ATOM     37  C   LIG    1       25.611 -30.252  12.356  0.00  0.00    +0.149 C 
ATOM     38  C   LIG    1       22.751 -32.284   8.957  0.00  0.00    +0.010 C 
ATOM     39  C   LIG    1       25.323 -29.865   9.914  0.00  0.00    +0.096 C 
ENDBRANCH  26  30
ENDBRANCH  22  24
ENDBRANCH   5  22
TORSDOF 10
ENDMDL
MODEL 3
REMARK VINA RESULT:      -8.0      2.938      8.837
REMARK  Name = *****
REMARK                            x       y       z     vdW  Elec       q    Type
REMARK                         _______ _______ _______ _____ _____    ______ ____
ROOT
ATOM      1  C   LIG    1       26.630 -28.045  12.101  0.00  0.00    +0.057 A 
ATOM      2  C   LIG    1       25.941 -29.262  12.393  0.00  0.00    +0.055 A 
ATOM      3  C   LIG    1       25.329 -29.880  11.294  0.00  0.00    +0.072 A 
ATOM      4  C   LIG    1       25.622 -29.553   9.964  0.00  0.00    +0.143 A 
ATOM      5  C   LIG    1       26.263 -28.354   9.657  0.00  0.00    +0.078 A 
ATOM      6  C   LIG    1       26.720 -27.607  10.756  0.00  0.00    +0.052 A 
ENDROOT
BRANCH   1   8
ATOM      7  C   LIG    1       27.082 -25.942  13.425  0.00  0.00    +0.241 C 
ATOM      8  N   LIG    1       27.327 -27.287  13.096  0.00  0.00    -0.280 N 
ATOM      9  H   LIG    1       28.068 -27.779  13.561  0.00  0.00    +0.155 HD
ATOM     10  O   LIG    1       26.206 -25.237  13.012  0.00  0.00    -0.271 OA
BRANCH   7  12
ATOM     11  C   LIG    1       27.980 -24.139  14.857  0.00  0.00    +0.013 C 
ATOM     12  C   LIG    1       28.052 -25.409  14.452  0.00  0.00    +0.060 C 
ENDBRANCH   7  12
ENDBRANCH   1   8
BRANCH   2  13
ATOM     13  N   LIG    1       25.751 -29.868  13.635  0.00  0.00    -0.330 N 
ATOM     14  C   LIG    1       26.299 -31.199  13.884  0.00  0.00    +0.129 C 
BRANCH  13  15
ATOM     15  C   LIG    1       24.795 -29.384  14.686  0.00  0.00    +0.120 C 
BRANCH  15  16
ATOM     16  C   LIG    1       23.521 -28.535  14.393  0.00  0.00    +0.102 C 
BRANCH  16  17
ATOM     17  N   LIG    1       23.625 -27.087  14.060  0.00  0.00    -0.307 NA
ATOM     18  C   LIG    1       23.739 -26.310  15.311  0.00  0.00    +0.104 C 
ATOM     19  C   LIG    1       22.450 -26.615  13.324  0.00  0.00    +0.104 C 
ENDBRANCH  16  17
ENDBRANCH  15  16
ENDBRANCH  13  15
ENDBRANCH   2  13
BRANCH   4  20
ATOM     20  O   LIG    1       25.267 -30.385   8.946  0.00  0.00    -0.493 OA
ATOM     21  C   LIG    1       23.924 -30.789   8.837  0.00  0.00    +0.277 C 
ENDBRANCH   4  20
BRANCH   5  22
ATOM     22  N   LIG    1       26.623 -27.888   8.372  0.00  0.00    -0.281 N 
ATOM     23  H   LIG    1       27.587 -27.593   8.277  0.00  0.00    +0.155 HD
BRANCH  22  24
ATOM     24  C   LIG    1       25.903 -27.385   7.287  0.00  0.00    +0.220 A 
ATOM     25  N   LIG    1       25.851 -26.059   7.125  0.00  0.00    -0.214 NA
ATOM     26  C   LIG    1       25.092 -25.596   6.099  0.00  0.00    +0.078 A 
ATOM     27  C   LIG    1       24.370 -26.414   5.253  0.00  0.00    +0.048 A 
ATOM     28  C   LIG    1       24.500 -27.742   5.482  0.00  0.00    +0.116 A 
ATOM     29  N   LIG    1       25.251 -28.208   6.469  0.00  0.00    -0.223 NA
BRANCH  26  30
ATOM     30  C   LIG    1       25.059 -24.151   5.910  0.00  0.00    +0.026 C 
ATOM     31  C   LIG    1       25.466 -23.101   6.794  0.00  0.00    +0.009 C 
ATOM     32  C   LIG    1       25.221 -21.886   6.144  0.00  0.00    +0.050 C 
ATOM     33  C   LIG    1       25.483 -20.648   6.748  0.00  0.00    +0.026 C 
ATOM     34  C   LIG    1       26.014 -20.648   8.041  0.00  0.00    +0.002 C 
ATOM     35  C   LIG    1       26.284 -21.841   8.704  0.00  0.00    +0.001 C 
ATOM     36  N   LIG    1       24.703 -22.190   4.904  0.00  0.00    -0.349 NA
ATOM     37  C   LIG    1       24.312 -21.224   3.903  0.00  0.00    +0.149 C 
ATOM     38  C   LIG    1       26.019 -23.069   8.091  0.00  0.00    +0.010 C 
ATOM     39  C   LIG    1       24.580 -23.545   4.761  0.00  0.00    +0.096 C 
ENDBRANCH  26  30
ENDBRANCH  22  24
ENDBRANCH   5  22
TORSDOF 10
ENDMDL
MODEL 4
REMARK VINA RESULT:      -7.9      2.881      9.024
REMARK  Name = *****
REMARK                            x       y       z     vdW  Elec       q    Type
REMARK                         _______ _______ _______ _____ _____    ______ ____
ROOT
ATOM      1  C   LIG    1       23.758 -30.214  10.747  0.00  0.00    +0.057 A 
ATOM      2  C   LIG    1       24.573 -30.514  11.882  0.00  0.00    +0.055 A 
ATOM      3  C   LIG    1       25.954 -30.525  11.639  0.00  0.00    +0.072 A 
ATOM      4  C   LIG    1       26.539 -29.970  10.494  0.00  0.00    +0.143 A 
ATOM      5  C   LIG    1       25.766 -29.701   9.366  0.00  0.00    +0.078 A 
ATOM      6  C   LIG    1       24.381 -29.872   9.521  0.00  0.00    +0.052 A 
ENDROOT
BRANCH   1   8
ATOM      7  C   LIG    1       21.441 -31.190  10.514  0.00  0.00    +0.241 C 
ATOM      8  N   LIG    1       22.330 -30.142  10.813  0.00  0.00    -0.280 N 
ATOM      9  H   LIG    1       21.962 -29.244  11.069  0.00  0.00    +0.155 HD
ATOM     10  O   LIG    1       21.713 -32.327  10.253  0.00  0.00    -0.271 OA
BRANCH   7  12
ATOM     11  C   LIG    1       19.024 -31.584  10.179  0.00  0.00    +0.013 C 
ATOM     12  C   LIG    1       19.994 -30.764  10.590  0.00  0.00    +0.060 C 
ENDBRANCH   7  12
ENDBRANCH   1   8
BRANCH   2  13
ATOM     13  N   LIG    1       24.164 -30.859  13.170  0.00  0.00    -0.330 N 
ATOM     14  C   LIG    1       23.756 -32.231  13.458  0.00  0.00    +0.129 C 
BRANCH  13  15
ATOM     15  C   LIG    1       23.851 -29.876  14.260  0.00  0.00    +0.120 C 
BRANCH  15  16
ATOM     16  C   LIG    1       22.834 -28.702  14.122  0.00  0.00    +0.102 C 
BRANCH  16  17
ATOM     17  N   LIG    1       23.300 -27.289  14.059  0.00  0.00    -0.307 NA
ATOM     18  C   LIG    1       22.323 -26.491  13.291  0.00  0.00    +0.104 C 
ATOM     19  C   LIG    1       24.607 -27.179  13.407  0.00  0.00    +0.104 C 
ENDBRANCH  16  17
ENDBRANCH  15  16
ENDBRANCH  13  15
ENDBRANCH   2  13
BRANCH   4  20
ATOM     20  O   LIG    1       27.875 -29.704  10.452  0.00  0.00    -0.493 OA
ATOM     21  C   LIG    1       28.552 -29.439  11.656  0.00  0.00    +0.277 C 
ENDBRANCH   4  20
BRANCH   5  22
ATOM     22  N   LIG    1       26.210 -29.146   8.145  0.00  0.00    -0.281 N 
ATOM     23  H   LIG    1       27.214 -29.127   8.021  0.00  0.00    +0.155 HD
BRANCH  22  24
ATOM     24  C   LIG    1       25.639 -28.280   7.209  0.00  0.00    +0.220 A 
ATOM     25  N   LIG    1       25.787 -26.964   7.395  0.00  0.00    -0.214 NA
ATOM     26  C   LIG    1       25.168 -26.146   6.507  0.00  0.00    +0.078 A 
ATOM     27  C   LIG    1       24.392 -26.602   5.461  0.00  0.00    +0.048 A 
ATOM     28  C   LIG    1       24.316 -27.948   5.340  0.00  0.00    +0.116 A 
ATOM     29  N   LIG    1       24.929 -28.759   6.191  0.00  0.00    -0.223 NA
BRANCH  26  30
ATOM     30  C   LIG    1       25.354 -24.713   6.699  0.00  0.00    +0.026 C 
ATOM     31  C   LIG    1       24.385 -23.661   6.746  0.00  0.00    +0.009 C 
ATOM     32  C   LIG    1       25.077 -22.460   6.942  0.00  0.00    +0.050 C 
ATOM     33  C   LIG    1       24.422 -21.221   7.009  0.00  0.00    +0.026 C 
ATOM     34  C   LIG    1       23.031 -21.206   6.878  0.00  0.00    +0.002 C 
ATOM     35  C   LIG    1       22.316 -22.386   6.700  0.00  0.00    +0.001 C 
ATOM     36  N   LIG    1       26.415 -22.776   7.031  0.00  0.00    -0.349 NA
ATOM     37  C   LIG    1       27.485 -21.828   7.239  0.00  0.00    +0.149 C 
ATOM     38  C   LIG    1       22.979 -23.615   6.636  0.00  0.00    +0.010 C 
ATOM     39  C   LIG    1       26.595 -24.122   6.864  0.00  0.00    +0.096 C 
ENDBRANCH  26  30
ENDBRANCH  22  24
ENDBRANCH   5  22
TORSDOF 10
ENDMDL
MODEL 5
REMARK VINA RESULT:      -7.8      2.382      4.279
REMARK  Name = *****
REMARK                            x       y       z     vdW  Elec       q    Type
REMARK                         _______ _______ _______ _____ _____    ______ ____
ROOT
ATOM      1  C   LIG    1       25.919 -23.821   6.706  0.00  0.00    +0.057 A 
ATOM      2  C   LIG    1       24.617 -23.786   6.119  0.00  0.00    +0.055 A 
ATOM      3  C   LIG    1       24.071 -25.037   5.799  0.00  0.00    +0.072 A 
ATOM      4  C   LIG    1       24.573 -26.247   6.298  0.00  0.00    +0.143 A 
ATOM      5  C   LIG    1       25.854 -26.307   6.843  0.00  0.00    +0.078 A 
ATOM      6  C   LIG    1       26.512 -25.076   6.996  0.00  0.00    +0.052 A 
ENDROOT
BRANCH   1   8
ATOM      7  C   LIG    1       26.287 -21.822   8.204  0.00  0.00    +0.241 C 
ATOM      8  N   LIG    1       26.621 -22.642   7.112  0.00  0.00    -0.280 N 
ATOM      9  H   LIG    1       27.397 -22.389   6.527  0.00  0.00    +0.155 HD
ATOM     10  O   LIG    1       25.438 -22.013   9.027  0.00  0.00    -0.271 OA
BRANCH   7  12
ATOM     11  C   LIG    1       28.001 -20.282   7.310  0.00  0.00    +0.013 C 
ATOM     12  C   LIG    1       27.172 -20.602   8.307  0.00  0.00    +0.060 C 
ENDBRANCH   7  12
ENDBRANCH   1   8
BRANCH   2  13
ATOM     13  N   LIG    1       23.859 -22.669   5.769  0.00  0.00    -0.330 N 
ATOM     14  C   LIG    1       22.643 -22.354   6.515  0.00  0.00    +0.129 C 
BRANCH  13  15
ATOM     15  C   LIG    1       24.033 -21.878   4.506  0.00  0.00    +0.120 C 
BRANCH  15  16
ATOM     16  C   LIG    1       24.873 -20.569   4.396  0.00  0.00    +0.102 C 
BRANCH  16  17
ATOM     17  N   LIG    1       24.437 -19.451   3.513  0.00  0.00    -0.307 NA
ATOM     18  C   LIG    1       25.493 -18.419   3.481  0.00  0.00    +0.104 C 
ATOM     19  C   LIG    1       23.198 -18.835   3.993  0.00  0.00    +0.104 C 
ENDBRANCH  16  17
ENDBRANCH  15  16
ENDBRANCH  13  15
ENDBRANCH   2  13
BRANCH   4  20
ATOM     20  O   LIG    1       23.831 -27.387   6.238  0.00  0.00    -0.493 OA
ATOM     21  C   LIG    1       24.132 -28.341   5.249  0.00  0.00    +0.277 C 
ENDBRANCH   4  20
BRANCH   5  22
ATOM     22  N   LIG    1       26.494 -27.446   7.383  0.00  0.00    -0.281 N 
ATOM     23  H   LIG    1       27.131 -27.919   6.755  0.00  0.00    +0.155 HD
BRANCH  22  24
ATOM     24  C   LIG    1       26.207 -28.307   8.444  0.00  0.00    +0.220 A 
ATOM     25  N   LIG    1       26.771 -28.056   9.630  0.00  0.00    -0.214 NA
ATOM     26  C   LIG    1       26.525 -28.945  10.626  0.00  0.00    +0.078 A 
ATOM     27  C   LIG    1       25.757 -30.081  10.464  0.00  0.00    +0.048 A 
ATOM     28  C   LIG    1       25.212 -30.240   9.236  0.00  0.00    +0.116 A 
ATOM     29  N   LIG    1       25.430 -29.371   8.259  0.00  0.00    -0.223 NA
BRANCH  26  30
ATOM     30  C   LIG    1       27.121 -28.653  11.924  0.00  0.00    +0.026 C 
ATOM     31  C   LIG    1       26.968 -27.506  12.767  0.00  0.00    +0.009 C 
ATOM     32  C   LIG    1       27.761 -27.711  13.902  0.00  0.00    +0.050 C 
ATOM     33  C   LIG    1       27.861 -26.756  14.926  0.00  0.00    +0.026 C 
ATOM     34  C   LIG    1       27.133 -25.571  14.793  0.00  0.00    +0.002 C 
ATOM     35  C   LIG    1       26.324 -25.349  13.683  0.00  0.00    +0.001 C 
ATOM     36  N   LIG    1       28.356 -28.945  13.762  0.00  0.00    -0.349 NA
ATOM     37  C   LIG    1       29.255 -29.552  14.716  0.00  0.00    +0.149 C 
ATOM     38  C   LIG    1       26.231 -26.308  12.669  0.00  0.00    +0.010 C 
ATOM     39  C   LIG    1       27.997 -29.510  12.569  0.00  0.00    +0.096 C 
ENDBRANCH  26  30
ENDBRANCH  22  24
ENDBRANCH   5  22
TORSDOF 10
ENDMDL
MODEL 6
REMARK VINA RESULT:      -7.7      2.679      9.334
REMARK  Name = *****
REMARK                            x       y       z     vdW  Elec       q    Type
REMARK                         _______ _______ _______ _____ _____    ______ ____
ROOT
ATOM      1  C   LIG    1       25.072 -30.859   9.980  0.00  0.00    +0.057 A 
ATOM      2  C   LIG    1       25.246 -30.606  11.376  0.00  0.00    +0.055 A 
ATOM      3  C   LIG    1       26.055 -29.503  11.686  0.00  0.00    +0.072 A 
ATOM      4  C   LIG    1       26.402 -28.516  10.755  0.00  0.00    +0.143 A 
ATOM      5  C   LIG    1       26.271 -28.758   9.388  0.00  0.00    +0.078 A 
ATOM      6  C   LIG    1       25.634 -29.960   9.040  0.00  0.00    +0.052 A 
ENDROOT
BRANCH   1   8
ATOM      7  C   LIG    1       22.862 -31.938   9.407  0.00  0.00    +0.241 C 
ATOM      8  N   LIG    1       24.266 -31.931   9.479  0.00  0.00    -0.280 N 
ATOM      9  H   LIG    1       24.777 -32.745   9.189  0.00  0.00    +0.155 HD
ATOM     10  O   LIG    1       22.113 -31.036   9.654  0.00  0.00    -0.271 OA
BRANCH   7  12
ATOM     11  C   LIG    1       22.594 -33.691   7.686  0.00  0.00    +0.013 C 
ATOM     12  C   LIG    1       22.312 -33.257   8.916  0.00  0.00    +0.060 C 
ENDBRANCH   7  12
ENDBRANCH   1   8
BRANCH   2  13
ATOM     13  N   LIG    1       24.769 -31.351  12.454  0.00  0.00    -0.330 N 
ATOM     14  C   LIG    1       25.353 -32.658  12.747  0.00  0.00    +0.129 C 
BRANCH  13  15
ATOM     15  C   LIG    1       23.509 -31.051  13.211  0.00  0.00    +0.120 C 
BRANCH  15  16
ATOM     16  C   LIG    1       23.060 -29.621  13.641  0.00  0.00    +0.102 C 
BRANCH  16  17
ATOM     17  N   LIG    1       22.440 -28.686  12.661  0.00  0.00    -0.307 NA
ATOM     18  C   LIG    1       22.545 -27.306  13.175  0.00  0.00    +0.104 C 
ATOM     19  C   LIG    1       21.026 -28.994  12.439  0.00  0.00    +0.104 C 
ENDBRANCH  16  17
ENDBRANCH  15  16
ENDBRANCH  13  15
ENDBRANCH   2  13
BRANCH   4  20
ATOM     20  O   LIG    1       26.896 -27.314  11.163  0.00  0.00    -0.493 OA
ATOM     21  C   LIG    1       26.823 -26.979  12.528  0.00  0.00    +0.277 C 
ENDBRANCH   4  20
BRANCH   5  22
ATOM     22  N   LIG    1       26.579 -27.868   8.335  0.00  0.00    -0.281 N 
ATOM     23  H   LIG    1       27.371 -27.261   8.503  0.00  0.00    +0.155 HD
BRANCH  22  24
ATOM     24  C   LIG    1       25.853 -27.351   7.260  0.00  0.00    +0.220 A 
ATOM     25  N   LIG    1       25.816 -26.023   7.104  0.00  0.00    -0.214 NA
ATOM     26  C   LIG    1       25.052 -25.545   6.090  0.00  0.00    +0.078 A 
ATOM     27  C   LIG    1       24.309 -26.350   5.249  0.00  0.00    +0.048 A 
ATOM     28  C   LIG    1       24.425 -27.680   5.470  0.00  0.00    +0.116 A 
ATOM     29  N   LIG    1       25.181 -28.161   6.446  0.00  0.00    -0.223 NA
BRANCH  26  30
ATOM     30  C   LIG    1       25.036 -24.099   5.908  0.00  0.00    +0.026 C 
ATOM     31  C   LIG    1       25.463 -23.059   6.793  0.00  0.00    +0.009 C 
ATOM     32  C   LIG    1       25.228 -21.837   6.151  0.00  0.00    +0.050 C 
ATOM     33  C   LIG    1       25.511 -20.605   6.759  0.00  0.00    +0.026 C 
ATOM     34  C   LIG    1       26.051 -20.618   8.048  0.00  0.00    +0.002 C 
ATOM     35  C   LIG    1       26.311 -21.818   8.703  0.00  0.00    +0.001 C 
ATOM     36  N   LIG    1       24.696 -22.129   4.914  0.00  0.00    -0.349 NA
ATOM     37  C   LIG    1       24.311 -21.153   3.920  0.00  0.00    +0.149 C 
ATOM     38  C   LIG    1       26.026 -23.040   8.087  0.00  0.00    +0.010 C 
ATOM     39  C   LIG    1       24.556 -23.482   4.766  0.00  0.00    +0.096 C 
ENDBRANCH  26  30
ENDBRANCH  22  24
ENDBRANCH   5  22
TORSDOF 10
ENDMDL
MODEL 7
REMARK VINA RESULT:      -7.7      2.415      9.249
REMARK  Name = *****
REMARK                            x       y       z     vdW  Elec       q    Type
REMARK                         _______ _______ _______ _____ _____    ______ ____
ROOT
ATOM      1  C   LIG    1       26.023 -29.203  11.055  0.00  0.00    +0.057 A 
ATOM      2  C   LIG    1       24.956 -30.143  10.915  0.00  0.00    +0.055 A 
ATOM      3  C   LIG    1       24.326 -30.150   9.663  0.00  0.00    +0.072 A 
ATOM      4  C   LIG    1       24.875 -29.551   8.521  0.00  0.00    +0.143 A 
ATOM      5  C   LIG    1       25.893 -28.606   8.641  0.00  0.00    +0.078 A 
ATOM      6  C   LIG    1       26.416 -28.432   9.932  0.00  0.00    +0.052 A 
ENDROOT
BRANCH   1   8
ATOM      7  C   LIG    1       28.141 -29.421  12.411  0.00  0.00    +0.241 C 
ATOM      8  N   LIG    1       26.789 -29.069  12.257  0.00  0.00    -0.280 N 
ATOM      9  H   LIG    1       26.279 -28.718  13.047  0.00  0.00    +0.155 HD
ATOM     10  O   LIG    1       28.901 -29.794  11.564  0.00  0.00    -0.271 OA
BRANCH   7  12
ATOM     11  C   LIG    1       27.757 -29.132  14.836  0.00  0.00    +0.013 C 
ATOM     12  C   LIG    1       28.629 -29.243  13.830  0.00  0.00    +0.060 C 
ENDBRANCH   7  12
ENDBRANCH   1   8
BRANCH   2  13
ATOM     13  N   LIG    1       24.428 -30.998  11.882  0.00  0.00    -0.330 N 
ATOM     14  C   LIG    1       24.899 -32.378  11.965  0.00  0.00    +0.129 C 
BRANCH  13  15
ATOM     15  C   LIG    1       23.208 -30.708  12.707  0.00  0.00    +0.120 C 
BRANCH  15  16
ATOM     16  C   LIG    1       22.147 -29.620  12.356  0.00  0.00    +0.102 C 
BRANCH  16  17
ATOM     17  N   LIG    1       22.408 -28.180  12.632  0.00  0.00    -0.307 NA
ATOM     18  C   LIG    1       23.432 -28.067  13.690  0.00  0.00    +0.104 C 
ATOM     19  C   LIG    1       21.198 -27.487  13.080  0.00  0.00    +0.104 C 
ENDBRANCH  16  17
ENDBRANCH  15  16
ENDBRANCH  13  15
ENDBRANCH   2  13
BRANCH   4  20
ATOM     20  O   LIG    1       24.409 -29.860   7.279  0.00  0.00    -0.493 OA
ATOM     21  C   LIG    1       25.000 -30.928   6.580  0.00  0.00    +0.277 C 
ENDBRANCH   4  20
BRANCH   5  22
ATOM     22  N   LIG    1       26.542 -27.920   7.589  0.00  0.00    -0.281 N 
ATOM     23  H   LIG    1       27.540 -27.802   7.705  0.00  0.00    +0.155 HD
BRANCH  22  24
ATOM     24  C   LIG    1       26.110 -27.040   6.594  0.00  0.00    +0.220 A 
ATOM     25  N   LIG    1       25.862 -25.772   6.940  0.00  0.00    -0.214 NA
ATOM     26  C   LIG    1       25.383 -24.954   5.968  0.00  0.00    +0.078 A 
ATOM     27  C   LIG    1       25.125 -25.372   4.678  0.00  0.00    +0.048 A 
ATOM     28  C   LIG    1       25.426 -26.665   4.417  0.00  0.00    +0.116 A 
ATOM     29  N   LIG    1       25.910 -27.470   5.352  0.00  0.00    -0.223 NA
BRANCH  26  30
ATOM     30  C   LIG    1       25.139 -23.567   6.343  0.00  0.00    +0.026 C 
ATOM     31  C   LIG    1       26.032 -22.596   6.897  0.00  0.00    +0.009 C 
ATOM     32  C   LIG    1       25.304 -21.414   7.083  0.00  0.00    +0.050 C 
ATOM     33  C   LIG    1       25.879 -20.262   7.640  0.00  0.00    +0.026 C 
ATOM     34  C   LIG    1       27.227 -20.312   8.009  0.00  0.00    +0.002 C 
ATOM     35  C   LIG    1       27.978 -21.468   7.819  0.00  0.00    +0.001 C 
ATOM     36  N   LIG    1       24.023 -21.656   6.640  0.00  0.00    -0.349 NA
ATOM     37  C   LIG    1       22.942 -20.697   6.647  0.00  0.00    +0.149 C 
ATOM     38  C   LIG    1       27.395 -22.610   7.262  0.00  0.00    +0.010 C 
ATOM     39  C   LIG    1       23.906 -22.951   6.214  0.00  0.00    +0.096 C 
ENDBRANCH  26  30
ENDBRANCH  22  24
ENDBRANCH   5  22
TORSDOF 10
ENDMDL
MODEL 8
REMARK VINA RESULT:      -7.5      2.641      9.198
REMARK  Name = *****
REMARK                            x       y       z     vdW  Elec       q    Type
REMARK                         _______ _______ _______ _____ _____    ______ ____
ROOT
ATOM      1  C   LIG    1       25.726 -29.484  11.427  0.00  0.00    +0.057 A 
ATOM      2  C   LIG    1       24.559 -30.302  11.526  0.00  0.00    +0.055 A 
ATOM      3  C   LIG    1       23.810 -30.419  10.346  0.00  0.00    +0.072 A 
ATOM      4  C   LIG    1       24.301 -30.064   9.083  0.00  0.00    +0.143 A 
ATOM      5  C   LIG    1       25.419 -29.238   8.968  0.00  0.00    +0.078 A 
ATOM      6  C   LIG    1       26.083 -28.939  10.168  0.00  0.00    +0.052 A 
ENDROOT
BRANCH   1   8
ATOM      7  C   LIG    1       26.794 -28.049  13.209  0.00  0.00    +0.241 C 
ATOM      8  N   LIG    1       26.617 -29.265  12.526  0.00  0.00    -0.280 N 
ATOM      9  H   LIG    1       27.170 -30.061  12.787  0.00  0.00    +0.155 HD
ATOM     10  O   LIG    1       26.178 -27.032  13.063  0.00  0.00    -0.271 OA
BRANCH   7  12
ATOM     11  C   LIG    1       27.923 -27.234  15.252  0.00  0.00    +0.013 C 
ATOM     12  C   LIG    1       27.878 -28.126  14.259  0.00  0.00    +0.060 C 
ENDBRANCH   7  12
ENDBRANCH   1   8
BRANCH   2  13
ATOM     13  N   LIG    1       24.043 -30.937  12.656  0.00  0.00    -0.330 N 
ATOM     14  C   LIG    1       24.133 -32.390  12.775  0.00  0.00    +0.129 C 
BRANCH  13  15
ATOM     15  C   LIG    1       23.155 -30.284  13.673  0.00  0.00    +0.120 C 
BRANCH  15  16
ATOM     16  C   LIG    1       23.232 -28.779  14.074  0.00  0.00    +0.102 C 
BRANCH  16  17
ATOM     17  N   LIG    1       22.104 -27.851  13.783  0.00  0.00    -0.307 NA
ATOM     18  C   LIG    1       21.282 -28.414  12.693  0.00  0.00    +0.104 C 
ATOM     19  C   LIG    1       22.583 -26.530  13.370  0.00  0.00    +0.104 C 
ENDBRANCH  16  17
ENDBRANCH  15  16
ENDBRANCH  13  15
ENDBRANCH   2  13
BRANCH   4  20
ATOM     20  O   LIG    1       23.685 -30.496   7.948  0.00  0.00    -0.493 OA
ATOM     21  C   LIG    1       23.726 -31.866   7.634  0.00  0.00    +0.277 C 
ENDBRANCH   4  20
BRANCH   5  22
ATOM     22  N   LIG    1       26.028 -28.796   7.771  0.00  0.00    -0.281 N 
ATOM     23  H   LIG    1       27.011 -29.017   7.683  0.00  0.00    +0.155 HD
BRANCH  22  24
ATOM     24  C   LIG    1       25.714 -27.813   6.830  0.00  0.00    +0.220 A 
ATOM     25  N   LIG    1       25.829 -26.532   7.196  0.00  0.00    -0.214 NA
ATOM     26  C   LIG    1       25.457 -25.598   6.284  0.00  0.00    +0.078 A 
ATOM     27  C   LIG    1       24.955 -25.908   5.035  0.00  0.00    +0.048 A 
ATOM     28  C   LIG    1       24.894 -27.229   4.748  0.00  0.00    +0.116 A 
ATOM     29  N   LIG    1       25.270 -28.151   5.623  0.00  0.00    -0.223 NA
BRANCH  26  30
ATOM     30  C   LIG    1       25.609 -24.203   6.677  0.00  0.00    +0.026 C 
ATOM     31  C   LIG    1       24.629 -23.164   6.765  0.00  0.00    +0.009 C 
ATOM     32  C   LIG    1       25.287 -22.000   7.182  0.00  0.00    +0.050 C 
ATOM     33  C   LIG    1       24.616 -20.779   7.344  0.00  0.00    +0.026 C 
ATOM     34  C   LIG    1       23.243 -20.744   7.082  0.00  0.00    +0.002 C 
ATOM     35  C   LIG    1       22.561 -21.889   6.683  0.00  0.00    +0.001 C 
ATOM     36  N   LIG    1       26.612 -22.329   7.358  0.00  0.00    -0.349 NA
ATOM     37  C   LIG    1       27.648 -21.418   7.791  0.00  0.00    +0.149 C 
ATOM     38  C   LIG    1       23.240 -23.101   6.526  0.00  0.00    +0.010 C 
ATOM     39  C   LIG    1       26.822 -23.642   7.037  0.00  0.00    +0.096 C 
ENDBRANCH  26  30
ENDBRANCH  22  24
ENDBRANCH   5  22
TORSDOF 10
ENDMDL
MODEL 9
REMARK VINA RESULT:      -7.5      2.549      9.519
REMARK  Name = *****
REMARK                            x       y       z     vdW  Elec       q    Type
REMARK                         _______ _______ _______ _____ _____    ______ ____
ROOT
ATOM      1  C   LIG    1       25.014 -31.322   8.633  0.00  0.00    +0.057 A 
ATOM      2  C   LIG    1       24.822 -31.430  10.045  0.00  0.00    +0.055 A 
ATOM      3  C   LIG    1       25.398 -30.403  10.806  0.00  0.00    +0.072 A 
ATOM      4  C   LIG    1       25.838 -29.191  10.258  0.00  0.00    +0.143 A 
ATOM      5  C   LIG    1       26.063 -29.078   8.886  0.00  0.00    +0.078 A 
ATOM      6  C   LIG    1       25.673 -30.182   8.111  0.00  0.00    +0.052 A 
ENDROOT
BRANCH   1   8
ATOM      7  C   LIG    1       23.688 -31.963   6.582  0.00  0.00    +0.241 C 
ATOM      8  N   LIG    1       24.482 -32.270   7.701  0.00  0.00    -0.280 N 
ATOM      9  H   LIG    1       24.687 -33.230   7.910  0.00  0.00    +0.155 HD
ATOM     10  O   LIG    1       23.405 -30.878   6.163  0.00  0.00    -0.271 OA
BRANCH   7  12
ATOM     11  C   LIG    1       23.735 -33.534   4.673  0.00  0.00    +0.013 C 
ATOM     12  C   LIG    1       23.209 -33.198   5.854  0.00  0.00    +0.060 C 
ENDBRANCH   7  12
ENDBRANCH   1   8
BRANCH   2  13
ATOM     13  N   LIG    1       24.195 -32.454  10.754  0.00  0.00    -0.330 N 
ATOM     14  C   LIG    1       24.940 -33.664  11.093  0.00  0.00    +0.129 C 
BRANCH  13  15
ATOM     15  C   LIG    1       22.716 -32.550  10.991  0.00  0.00    +0.120 C 
BRANCH  15  16
ATOM     16  C   LIG    1       21.629 -32.081   9.976  0.00  0.00    +0.102 C 
BRANCH  16  17
ATOM     17  N   LIG    1       20.781 -30.890  10.257  0.00  0.00    -0.307 NA
ATOM     18  C   LIG    1       21.340 -30.160  11.413  0.00  0.00    +0.104 C 
ATOM     19  C   LIG    1       19.402 -31.270  10.570  0.00  0.00    +0.104 C 
ENDBRANCH  16  17
ENDBRANCH  15  16
ENDBRANCH  13  15
ENDBRANCH   2  13
BRANCH   4  20
ATOM     20  O   LIG    1       26.076 -28.111  11.053  0.00  0.00    -0.493 OA
ATOM     21  C   LIG    1       27.165 -28.151  11.943  0.00  0.00    +0.277 C 
ENDBRANCH   4  20
BRANCH   5  22
ATOM     22  N   LIG    1       26.504 -27.930   8.191  0.00  0.00    -0.281 N 
ATOM     23  H   LIG    1       27.122 -27.322   8.713  0.00  0.00    +0.155 HD
BRANCH  22  24
ATOM     24  C   LIG    1       26.023 -27.221   7.088  0.00  0.00    +0.220 A 
ATOM     25  N   LIG    1       25.737 -25.924   7.248  0.00  0.00    -0.214 NA
ATOM     26  C   LIG    1       25.211 -25.275   6.179  0.00  0.00    +0.078 A 
ATOM     27  C   LIG    1       24.943 -25.887   4.970  0.00  0.00    +0.048 A 
ATOM     28  C   LIG    1       25.285 -27.195   4.896  0.00  0.00    +0.116 A 
ATOM     29  N   LIG    1       25.814 -27.837   5.927  0.00  0.00    -0.223 NA
BRANCH  26  30
ATOM     30  C   LIG    1       24.925 -23.856   6.350  0.00  0.00    +0.026 C 
ATOM     31  C   LIG    1       25.736 -22.819   6.911  0.00  0.00    +0.009 C 
ATOM     32  C   LIG    1       24.998 -21.631   6.852  0.00  0.00    +0.050 C 
ATOM     33  C   LIG    1       25.494 -20.416   7.349  0.00  0.00    +0.026 C 
ATOM     34  C   LIG    1       26.773 -20.411   7.913  0.00  0.00    +0.002 C 
ATOM     35  C   LIG    1       27.535 -21.573   7.968  0.00  0.00    +0.001 C 
ATOM     36  N   LIG    1       23.793 -21.935   6.259  0.00  0.00    -0.349 NA
ATOM     37  C   LIG    1       22.729 -20.992   5.998  0.00  0.00    +0.149 C 
ATOM     38  C   LIG    1       27.031 -22.778   7.469  0.00  0.00    +0.010 C 
ATOM     39  C   LIG    1       23.729 -23.271   5.973  0.00  0.00    +0.096 C 
ENDBRANCH  26  30
ENDBRANCH  22  24
ENDBRANCH   5  22
TORSDOF 10
ENDMDL
