MODEL 1
REMARK VINA RESULT:      -6.0      0.000      0.000
REMARK  Name = *****
REMARK                            x       y       z     vdW  Elec       q    Type
REMARK                         _______ _______ _______ _____ _____    ______ ____
ROOT
ATOM      1  N   LIG    1       25.548 -19.371   3.622  0.00  0.00    -0.119 NA
ATOM      2  C   LIG    1       25.404 -18.106   3.334  0.00  0.00    +0.158 C 
ENDROOT
BRANCH   2   3
ATOM      3  C   LIG    1       26.320 -17.016   3.645  0.00  0.00    +0.021 C 
ATOM      4  C   LIG    1       26.128 -15.603   3.422  0.00  0.00    +0.012 C 
ATOM      5  C   LIG    1       27.339 -14.978   3.729  0.00  0.00    +0.047 C 
ATOM      6  C   LIG    1       27.566 -13.615   3.557  0.00  0.00    +0.030 C 
ATOM      7  C   LIG    1       26.526 -12.851   3.043  0.00  0.00    +0.048 C 
ATOM      8  C   LIG    1       25.277 -13.406   2.768  0.00  0.00    +0.121 C 
ATOM      9  N   LIG    1       28.196 -15.935   4.203  0.00  0.00    -0.360 NA
ATOM     10  H   LIG    1       29.136 -15.753   4.526  0.00  0.00    +0.165 HD
ATOM     11  C   LIG    1       25.057 -14.781   2.980  0.00  0.00    +0.056 C 
ATOM     12  C   LIG    1       27.613 -17.164   4.118  0.00  0.00    +0.093 C 
BRANCH   8  13
ATOM     13  O   LIG    1       24.216 -12.673   2.284  0.00  0.00    -0.495 OA
ATOM     14  C   LIG    1       23.865 -11.533   3.076  0.00  0.00    +0.277 C 
ENDBRANCH   8  13
ENDBRANCH   2   3
BRANCH   1  15
ATOM     15  N   LIG    1       26.584 -19.743   4.436  0.00  0.00    -0.155 N 
ATOM     16  H   LIG    1       27.442 -19.195   4.421  0.00  0.00    +0.292 HD
BRANCH  15  17
ATOM     17  C   LIG    1       26.456 -20.365   5.655  0.00  0.00    +0.402 C 
ATOM     18  N   LIG    1       27.304 -20.163   6.583  0.00  0.00    -0.128 NA
ATOM     19  H   LIG    1       27.042 -20.743   7.384  0.00  0.00    +0.306 HD
BRANCH  17  20
ATOM     20  N   LIG    1       25.369 -21.184   5.722  0.00  0.00    -0.274 N 
ATOM     21  H   LIG    1       25.030 -21.359   4.781  0.00  0.00    +0.258 HD
BRANCH  20  22
ATOM     22  C   LIG    1       24.299 -21.031   6.693  0.00  0.00    +0.196 C 
BRANCH  22  23
ATOM     23  C   LIG    1       22.980 -21.572   6.137  0.00  0.00    +0.037 C 
BRANCH  23  24
ATOM     24  C   LIG    1       22.453 -20.709   4.988  0.00  0.00    +0.003 C 
BRANCH  24  26
ATOM     25  C   LIG    1       21.843 -18.394   4.214  0.00  0.00    +0.004 C 
ATOM     26  C   LIG    1       22.490 -19.216   5.321  0.00  0.00    -0.003 C 
ENDBRANCH  24  26
ENDBRANCH  23  24
ENDBRANCH  22  23
ENDBRANCH  20  22
ENDBRANCH  17  20
ENDBRANCH  15  17
ENDBRANCH   1  15
TORSDOF 9
ENDMDL
MODEL 2
REMARK VINA RESULT:      -5.8      1.789      3.375
REMARK  Name = *****
REMARK                            x       y       z     vdW  Elec       q    Type
REMARK                         _______ _______ _______ _____ _____    ______ ____
ROOT
ATOM      1  N   LIG    1       22.348 -19.155   4.645  0.00  0.00    -0.119 NA
ATOM      2  C   LIG    1       22.781 -18.229   3.834  0.00  0.00    +0.158 C 
ENDROOT
BRANCH   2   3
ATOM      3  C   LIG    1       24.143 -17.724   3.712  0.00  0.00    +0.021 C 
ATOM      4  C   LIG    1       24.599 -16.360   3.833  0.00  0.00    +0.012 C 
ATOM      5  C   LIG    1       25.950 -16.353   3.475  0.00  0.00    +0.047 C 
ATOM      6  C   LIG    1       26.718 -15.195   3.392  0.00  0.00    +0.030 C 
ATOM      7  C   LIG    1       26.090 -13.988   3.672  0.00  0.00    +0.048 C 
ATOM      8  C   LIG    1       24.759 -13.933   4.085  0.00  0.00    +0.121 C 
ATOM      9  N   LIG    1       26.328 -17.649   3.242  0.00  0.00    -0.360 NA
ATOM     10  H   LIG    1       27.264 -17.937   2.993  0.00  0.00    +0.165 HD
ATOM     11  C   LIG    1       24.009 -15.121   4.196  0.00  0.00    +0.056 C 
ATOM     12  C   LIG    1       25.247 -18.473   3.338  0.00  0.00    +0.093 C 
BRANCH   8  13
ATOM     13  O   LIG    1       24.114 -12.757   4.397  0.00  0.00    -0.495 OA
ATOM     14  C   LIG    1       23.876 -11.891   3.282  0.00  0.00    +0.277 C 
ENDBRANCH   8  13
ENDBRANCH   2   3
BRANCH   1  15
ATOM     15  N   LIG    1       23.195 -19.630   5.610  0.00  0.00    -0.155 N 
ATOM     16  H   LIG    1       23.060 -19.328   6.573  0.00  0.00    +0.292 HD
BRANCH  15  17
ATOM     17  C   LIG    1       23.814 -20.857   5.594  0.00  0.00    +0.402 C 
ATOM     18  N   LIG    1       23.852 -21.555   4.530  0.00  0.00    -0.128 NA
ATOM     19  H   LIG    1       24.326 -22.436   4.746  0.00  0.00    +0.306 HD
BRANCH  17  20
ATOM     20  N   LIG    1       24.338 -21.202   6.803  0.00  0.00    -0.274 N 
ATOM     21  H   LIG    1       23.985 -20.565   7.510  0.00  0.00    +0.258 HD
BRANCH  20  22
ATOM     22  C   LIG    1       25.730 -21.562   7.009  0.00  0.00    +0.196 C 
BRANCH  22  23
ATOM     23  C   LIG    1       26.648 -20.373   6.717  0.00  0.00    +0.037 C 
BRANCH  23  24
ATOM     24  C   LIG    1       28.122 -20.786   6.700  0.00  0.00    +0.003 C 
BRANCH  24  26
ATOM     25  C   LIG    1       28.883 -18.703   5.511  0.00  0.00    +0.004 C 
ATOM     26  C   LIG    1       29.061 -19.579   6.744  0.00  0.00    -0.003 C 
ENDBRANCH  24  26
ENDBRANCH  23  24
ENDBRANCH  22  23
ENDBRANCH  20  22
ENDBRANCH  17  20
ENDBRANCH  15  17
ENDBRANCH   1  15
TORSDOF 9
ENDMDL
MODEL 3
REMARK VINA RESULT:      -5.3      2.584      6.781
REMARK  Name = *****
REMARK                            x       y       z     vdW  Elec       q    Type
REMARK                         _______ _______ _______ _____ _____    ______ ____
ROOT
ATOM      1  N   LIG    1       26.112 -16.794   2.940  0.00  0.00    -0.119 NA
ATOM      2  C   LIG    1       25.888 -18.069   3.110  0.00  0.00    +0.158 C 
ENDROOT
BRANCH   2   3
ATOM      3  C   LIG    1       26.376 -18.918   4.188  0.00  0.00    +0.021 C 
ATOM      4  C   LIG    1       25.623 -19.843   5.001  0.00  0.00    +0.012 C 
ATOM      5  C   LIG    1       26.488 -20.298   6.001  0.00  0.00    +0.047 C 
ATOM      6  C   LIG    1       26.093 -21.149   7.030  0.00  0.00    +0.030 C 
ATOM      7  C   LIG    1       24.763 -21.548   7.058  0.00  0.00    +0.048 C 
ATOM      8  C   LIG    1       23.864 -21.171   6.061  0.00  0.00    +0.121 C 
ATOM      9  N   LIG    1       27.725 -19.761   5.760  0.00  0.00    -0.360 NA
ATOM     10  H   LIG    1       28.548 -19.949   6.316  0.00  0.00    +0.165 HD
ATOM     11  C   LIG    1       24.292 -20.337   5.008  0.00  0.00    +0.056 C 
ATOM     12  C   LIG    1       27.661 -18.902   4.705  0.00  0.00    +0.093 C 
BRANCH   8  13
ATOM     13  O   LIG    1       22.547 -21.571   6.042  0.00  0.00    -0.495 OA
ATOM     14  C   LIG    1       21.797 -21.111   4.913  0.00  0.00    +0.277 C 
ENDBRANCH   8  13
ENDBRANCH   2   3
BRANCH   1  15
ATOM     15  N   LIG    1       27.023 -16.175   3.754  0.00  0.00    -0.155 N 
ATOM     16  H   LIG    1       27.749 -16.737   4.195  0.00  0.00    +0.292 HD
BRANCH  15  17
ATOM     17  C   LIG    1       27.462 -14.879   3.619  0.00  0.00    +0.402 C 
ATOM     18  N   LIG    1       28.239 -14.360   4.483  0.00  0.00    -0.128 NA
ATOM     19  H   LIG    1       28.413 -13.390   4.210  0.00  0.00    +0.306 HD
BRANCH  17  20
ATOM     20  N   LIG    1       26.970 -14.266   2.507  0.00  0.00    -0.274 N 
ATOM     21  H   LIG    1       27.639 -14.365   1.751  0.00  0.00    +0.258 HD
BRANCH  20  22
ATOM     22  C   LIG    1       26.317 -12.968   2.521  0.00  0.00    +0.196 C 
BRANCH  22  23
ATOM     23  C   LIG    1       24.898 -13.067   1.957  0.00  0.00    +0.037 C 
BRANCH  23  24
ATOM     24  C   LIG    1       23.848 -12.649   2.990  0.00  0.00    +0.003 C 
BRANCH  24  26
ATOM     25  C   LIG    1       23.632 -14.737   4.377  0.00  0.00    +0.004 C 
ATOM     26  C   LIG    1       24.096 -13.287   4.358  0.00  0.00    -0.003 C 
ENDBRANCH  24  26
ENDBRANCH  23  24
ENDBRANCH  22  23
ENDBRANCH  20  22
ENDBRANCH  17  20
ENDBRANCH  15  17
ENDBRANCH   1  15
TORSDOF 9
ENDMDL
MODEL 4
REMARK VINA RESULT:      -4.8      1.649      2.985
REMARK  Name = *****
REMARK                            x       y       z     vdW  Elec       q    Type
REMARK                         _______ _______ _______ _____ _____    ______ ____
ROOT
ATOM      1  N   LIG    1       27.613 -17.435   4.213  0.00  0.00    -0.119 NA
ATOM      2  C   LIG    1       27.989 -16.186   4.275  0.00  0.00    +0.158 C 
ENDROOT
BRANCH   2   3
ATOM      3  C   LIG    1       27.309 -15.028   3.710  0.00  0.00    +0.021 C 
ATOM      4  C   LIG    1       25.913 -14.678   3.817  0.00  0.00    +0.012 C 
ATOM      5  C   LIG    1       25.707 -13.579   2.979  0.00  0.00    +0.047 C 
ATOM      6  C   LIG    1       24.458 -13.005   2.756  0.00  0.00    +0.030 C 
ATOM      7  C   LIG    1       23.366 -13.575   3.400  0.00  0.00    +0.048 C 
ATOM      8  C   LIG    1       23.514 -14.638   4.289  0.00  0.00    +0.121 C 
ATOM      9  N   LIG    1       26.921 -13.214   2.462  0.00  0.00    -0.360 NA
ATOM     10  H   LIG    1       27.067 -12.428   1.843  0.00  0.00    +0.165 HD
ATOM     11  C   LIG    1       24.791 -15.183   4.528  0.00  0.00    +0.056 C 
ATOM     12  C   LIG    1       27.880 -14.097   2.857  0.00  0.00    +0.093 C 
BRANCH   8  13
ATOM     13  O   LIG    1       22.458 -15.208   4.965  0.00  0.00    -0.495 OA
ATOM     14  C   LIG    1       22.277 -16.607   4.722  0.00  0.00    +0.277 C 
ENDBRANCH   8  13
ENDBRANCH   2   3
BRANCH   1  15
ATOM     15  N   LIG    1       26.551 -17.761   3.414  0.00  0.00    -0.155 N 
ATOM     16  H   LIG    1       26.612 -17.573   2.414  0.00  0.00    +0.292 HD
BRANCH  15  17
ATOM     17  C   LIG    1       25.675 -18.797   3.635  0.00  0.00    +0.402 C 
ATOM     18  N   LIG    1       24.435 -18.669   3.375  0.00  0.00    -0.128 NA
ATOM     19  H   LIG    1       23.965 -19.538   3.642  0.00  0.00    +0.306 HD
BRANCH  17  20
ATOM     20  N   LIG    1       26.281 -19.903   4.147  0.00  0.00    -0.274 N 
ATOM     21  H   LIG    1       26.133 -20.684   3.516  0.00  0.00    +0.258 HD
BRANCH  20  22
ATOM     22  C   LIG    1       26.215 -20.286   5.548  0.00  0.00    +0.196 C 
BRANCH  22  23
ATOM     23  C   LIG    1       25.112 -21.320   5.778  0.00  0.00    +0.037 C 
BRANCH  23  24
ATOM     24  C   LIG    1       24.104 -20.849   6.829  0.00  0.00    +0.003 C 
BRANCH  24  26
ATOM     25  C   LIG    1       22.330 -20.961   5.048  0.00  0.00    +0.004 C 
ATOM     26  C   LIG    1       22.899 -20.145   6.200  0.00  0.00    -0.003 C 
ENDBRANCH  24  26
ENDBRANCH  23  24
ENDBRANCH  22  23
ENDBRANCH  20  22
ENDBRANCH  17  20
ENDBRANCH  15  17
ENDBRANCH   1  15
TORSDOF 9
ENDMDL
MODEL 5
REMARK VINA RESULT:      -4.2      2.629      6.760
REMARK  Name = *****
REMARK                            x       y       z     vdW  Elec       q    Type
REMARK                         _______ _______ _______ _____ _____    ______ ____
ROOT
ATOM      1  N   LIG    1       25.729 -16.946   3.070  0.00  0.00    -0.119 NA
ATOM      2  C   LIG    1       26.390 -18.061   3.223  0.00  0.00    +0.158 C 
ENDROOT
BRANCH   2   3
ATOM      3  C   LIG    1       26.133 -19.117   4.193  0.00  0.00    +0.021 C 
ATOM      4  C   LIG    1       24.862 -19.688   4.570  0.00  0.00    +0.012 C 
ATOM      5  C   LIG    1       25.107 -20.545   5.646  0.00  0.00    +0.047 C 
ATOM      6  C   LIG    1       24.103 -21.219   6.337  0.00  0.00    +0.030 C 
ATOM      7  C   LIG    1       22.792 -21.010   5.928  0.00  0.00    +0.048 C 
ATOM      8  C   LIG    1       22.487 -20.209   4.828  0.00  0.00    +0.121 C 
ATOM      9  N   LIG    1       26.460 -20.574   5.858  0.00  0.00    -0.360 NA
ATOM     10  H   LIG    1       26.917 -21.138   6.561  0.00  0.00    +0.165 HD
ATOM     11  C   LIG    1       23.520 -19.562   4.121  0.00  0.00    +0.056 C 
ATOM     12  C   LIG    1       27.080 -19.693   5.024  0.00  0.00    +0.093 C 
BRANCH   8  13
ATOM     13  O   LIG    1       21.202 -20.003   4.380  0.00  0.00    -0.495 OA
ATOM     14  C   LIG    1       20.985 -18.738   3.744  0.00  0.00    +0.277 C 
ENDBRANCH   8  13
ENDBRANCH   2   3
BRANCH   1  15
ATOM     15  N   LIG    1       24.776 -16.618   3.996  0.00  0.00    -0.155 N 
ATOM     16  H   LIG    1       24.824 -17.040   4.922  0.00  0.00    +0.292 HD
BRANCH  15  17
ATOM     17  C   LIG    1       24.122 -15.410   4.075  0.00  0.00    +0.402 C 
ATOM     18  N   LIG    1       22.952 -15.333   4.569  0.00  0.00    -0.128 NA
ATOM     19  H   LIG    1       22.643 -14.360   4.501  0.00  0.00    +0.306 HD
BRANCH  17  20
ATOM     20  N   LIG    1       24.854 -14.378   3.570  0.00  0.00    -0.274 N 
ATOM     21  H   LIG    1       25.594 -14.752   2.985  0.00  0.00    +0.258 HD
BRANCH  20  22
ATOM     22  C   LIG    1       25.274 -13.227   4.351  0.00  0.00    +0.196 C 
BRANCH  22  23
ATOM     23  C   LIG    1       26.499 -13.567   5.203  0.00  0.00    +0.037 C 
BRANCH  23  24
ATOM     24  C   LIG    1       27.589 -14.256   4.378  0.00  0.00    +0.003 C 
BRANCH  24  26
ATOM     25  C   LIG    1       28.982 -12.166   4.531  0.00  0.00    +0.004 C 
ATOM     26  C   LIG    1       28.452 -13.254   3.607  0.00  0.00    -0.003 C 
ENDBRANCH  24  26
ENDBRANCH  23  24
ENDBRANCH  22  23
ENDBRANCH  20  22
ENDBRANCH  17  20
ENDBRANCH  15  17
ENDBRANCH   1  15
TORSDOF 9
ENDMDL
MODEL 6
REMARK VINA RESULT:      -3.8      2.127      6.336
REMARK  Name = *****
REMARK                            x       y       z     vdW  Elec       q    Type
REMARK                         _______ _______ _______ _____ _____    ______ ____
ROOT
ATOM      1  N   LIG    1       29.103 -17.665   4.755  0.00  0.00    -0.119 NA
ATOM      2  C   LIG    1       29.331 -18.722   5.485  0.00  0.00    +0.158 C 
ENDROOT
BRANCH   2   3
ATOM      3  C   LIG    1       28.374 -19.745   5.886  0.00  0.00    +0.021 C 
ATOM      4  C   LIG    1       27.032 -19.948   5.394  0.00  0.00    +0.012 C 
ATOM      5  C   LIG    1       26.455 -20.939   6.192  0.00  0.00    +0.047 C 
ATOM      6  C   LIG    1       25.130 -21.350   6.069  0.00  0.00    +0.030 C 
ATOM      7  C   LIG    1       24.350 -20.724   5.105  0.00  0.00    +0.048 C 
ATOM      8  C   LIG    1       24.882 -19.766   4.243  0.00  0.00    +0.121 C 
ATOM      9  N   LIG    1       27.414 -21.388   7.061  0.00  0.00    -0.360 NA
ATOM     10  H   LIG    1       27.274 -22.128   7.735  0.00  0.00    +0.165 HD
ATOM     11  C   LIG    1       26.235 -19.388   4.361  0.00  0.00    +0.056 C 
ATOM     12  C   LIG    1       28.552 -20.653   6.917  0.00  0.00    +0.093 C 
BRANCH   8  13
ATOM     13  O   LIG    1       24.145 -19.146   3.259  0.00  0.00    -0.495 OA
ATOM     14  C   LIG    1       23.039 -18.373   3.736  0.00  0.00    +0.277 C 
ENDBRANCH   8  13
ENDBRANCH   2   3
BRANCH   1  15
ATOM     15  N   LIG    1       27.809 -17.358   4.432  0.00  0.00    -0.155 N 
ATOM     16  H   LIG    1       27.055 -17.874   4.882  0.00  0.00    +0.292 HD
BRANCH  15  17
ATOM     17  C   LIG    1       27.354 -16.118   4.049  0.00  0.00    +0.402 C 
ATOM     18  N   LIG    1       28.020 -15.067   4.319  0.00  0.00    -0.128 NA
ATOM     19  H   LIG    1       27.491 -14.261   3.977  0.00  0.00    +0.306 HD
BRANCH  17  20
ATOM     20  N   LIG    1       26.162 -16.170   3.393  0.00  0.00    -0.274 N 
ATOM     21  H   LIG    1       26.324 -16.467   2.436  0.00  0.00    +0.258 HD
BRANCH  20  22
ATOM     22  C   LIG    1       25.132 -15.152   3.504  0.00  0.00    +0.196 C 
BRANCH  22  23
ATOM     23  C   LIG    1       25.097 -14.275   2.251  0.00  0.00    +0.037 C 
BRANCH  23  24
ATOM     24  C   LIG    1       25.658 -12.877   2.522  0.00  0.00    +0.003 C 
BRANCH  24  26
ATOM     25  C   LIG    1       23.754 -11.768   3.736  0.00  0.00    +0.004 C 
ATOM     26  C   LIG    1       24.576 -11.796   2.455  0.00  0.00    -0.003 C 
ENDBRANCH  24  26
ENDBRANCH  23  24
ENDBRANCH  22  23
ENDBRANCH  20  22
ENDBRANCH  17  20
ENDBRANCH  15  17
ENDBRANCH   1  15
TORSDOF 9
ENDMDL
MODEL 7
REMARK VINA RESULT:      -3.7      1.943      3.620
REMARK  Name = *****
REMARK                            x       y       z     vdW  Elec       q    Type
REMARK                         _______ _______ _______ _____ _____    ______ ____
ROOT
ATOM      1  N   LIG    1       27.252 -17.625   4.060  0.00  0.00    -0.119 NA
ATOM      2  C   LIG    1       27.752 -16.421   4.119  0.00  0.00    +0.158 C 
ENDROOT
BRANCH   2   3
ATOM      3  C   LIG    1       27.187 -15.199   3.562  0.00  0.00    +0.021 C 
ATOM      4  C   LIG    1       25.838 -14.702   3.696  0.00  0.00    +0.012 C 
ATOM      5  C   LIG    1       25.732 -13.590   2.855  0.00  0.00    +0.047 C 
ATOM      6  C   LIG    1       24.546 -12.889   2.655  0.00  0.00    +0.030 C 
ATOM      7  C   LIG    1       23.414 -13.337   3.324  0.00  0.00    +0.048 C 
ATOM      8  C   LIG    1       23.467 -14.407   4.216  0.00  0.00    +0.121 C 
ATOM      9  N   LIG    1       26.967 -13.358   2.311  0.00  0.00    -0.360 NA
ATOM     10  H   LIG    1       27.182 -12.594   1.685  0.00  0.00    +0.165 HD
ATOM     11  C   LIG    1       24.684 -15.083   4.432  0.00  0.00    +0.056 C 
ATOM     12  C   LIG    1       27.834 -14.337   2.692  0.00  0.00    +0.093 C 
BRANCH   8  13
ATOM     13  O   LIG    1       22.371 -14.859   4.916  0.00  0.00    -0.495 OA
ATOM     14  C   LIG    1       22.257 -16.284   4.995  0.00  0.00    +0.277 C 
ENDBRANCH   8  13
ENDBRANCH   2   3
BRANCH   1  15
ATOM     15  N   LIG    1       26.155 -17.841   3.270  0.00  0.00    -0.155 N 
ATOM     16  H   LIG    1       26.218 -17.635   2.275  0.00  0.00    +0.292 HD
BRANCH  15  17
ATOM     17  C   LIG    1       25.197 -18.805   3.481  0.00  0.00    +0.402 C 
ATOM     18  N   LIG    1       23.963 -18.498   3.534  0.00  0.00    -0.128 NA
ATOM     19  H   LIG    1       23.432 -19.351   3.729  0.00  0.00    +0.306 HD
BRANCH  17  20
ATOM     20  N   LIG    1       25.724 -20.052   3.627  0.00  0.00    -0.274 N 
ATOM     21  H   LIG    1       25.798 -20.489   2.714  0.00  0.00    +0.258 HD
BRANCH  20  22
ATOM     22  C   LIG    1       25.325 -20.982   4.670  0.00  0.00    +0.196 C 
BRANCH  22  23
ATOM     23  C   LIG    1       25.721 -20.453   6.050  0.00  0.00    +0.037 C 
BRANCH  23  24
ATOM     24  C   LIG    1       26.847 -21.283   6.673  0.00  0.00    +0.003 C 
BRANCH  24  26
ATOM     25  C   LIG    1       28.794 -19.933   5.825  0.00  0.00    +0.004 C 
ATOM     26  C   LIG    1       28.052 -20.423   7.061  0.00  0.00    -0.003 C 
ENDBRANCH  24  26
ENDBRANCH  23  24
ENDBRANCH  22  23
ENDBRANCH  20  22
ENDBRANCH  17  20
ENDBRANCH  15  17
ENDBRANCH   1  15
TORSDOF 9
ENDMDL
MODEL 8
REMARK VINA RESULT:      -3.7      2.452      4.013
REMARK  Name = *****
REMARK                            x       y       z     vdW  Elec       q    Type
REMARK                         _______ _______ _______ _____ _____    ______ ____
ROOT
ATOM      1  N   LIG    1       22.387 -16.507   4.944  0.00  0.00    -0.119 NA
ATOM      2  C   LIG    1       22.764 -15.258   4.998  0.00  0.00    +0.158 C 
ENDROOT
BRANCH   2   3
ATOM      3  C   LIG    1       23.560 -14.530   4.019  0.00  0.00    +0.021 C 
ATOM      4  C   LIG    1       24.976 -14.642   3.765  0.00  0.00    +0.012 C 
ATOM      5  C   LIG    1       25.305 -13.632   2.856  0.00  0.00    +0.047 C 
ATOM      6  C   LIG    1       26.605 -13.373   2.432  0.00  0.00    +0.030 C 
ATOM      7  C   LIG    1       27.621 -14.162   2.958  0.00  0.00    +0.048 C 
ATOM      8  C   LIG    1       27.352 -15.218   3.827  0.00  0.00    +0.121 C 
ATOM      9  N   LIG    1       24.145 -12.998   2.498  0.00  0.00    -0.360 NA
ATOM     10  H   LIG    1       24.089 -12.243   1.829  0.00  0.00    +0.165 HD
ATOM     11  C   LIG    1       26.025 -15.486   4.218  0.00  0.00    +0.056 C 
ATOM     12  C   LIG    1       23.101 -13.497   3.218  0.00  0.00    +0.093 C 
BRANCH   8  13
ATOM     13  O   LIG    1       28.331 -16.037   4.345  0.00  0.00    -0.495 OA
ATOM     14  C   LIG    1       27.986 -17.425   4.394  0.00  0.00    +0.277 C 
ENDBRANCH   8  13
ENDBRANCH   2   3
BRANCH   1  15
ATOM     15  N   LIG    1       22.895 -17.302   3.953  0.00  0.00    -0.155 N 
ATOM     16  H   LIG    1       23.480 -16.879   3.235  0.00  0.00    +0.292 HD
BRANCH  15  17
ATOM     17  C   LIG    1       23.216 -18.633   4.084  0.00  0.00    +0.402 C 
ATOM     18  N   LIG    1       24.100 -19.167   3.340  0.00  0.00    -0.128 NA
ATOM     19  H   LIG    1       24.158 -20.160   3.580  0.00  0.00    +0.306 HD
BRANCH  17  20
ATOM     20  N   LIG    1       22.493 -19.259   5.053  0.00  0.00    -0.274 N 
ATOM     21  H   LIG    1       22.338 -18.613   5.820  0.00  0.00    +0.258 HD
BRANCH  20  22
ATOM     22  C   LIG    1       22.745 -20.619   5.499  0.00  0.00    +0.196 C 
BRANCH  22  23
ATOM     23  C   LIG    1       23.266 -20.632   6.937  0.00  0.00    +0.037 C 
BRANCH  23  24
ATOM     24  C   LIG    1       24.575 -21.417   7.058  0.00  0.00    +0.003 C 
BRANCH  24  26
ATOM     25  C   LIG    1       26.451 -20.459   5.683  0.00  0.00    +0.004 C 
ATOM     26  C   LIG    1       25.801 -20.501   7.059  0.00  0.00    -0.003 C 
ENDBRANCH  24  26
ENDBRANCH  23  24
ENDBRANCH  22  23
ENDBRANCH  20  22
ENDBRANCH  17  20
ENDBRANCH  15  17
ENDBRANCH   1  15
TORSDOF 9
ENDMDL
MODEL 9
REMARK VINA RESULT:      -3.4      2.769      4.671
REMARK  Name = *****
REMARK                            x       y       z     vdW  Elec       q    Type
REMARK                         _______ _______ _______ _____ _____    ______ ____
ROOT
ATOM      1  N   LIG    1       23.477 -13.992   3.452  0.00  0.00    -0.119 NA
ATOM      2  C   LIG    1       24.622 -13.768   2.868  0.00  0.00    +0.158 C 
ENDROOT
BRANCH   2   3
ATOM      3  C   LIG    1       25.930 -14.279   3.258  0.00  0.00    +0.021 C 
ATOM      4  C   LIG    1       26.320 -15.653   3.467  0.00  0.00    +0.012 C 
ATOM      5  C   LIG    1       27.618 -15.630   3.986  0.00  0.00    +0.047 C 
ATOM      6  C   LIG    1       28.304 -16.771   4.393  0.00  0.00    +0.030 C 
ATOM      7  C   LIG    1       27.646 -17.989   4.281  0.00  0.00    +0.048 C 
ATOM      8  C   LIG    1       26.372 -18.085   3.722  0.00  0.00    +0.121 C 
ATOM      9  N   LIG    1       28.037 -14.326   4.004  0.00  0.00    -0.360 NA
ATOM     10  H   LIG    1       28.953 -14.024   4.307  0.00  0.00    +0.165 HD
ATOM     11  C   LIG    1       25.707 -16.921   3.285  0.00  0.00    +0.056 C 
ATOM     12  C   LIG    1       27.023 -13.505   3.612  0.00  0.00    +0.093 C 
BRANCH   8  13
ATOM     13  O   LIG    1       25.703 -19.278   3.571  0.00  0.00    -0.495 OA
ATOM     14  C   LIG    1       25.922 -20.225   4.622  0.00  0.00    +0.277 C 
ENDBRANCH   8  13
ENDBRANCH   2   3
BRANCH   1  15
ATOM     15  N   LIG    1       23.470 -14.650   4.652  0.00  0.00    -0.155 N 
ATOM     16  H   LIG    1       23.749 -14.145   5.491  0.00  0.00    +0.292 HD
BRANCH  15  17
ATOM     17  C   LIG    1       22.623 -15.678   4.993  0.00  0.00    +0.402 C 
ATOM     18  N   LIG    1       21.802 -15.553   5.959  0.00  0.00    -0.128 NA
ATOM     19  H   LIG    1       21.297 -16.437   6.061  0.00  0.00    +0.306 HD
BRANCH  17  20
ATOM     20  N   LIG    1       22.784 -16.780   4.210  0.00  0.00    -0.274 N 
ATOM     21  H   LIG    1       22.944 -16.485   3.253  0.00  0.00    +0.258 HD
BRANCH  20  22
ATOM     22  C   LIG    1       21.954 -17.969   4.306  0.00  0.00    +0.196 C 
BRANCH  22  23
ATOM     23  C   LIG    1       22.603 -19.012   5.218  0.00  0.00    +0.037 C 
BRANCH  23  24
ATOM     24  C   LIG    1       22.173 -20.434   4.848  0.00  0.00    +0.003 C 
BRANCH  24  26
ATOM     25  C   LIG    1       23.309 -20.804   7.062  0.00  0.00    +0.004 C 
ATOM     26  C   LIG    1       22.701 -21.475   5.838  0.00  0.00    -0.003 C 
ENDBRANCH  24  26
ENDBRANCH  23  24
ENDBRANCH  22  23
ENDBRANCH  20  22
ENDBRANCH  17  20
ENDBRANCH  15  17
ENDBRANCH   1  15
TORSDOF 9
ENDMDL
