MODEL 1
REMARK VINA RESULT:      -3.1      0.000      0.000
REMARK  Name = *****
REMARK                            x       y       z     vdW  Elec       q    Type
REMARK                         _______ _______ _______ _____ _____    ______ ____
ROOT
ATOM      1  S   LIG    1       25.367 -15.244   3.304  0.00  0.00    +0.075 S 
ATOM      2  O   LIG    1       24.290 -15.296   4.275  0.00  0.00    -0.150 OA
ATOM      3  O   LIG    1       25.103 -14.815   1.949  0.00  0.00    -0.150 OA
ENDROOT
BRANCH   1   4
ATOM      4  C   LIG    1       26.622 -14.204   4.001  0.00  0.00    +0.109 A 
ATOM      5  C   LIG    1       26.480 -13.738   5.309  0.00  0.00    +0.030 A 
ATOM      6  C   LIG    1       27.453 -12.888   5.842  0.00  0.00    +0.024 A 
ATOM      7  C   LIG    1       28.580 -12.530   5.092  0.00  0.00    +0.025 A 
ATOM      8  C   LIG    1       28.670 -12.956   3.763  0.00  0.00    +0.024 A 
ATOM      9  C   LIG    1       27.707 -13.807   3.218  0.00  0.00    +0.030 A 
BRANCH   7  10
ATOM     10  N   LIG    1       29.475 -11.573   5.584  0.00  0.00    -0.358 N 
ATOM     11  H   LIG    1       30.443 -11.752   5.337  0.00  0.00    +0.142 HD
ATOM     12  H   LIG    1       29.199 -10.616   5.390  0.00  0.00    +0.142 HD
ENDBRANCH   7  10
ENDBRANCH   1   4
BRANCH   1  13
ATOM     13  N   LIG    1       26.057 -16.767   3.299  0.00  0.00    -0.184 N 
ATOM     14  H   LIG    1       26.887 -16.762   3.883  0.00  0.00    +0.177 HD
BRANCH  13  18
ATOM     15  C   LIG    1       25.589 -21.192   4.866  0.00  0.00    +0.066 C 
ATOM     16  C   LIG    1       24.956 -19.905   4.430  0.00  0.00    +0.044 A 
ATOM     17  N   LIG    1       25.780 -18.920   4.029  0.00  0.00    -0.218 NA
ATOM     18  C   LIG    1       25.184 -17.776   3.691  0.00  0.00    +0.235 A 
ATOM     19  N   LIG    1       23.876 -17.516   3.670  0.00  0.00    -0.218 NA
ATOM     20  C   LIG    1       23.076 -18.538   4.036  0.00  0.00    +0.044 A 
ATOM     21  C   LIG    1       21.595 -18.331   3.931  0.00  0.00    +0.066 C 
ATOM     22  C   LIG    1       23.579 -19.763   4.438  0.00  0.00    +0.046 A 
ENDBRANCH  13  18
ENDBRANCH   1  13
TORSDOF 4
ENDMDL
MODEL 2
REMARK VINA RESULT:      -3.0      0.117      1.957
REMARK  Name = *****
REMARK                            x       y       z     vdW  Elec       q    Type
REMARK                         _______ _______ _______ _____ _____    ______ ____
ROOT
ATOM      1  S   LIG    1       25.412 -15.304   3.241  0.00  0.00    +0.075 S 
ATOM      2  O   LIG    1       24.337 -15.412   4.210  0.00  0.00    -0.150 OA
ATOM      3  O   LIG    1       25.136 -14.846   1.897  0.00  0.00    -0.150 OA
ENDROOT
BRANCH   1   4
ATOM      4  C   LIG    1       26.638 -14.249   3.965  0.00  0.00    +0.109 A 
ATOM      5  C   LIG    1       26.450 -13.765   5.261  0.00  0.00    +0.030 A 
ATOM      6  C   LIG    1       27.401 -12.904   5.814  0.00  0.00    +0.024 A 
ATOM      7  C   LIG    1       28.551 -12.551   5.099  0.00  0.00    +0.025 A 
ATOM      8  C   LIG    1       28.689 -12.995   3.780  0.00  0.00    +0.024 A 
ATOM      9  C   LIG    1       27.748 -13.858   3.214  0.00  0.00    +0.030 A 
BRANCH   7  10
ATOM     10  N   LIG    1       29.425 -11.584   5.608  0.00  0.00    -0.358 N 
ATOM     11  H   LIG    1       28.979 -10.697   5.817  0.00  0.00    +0.142 HD
ATOM     12  H   LIG    1       30.001 -11.915   6.375  0.00  0.00    +0.142 HD
ENDBRANCH   7  10
ENDBRANCH   1   4
BRANCH   1  13
ATOM     13  N   LIG    1       26.144 -16.807   3.195  0.00  0.00    -0.184 N 
ATOM     14  H   LIG    1       27.005 -16.778   3.731  0.00  0.00    +0.177 HD
BRANCH  13  18
ATOM     15  C   LIG    1       21.730 -18.297   3.942  0.00  0.00    +0.066 C 
ATOM     16  C   LIG    1       23.206 -18.553   4.008  0.00  0.00    +0.044 A 
ATOM     17  N   LIG    1       24.020 -17.560   3.605  0.00  0.00    -0.218 NA
ATOM     18  C   LIG    1       25.323 -17.840   3.634  0.00  0.00    +0.235 A 
ATOM     19  N   LIG    1       25.904 -18.966   4.052  0.00  0.00    -0.218 NA
ATOM     20  C   LIG    1       25.062 -19.923   4.490  0.00  0.00    +0.044 A 
ATOM     21  C   LIG    1       25.667 -21.169   5.066  0.00  0.00    +0.066 C 
ATOM     22  C   LIG    1       23.687 -19.762   4.478  0.00  0.00    +0.046 A 
ENDBRANCH  13  18
ENDBRANCH   1  13
TORSDOF 4
ENDMDL
MODEL 3
REMARK VINA RESULT:      -2.9      3.522      5.906
REMARK  Name = *****
REMARK                            x       y       z     vdW  Elec       q    Type
REMARK                         _______ _______ _______ _____ _____    ______ ____
ROOT
ATOM      1  S   LIG    1       23.528 -20.278   4.917  0.00  0.00    +0.075 S 
ATOM      2  O   LIG    1       23.059 -21.572   4.457  0.00  0.00    -0.150 OA
ATOM      3  O   LIG    1       22.778 -19.544   5.912  0.00  0.00    -0.150 OA
ENDROOT
BRANCH   1   4
ATOM      4  C   LIG    1       25.180 -20.522   5.510  0.00  0.00    +0.109 A 
ATOM      5  C   LIG    1       25.407 -21.402   6.570  0.00  0.00    +0.030 A 
ATOM      6  C   LIG    1       26.705 -21.564   7.060  0.00  0.00    +0.024 A 
ATOM      7  C   LIG    1       27.781 -20.882   6.478  0.00  0.00    +0.025 A 
ATOM      8  C   LIG    1       27.524 -19.958   5.460  0.00  0.00    +0.024 A 
ATOM      9  C   LIG    1       26.231 -19.788   4.959  0.00  0.00    +0.030 A 
BRANCH   7  10
ATOM     10  N   LIG    1       29.051 -20.947   7.062  0.00  0.00    -0.358 N 
ATOM     11  H   LIG    1       29.704 -20.259   6.700  0.00  0.00    +0.142 HD
ATOM     12  H   LIG    1       29.034 -20.965   8.077  0.00  0.00    +0.142 HD
ENDBRANCH   7  10
ENDBRANCH   1   4
BRANCH   1  13
ATOM     13  N   LIG    1       23.723 -19.344   3.543  0.00  0.00    -0.184 N 
ATOM     14  H   LIG    1       22.952 -19.517   2.907  0.00  0.00    +0.177 HD
BRANCH  13  18
ATOM     15  C   LIG    1       26.413 -15.485   3.174  0.00  0.00    +0.066 C 
ATOM     16  C   LIG    1       25.145 -16.133   3.643  0.00  0.00    +0.044 A 
ATOM     17  N   LIG    1       25.008 -17.452   3.416  0.00  0.00    -0.218 NA
ATOM     18  C   LIG    1       23.849 -17.984   3.807  0.00  0.00    +0.235 A 
ATOM     19  N   LIG    1       22.840 -17.370   4.427  0.00  0.00    -0.218 NA
ATOM     20  C   LIG    1       23.028 -16.059   4.679  0.00  0.00    +0.044 A 
ATOM     21  C   LIG    1       21.969 -15.346   5.464  0.00  0.00    +0.066 C 
ATOM     22  C   LIG    1       24.176 -15.388   4.292  0.00  0.00    +0.046 A 
ENDBRANCH  13  18
ENDBRANCH   1  13
TORSDOF 4
ENDMDL
MODEL 4
REMARK VINA RESULT:      -2.7      2.297      6.709
REMARK  Name = *****
REMARK                            x       y       z     vdW  Elec       q    Type
REMARK                         _______ _______ _______ _____ _____    ______ ____
ROOT
ATOM      1  S   LIG    1       25.842 -18.071   3.311  0.00  0.00    +0.075 S 
ATOM      2  O   LIG    1       26.946 -17.548   4.094  0.00  0.00    -0.150 OA
ATOM      3  O   LIG    1       26.096 -18.751   2.060  0.00  0.00    -0.150 OA
ENDROOT
BRANCH   1   4
ATOM      4  C   LIG    1       24.937 -19.157   4.380  0.00  0.00    +0.109 A 
ATOM      5  C   LIG    1       23.546 -19.054   4.446  0.00  0.00    +0.030 A 
ATOM      6  C   LIG    1       22.839 -19.886   5.318  0.00  0.00    +0.024 A 
ATOM      7  C   LIG    1       23.505 -20.840   6.096  0.00  0.00    +0.025 A 
ATOM      8  C   LIG    1       24.902 -20.883   6.063  0.00  0.00    +0.024 A 
ATOM      9  C   LIG    1       25.623 -20.059   5.195  0.00  0.00    +0.030 A 
BRANCH   7  10
ATOM     10  N   LIG    1       22.804 -21.571   7.062  0.00  0.00    -0.358 N 
ATOM     11  H   LIG    1       23.129 -22.526   7.170  0.00  0.00    +0.142 HD
ATOM     12  H   LIG    1       22.715 -21.092   7.952  0.00  0.00    +0.142 HD
ENDBRANCH   7  10
ENDBRANCH   1   4
BRANCH   1  13
ATOM     13  N   LIG    1       24.803 -16.785   3.063  0.00  0.00    -0.184 N 
ATOM     14  H   LIG    1       23.918 -16.974   3.522  0.00  0.00    +0.177 HD
BRANCH  13  18
ATOM     15  C   LIG    1       23.913 -12.564   4.974  0.00  0.00    +0.066 C 
ATOM     16  C   LIG    1       24.894 -13.529   4.380  0.00  0.00    +0.044 A 
ATOM     17  N   LIG    1       24.413 -14.713   3.957  0.00  0.00    -0.218 NA
ATOM     18  C   LIG    1       25.321 -15.562   3.476  0.00  0.00    +0.235 A 
ATOM     19  N   LIG    1       26.632 -15.356   3.333  0.00  0.00    -0.218 NA
ATOM     20  C   LIG    1       27.074 -14.145   3.726  0.00  0.00    +0.044 A 
ATOM     21  C   LIG    1       28.520 -13.825   3.492  0.00  0.00    +0.066 C 
ATOM     22  C   LIG    1       26.231 -13.191   4.271  0.00  0.00    +0.046 A 
ENDBRANCH  13  18
ENDBRANCH   1  13
TORSDOF 4
ENDMDL
MODEL 5
REMARK VINA RESULT:      -2.4      2.245      6.489
REMARK  Name = *****
REMARK                            x       y       z     vdW  Elec       q    Type
REMARK                         _______ _______ _______ _____ _____    ______ ____
ROOT
ATOM      1  S   LIG    1       23.028 -15.523   4.557  0.00  0.00    +0.075 S 
ATOM      2  O   LIG    1       22.842 -14.920   3.250  0.00  0.00    -0.150 OA
ATOM      3  O   LIG    1       22.026 -15.353   5.586  0.00  0.00    -0.150 OA
ENDROOT
BRANCH   1   4
ATOM      4  C   LIG    1       23.278 -17.255   4.282  0.00  0.00    +0.109 A 
ATOM      5  C   LIG    1       22.311 -18.166   4.711  0.00  0.00    +0.030 A 
ATOM      6  C   LIG    1       22.529 -19.534   4.526  0.00  0.00    +0.024 A 
ATOM      7  C   LIG    1       23.686 -19.995   3.886  0.00  0.00    +0.025 A 
ATOM      8  C   LIG    1       24.670 -19.071   3.522  0.00  0.00    +0.024 A 
ATOM      9  C   LIG    1       24.466 -17.701   3.699  0.00  0.00    +0.030 A 
BRANCH   7  10
ATOM     10  N   LIG    1       23.956 -21.367   3.829  0.00  0.00    -0.358 N 
ATOM     11  H   LIG    1       23.658 -21.808   2.965  0.00  0.00    +0.142 HD
ATOM     12  H   LIG    1       24.912 -21.606   4.073  0.00  0.00    +0.142 HD
ENDBRANCH   7  10
ENDBRANCH   1   4
BRANCH   1  13
ATOM     13  N   LIG    1       24.511 -14.980   5.107  0.00  0.00    -0.184 N 
ATOM     14  H   LIG    1       25.101 -15.776   5.327  0.00  0.00    +0.177 HD
BRANCH  13  18
ATOM     15  C   LIG    1       28.626 -13.418   3.408  0.00  0.00    +0.066 C 
ATOM     16  C   LIG    1       27.129 -13.359   3.416  0.00  0.00    +0.044 A 
ATOM     17  N   LIG    1       26.485 -14.168   4.276  0.00  0.00    -0.218 NA
ATOM     18  C   LIG    1       25.154 -14.120   4.223  0.00  0.00    +0.235 A 
ATOM     19  N   LIG    1       24.399 -13.340   3.448  0.00  0.00    -0.218 NA
ATOM     20  C   LIG    1       25.075 -12.509   2.629  0.00  0.00    +0.044 A 
ATOM     21  C   LIG    1       24.275 -11.539   1.812  0.00  0.00    +0.066 C 
ATOM     22  C   LIG    1       26.458 -12.491   2.572  0.00  0.00    +0.046 A 
ENDBRANCH  13  18
ENDBRANCH   1  13
TORSDOF 4
ENDMDL
MODEL 6
REMARK VINA RESULT:      -2.3      2.603      3.609
REMARK  Name = *****
REMARK                            x       y       z     vdW  Elec       q    Type
REMARK                         _______ _______ _______ _____ _____    ______ ____
ROOT
ATOM      1  S   LIG    1       27.036 -15.288   3.311  0.00  0.00    +0.075 S 
ATOM      2  O   LIG    1       27.510 -14.770   2.042  0.00  0.00    -0.150 OA
ATOM      3  O   LIG    1       27.977 -15.626   4.356  0.00  0.00    -0.150 OA
ENDROOT
BRANCH   1   4
ATOM      4  C   LIG    1       25.883 -14.099   3.941  0.00  0.00    +0.109 A 
ATOM      5  C   LIG    1       26.120 -13.503   5.181  0.00  0.00    +0.030 A 
ATOM      6  C   LIG    1       25.189 -12.594   5.692  0.00  0.00    +0.024 A 
ATOM      7  C   LIG    1       24.046 -12.251   4.961  0.00  0.00    +0.025 A 
ATOM      8  C   LIG    1       23.796 -12.907   3.751  0.00  0.00    +0.024 A 
ATOM      9  C   LIG    1       24.718 -13.816   3.227  0.00  0.00    +0.030 A 
BRANCH   7  10
ATOM     10  N   LIG    1       23.058 -11.447   5.540  0.00  0.00    -0.358 N 
ATOM     11  H   LIG    1       22.355 -11.124   4.883  0.00  0.00    +0.142 HD
ATOM     12  H   LIG    1       22.647 -11.844   6.379  0.00  0.00    +0.142 HD
ENDBRANCH   7  10
ENDBRANCH   1   4
BRANCH   1  13
ATOM     13  N   LIG    1       26.089 -16.617   2.942  0.00  0.00    -0.184 N 
ATOM     14  H   LIG    1       26.154 -16.810   1.948  0.00  0.00    +0.177 HD
BRANCH  13  18
ATOM     15  C   LIG    1       24.672 -20.845   4.482  0.00  0.00    +0.066 C 
ATOM     16  C   LIG    1       25.719 -19.773   4.438  0.00  0.00    +0.044 A 
ATOM     17  N   LIG    1       25.431 -18.660   3.740  0.00  0.00    -0.218 NA
ATOM     18  C   LIG    1       26.403 -17.749   3.686  0.00  0.00    +0.235 A 
ATOM     19  N   LIG    1       27.600 -17.801   4.273  0.00  0.00    -0.218 NA
ATOM     20  C   LIG    1       27.839 -18.910   5.002  0.00  0.00    +0.044 A 
ATOM     21  C   LIG    1       29.128 -18.972   5.766  0.00  0.00    +0.066 C 
ATOM     22  C   LIG    1       26.920 -19.939   5.106  0.00  0.00    +0.046 A 
ENDBRANCH  13  18
ENDBRANCH   1  13
TORSDOF 4
ENDMDL
MODEL 7
REMARK VINA RESULT:      -2.0      2.591      3.306
REMARK  Name = *****
REMARK                            x       y       z     vdW  Elec       q    Type
REMARK                         _______ _______ _______ _____ _____    ______ ____
ROOT
ATOM      1  S   LIG    1       27.005 -15.316   3.372  0.00  0.00    +0.075 S 
ATOM      2  O   LIG    1       27.540 -14.773   2.138  0.00  0.00    -0.150 OA
ATOM      3  O   LIG    1       27.896 -15.701   4.444  0.00  0.00    -0.150 OA
ENDROOT
BRANCH   1   4
ATOM      4  C   LIG    1       25.849 -14.123   3.989  0.00  0.00    +0.109 A 
ATOM      5  C   LIG    1       26.203 -13.322   5.076  0.00  0.00    +0.030 A 
ATOM      6  C   LIG    1       25.276 -12.408   5.584  0.00  0.00    +0.024 A 
ATOM      7  C   LIG    1       24.015 -12.264   4.994  0.00  0.00    +0.025 A 
ATOM      8  C   LIG    1       23.657 -13.120   3.947  0.00  0.00    +0.024 A 
ATOM      9  C   LIG    1       24.574 -14.036   3.428  0.00  0.00    +0.030 A 
BRANCH   7  10
ATOM     10  N   LIG    1       23.049 -11.447   5.592  0.00  0.00    -0.358 N 
ATOM     11  H   LIG    1       22.336 -11.960   6.102  0.00  0.00    +0.142 HD
ATOM     12  H   LIG    1       23.439 -10.685   6.138  0.00  0.00    +0.142 HD
ENDBRANCH   7  10
ENDBRANCH   1   4
BRANCH   1  13
ATOM     13  N   LIG    1       26.050 -16.615   2.928  0.00  0.00    -0.184 N 
ATOM     14  H   LIG    1       26.166 -16.794   1.936  0.00  0.00    +0.177 HD
BRANCH  13  18
ATOM     15  C   LIG    1       29.091 -18.990   5.643  0.00  0.00    +0.066 C 
ATOM     16  C   LIG    1       27.759 -18.915   4.960  0.00  0.00    +0.044 A 
ATOM     17  N   LIG    1       27.506 -17.818   4.223  0.00  0.00    -0.218 NA
ATOM     18  C   LIG    1       26.295 -17.767   3.669  0.00  0.00    +0.235 A 
ATOM     19  N   LIG    1       25.332 -18.688   3.730  0.00  0.00    -0.218 NA
ATOM     20  C   LIG    1       25.634 -19.794   4.440  0.00  0.00    +0.044 A 
ATOM     21  C   LIG    1       24.626 -20.904   4.455  0.00  0.00    +0.066 C 
ATOM     22  C   LIG    1       26.847 -19.949   5.088  0.00  0.00    +0.046 A 
ENDBRANCH  13  18
ENDBRANCH   1  13
TORSDOF 4
ENDMDL
MODEL 8
REMARK VINA RESULT:      -1.9      2.829      3.853
REMARK  Name = *****
REMARK                            x       y       z     vdW  Elec       q    Type
REMARK                         _______ _______ _______ _____ _____    ______ ____
ROOT
ATOM      1  S   LIG    1       26.177 -17.696   3.396  0.00  0.00    +0.075 S 
ATOM      2  O   LIG    1       26.445 -17.942   1.992  0.00  0.00    -0.150 OA
ATOM      3  O   LIG    1       27.230 -17.848   4.375  0.00  0.00    -0.150 OA
ENDROOT
BRANCH   1   4
ATOM      4  C   LIG    1       25.528 -16.051   3.504  0.00  0.00    +0.109 A 
ATOM      5  C   LIG    1       24.262 -15.846   4.056  0.00  0.00    +0.030 A 
ATOM      6  C   LIG    1       23.738 -14.551   4.105  0.00  0.00    +0.024 A 
ATOM      7  C   LIG    1       24.480 -13.459   3.640  0.00  0.00    +0.025 A 
ATOM      8  C   LIG    1       25.718 -13.694   3.033  0.00  0.00    +0.024 A 
ATOM      9  C   LIG    1       26.256 -14.982   2.979  0.00  0.00    +0.030 A 
BRANCH   7  10
ATOM     10  N   LIG    1       23.893 -12.191   3.569  0.00  0.00    -0.358 N 
ATOM     11  H   LIG    1       22.904 -12.209   3.344  0.00  0.00    +0.142 HD
ATOM     12  H   LIG    1       24.095 -11.601   4.371  0.00  0.00    +0.142 HD
ENDBRANCH   7  10
ENDBRANCH   1   4
BRANCH   1  13
ATOM     13  N   LIG    1       24.879 -18.672   3.795  0.00  0.00    -0.184 N 
ATOM     14  H   LIG    1       24.570 -19.175   2.970  0.00  0.00    +0.177 HD
BRANCH  13  18
ATOM     15  C   LIG    1       23.095 -21.572   7.062  0.00  0.00    +0.066 C 
ATOM     16  C   LIG    1       24.289 -20.934   6.417  0.00  0.00    +0.044 A 
ATOM     17  N   LIG    1       24.057 -20.065   5.417  0.00  0.00    -0.218 NA
ATOM     18  C   LIG    1       25.143 -19.553   4.839  0.00  0.00    +0.235 A 
ATOM     19  N   LIG    1       26.418 -19.773   5.164  0.00  0.00    -0.218 NA
ATOM     20  C   LIG    1       26.614 -20.615   6.199  0.00  0.00    +0.044 A 
ATOM     21  C   LIG    1       28.023 -20.817   6.670  0.00  0.00    +0.066 C 
ATOM     22  C   LIG    1       25.566 -21.234   6.858  0.00  0.00    +0.046 A 
ENDBRANCH  13  18
ENDBRANCH   1  13
TORSDOF 4
ENDMDL
MODEL 9
REMARK VINA RESULT:      -1.9      2.233      6.831
REMARK  Name = *****
REMARK                            x       y       z     vdW  Elec       q    Type
REMARK                         _______ _______ _______ _____ _____    ______ ____
ROOT
ATOM      1  S   LIG    1       23.081 -15.498   4.579  0.00  0.00    +0.075 S 
ATOM      2  O   LIG    1       22.971 -14.926   3.250  0.00  0.00    -0.150 OA
ATOM      3  O   LIG    1       22.027 -15.294   5.548  0.00  0.00    -0.150 OA
ENDROOT
BRANCH   1   4
ATOM      4  C   LIG    1       23.329 -17.239   4.359  0.00  0.00    +0.109 A 
ATOM      5  C   LIG    1       24.473 -17.693   3.701  0.00  0.00    +0.030 A 
ATOM      6  C   LIG    1       24.646 -19.064   3.496  0.00  0.00    +0.024 A 
ATOM      7  C   LIG    1       23.706 -19.984   3.974  0.00  0.00    +0.025 A 
ATOM      8  C   LIG    1       22.537 -19.506   4.574  0.00  0.00    +0.024 A 
ATOM      9  C   LIG    1       22.351 -18.138   4.787  0.00  0.00    +0.030 A 
BRANCH   7  10
ATOM     10  N   LIG    1       23.821 -21.340   3.645  0.00  0.00    -0.358 N 
ATOM     11  H   LIG    1       23.501 -21.968   4.375  0.00  0.00    +0.142 HD
ATOM     12  H   LIG    1       23.433 -21.575   2.737  0.00  0.00    +0.142 HD
ENDBRANCH   7  10
ENDBRANCH   1   4
BRANCH   1  13
ATOM     13  N   LIG    1       24.538 -14.954   5.195  0.00  0.00    -0.184 N 
ATOM     14  H   LIG    1       25.110 -15.750   5.458  0.00  0.00    +0.177 HD
BRANCH  13  18
ATOM     15  C   LIG    1       24.264 -11.677   1.812  0.00  0.00    +0.066 C 
ATOM     16  C   LIG    1       25.102 -12.551   2.695  0.00  0.00    +0.044 A 
ATOM     17  N   LIG    1       24.454 -13.386   3.528  0.00  0.00    -0.218 NA
ATOM     18  C   LIG    1       25.231 -14.115   4.330  0.00  0.00    +0.235 A 
ATOM     19  N   LIG    1       26.564 -14.137   4.369  0.00  0.00    -0.218 NA
ATOM     20  C   LIG    1       27.183 -13.322   3.491  0.00  0.00    +0.044 A 
ATOM     21  C   LIG    1       28.679 -13.386   3.423  0.00  0.00    +0.066 C 
ATOM     22  C   LIG    1       26.483 -12.494   2.631  0.00  0.00    +0.046 A 
ENDBRANCH  13  18
ENDBRANCH   1  13
TORSDOF 4
ENDMDL
