MODEL 1
REMARK VINA RESULT:       2.5      0.000      0.000
REMARK  Name = *****
REMARK                            x       y       z     vdW  Elec       q    Type
REMARK                         _______ _______ _______ _____ _____    ______ ____
ROOT
ATOM      1  C   LIG    1       23.717 -19.941   4.025  0.00  0.00    +0.044 C 
ATOM      2  C   LIG    1       22.409 -20.311   4.765  0.00  0.00    +0.122 C 
ATOM      3  C   LIG    1       22.831 -20.452   6.230  0.00  0.00    +0.036 C 
ATOM      4  C   LIG    1       24.277 -20.979   6.178  0.00  0.00    -0.001 C 
ATOM      5  C   LIG    1       25.303 -20.130   6.933  0.00  0.00    +0.034 C 
ATOM      6  C   LIG    1       26.493 -20.008   6.005  0.00  0.00    -0.073 C 
ATOM      7  C   LIG    1       27.614 -19.350   6.354  0.00  0.00    -0.027 C 
ATOM      8  C   LIG    1       26.199 -20.667   4.685  0.00  0.00    +0.035 C 
ATOM      9  C   LIG    1       24.697 -20.936   4.701  0.00  0.00    +0.006 C 
ENDROOT
BRANCH   1  11
ATOM     10  C   LIG    1       23.325 -17.469   3.616  0.00  0.00    +0.000 C 
ATOM     11  C   LIG    1       24.073 -18.463   4.131  0.00  0.00    -0.022 C 
BRANCH  10  12
ATOM     12  C   LIG    1       23.677 -15.993   3.646  0.00  0.00    +0.141 C 
BRANCH  12  13
ATOM     13  C   LIG    1       22.804 -15.188   4.649  0.00  0.00    +0.030 C 
ATOM     14  C   LIG    1       23.684 -14.403   5.631  0.00  0.00    +0.011 C 
BRANCH  13  15
ATOM     15  C   LIG    1       21.838 -16.096   5.451  0.00  0.00    +0.095 C 
BRANCH  15  18
ATOM     16  C   LIG    1       19.625 -18.567   2.980  0.00  0.00    +0.106 C 
ATOM     17  C   LIG    1       20.361 -17.654   3.835  0.00  0.00    -0.106 C 
ATOM     18  C   LIG    1       21.001 -16.926   4.569  0.00  0.00    -0.102 C 
ENDBRANCH  15  18
ENDBRANCH  13  15
ENDBRANCH  12  13
BRANCH  12  19
ATOM     19  O   LIG    1       25.049 -15.875   4.017  0.00  0.00    -0.388 OA
ATOM     20  H   LIG    1       25.096 -15.376   4.849  0.00  0.00    +0.210 HD
ENDBRANCH  12  19
ENDBRANCH  10  12
ENDBRANCH   1  11
BRANCH   2  21
ATOM     21  O   LIG    1       21.929 -21.571   4.283  0.00  0.00    -0.391 OA
ATOM     22  H   LIG    1       20.963 -21.507   4.185  0.00  0.00    +0.210 HD
ENDBRANCH   2  21
BRANCH   7  23
ATOM     23  C   LIG    1       28.889 -19.188   5.559  0.00  0.00    +0.028 C 
BRANCH  23  24
ATOM     24  C   LIG    1       28.943 -17.883   4.758  0.00  0.00    +0.015 C 
BRANCH  24  25
ATOM     25  C   LIG    1       27.595 -17.499   4.128  0.00  0.00    +0.121 C 
BRANCH  25  26
ATOM     26  C   LIG    1       27.544 -16.012   3.850  0.00  0.00    +0.307 C 
ATOM     27  O   LIG    1       27.689 -15.513   2.743  0.00  0.00    -0.251 OA
BRANCH  26  28
ATOM     28  O   LIG    1       27.352 -15.307   4.998  0.00  0.00    -0.457 OA
BRANCH  28  29
ATOM     29  C   LIG    1       28.058 -14.064   5.075  0.00  0.00    +0.311 C 
BRANCH  29  30
ATOM     30  C   LIG    1       27.756 -13.137   3.886  0.00  0.00    +0.200 C 
ATOM     31  O   LIG    1       28.646 -12.738   3.137  0.00  0.00    -0.288 OA
BRANCH  30  32
ATOM     32  C   LIG    1       26.335 -12.773   3.608  0.00  0.00    +0.021 A 
ATOM     33  C   LIG    1       25.487 -12.331   4.632  0.00  0.00    +0.011 A 
ATOM     34  C   LIG    1       24.206 -11.857   4.314  0.00  0.00    +0.001 A 
ATOM     35  C   LIG    1       23.753 -11.872   2.992  0.00  0.00    +0.000 A 
ATOM     36  C   LIG    1       24.573 -12.371   1.987  0.00  0.00    +0.001 A 
ATOM     37  C   LIG    1       25.855 -12.817   2.296  0.00  0.00    +0.011 A 
ENDBRANCH  30  32
ENDBRANCH  29  30
ENDBRANCH  28  29
ENDBRANCH  26  28
ENDBRANCH  25  26
ENDBRANCH  24  25
ENDBRANCH  23  24
ENDBRANCH   7  23
TORSDOF 15
ENDMDL
MODEL 2
REMARK VINA RESULT:       2.9      1.313      2.338
REMARK  Name = *****
REMARK                            x       y       z     vdW  Elec       q    Type
REMARK                         _______ _______ _______ _____ _____    ______ ____
ROOT
ATOM      1  C   LIG    1       22.802 -19.876   4.403  0.00  0.00    +0.044 C 
ATOM      2  C   LIG    1       21.596 -20.534   5.117  0.00  0.00    +0.122 C 
ATOM      3  C   LIG    1       22.200 -21.156   6.379  0.00  0.00    +0.036 C 
ATOM      4  C   LIG    1       23.627 -21.572   5.974  0.00  0.00    -0.001 C 
ATOM      5  C   LIG    1       24.742 -20.995   6.849  0.00  0.00    +0.034 C 
ATOM      6  C   LIG    1       25.805 -20.510   5.888  0.00  0.00    -0.073 C 
ATOM      7  C   LIG    1       26.964 -19.968   6.307  0.00  0.00    -0.027 C 
ATOM      8  C   LIG    1       25.345 -20.682   4.465  0.00  0.00    +0.035 C 
ATOM      9  C   LIG    1       23.856 -21.002   4.566  0.00  0.00    +0.006 C 
ENDROOT
BRANCH   1  11
ATOM     10  C   LIG    1       22.333 -17.461   5.018  0.00  0.00    +0.000 C 
ATOM     11  C   LIG    1       23.172 -18.513   4.974  0.00  0.00    -0.022 C 
BRANCH  10  12
ATOM     12  C   LIG    1       22.684 -16.072   5.521  0.00  0.00    +0.141 C 
BRANCH  12  13
ATOM     13  C   LIG    1       23.089 -15.104   4.375  0.00  0.00    +0.030 C 
ATOM     14  C   LIG    1       22.355 -15.458   3.074  0.00  0.00    +0.011 C 
BRANCH  13  15
ATOM     15  C   LIG    1       24.616 -15.110   4.109  0.00  0.00    +0.095 C 
BRANCH  15  18
ATOM     16  C   LIG    1       26.092 -18.660   2.582  0.00  0.00    +0.106 C 
ATOM     17  C   LIG    1       25.516 -17.436   3.108  0.00  0.00    -0.106 C 
ATOM     18  C   LIG    1       25.076 -16.399   3.566  0.00  0.00    -0.102 C 
ENDBRANCH  15  18
ENDBRANCH  13  15
ENDBRANCH  12  13
BRANCH  12  19
ATOM     19  O   LIG    1       21.543 -15.548   6.197  0.00  0.00    -0.388 OA
ATOM     20  H   LIG    1       21.010 -16.296   6.515  0.00  0.00    +0.210 HD
ENDBRANCH  12  19
ENDBRANCH  10  12
ENDBRANCH   1  11
BRANCH   2  21
ATOM     21  O   LIG    1       21.055 -21.568   4.287  0.00  0.00    -0.391 OA
ATOM     22  H   LIG    1       20.973 -22.373   4.826  0.00  0.00    +0.210 HD
ENDBRANCH   2  21
BRANCH   7  23
ATOM     23  C   LIG    1       28.128 -19.488   5.473  0.00  0.00    +0.028 C 
BRANCH  23  24
ATOM     24  C   LIG    1       28.485 -18.018   5.717  0.00  0.00    +0.015 C 
BRANCH  24  25
ATOM     25  C   LIG    1       28.760 -17.233   4.424  0.00  0.00    +0.121 C 
BRANCH  25  26
ATOM     26  C   LIG    1       28.318 -15.794   4.573  0.00  0.00    +0.307 C 
ATOM     27  O   LIG    1       27.680 -15.363   5.523  0.00  0.00    -0.251 OA
BRANCH  26  28
ATOM     28  O   LIG    1       28.696 -15.053   3.494  0.00  0.00    -0.457 OA
BRANCH  28  29
ATOM     29  C   LIG    1       27.663 -14.243   2.921  0.00  0.00    +0.311 C 
BRANCH  29  30
ATOM     30  C   LIG    1       27.482 -12.907   3.658  0.00  0.00    +0.200 C 
ATOM     31  O   LIG    1       28.443 -12.285   4.111  0.00  0.00    -0.288 OA
BRANCH  30  32
ATOM     32  C   LIG    1       26.110 -12.329   3.764  0.00  0.00    +0.021 A 
ATOM     33  C   LIG    1       25.341 -12.075   2.621  0.00  0.00    +0.011 A 
ATOM     34  C   LIG    1       24.005 -11.671   2.761  0.00  0.00    +0.001 A 
ATOM     35  C   LIG    1       23.454 -11.472   4.030  0.00  0.00    +0.000 A 
ATOM     36  C   LIG    1       24.239 -11.663   5.161  0.00  0.00    +0.001 A 
ATOM     37  C   LIG    1       25.557 -12.089   5.026  0.00  0.00    +0.011 A 
ENDBRANCH  30  32
ENDBRANCH  29  30
ENDBRANCH  28  29
ENDBRANCH  26  28
ENDBRANCH  25  26
ENDBRANCH  24  25
ENDBRANCH  23  24
ENDBRANCH   7  23
TORSDOF 15
ENDMDL
MODEL 3
REMARK VINA RESULT:       3.8      2.159      6.721
REMARK  Name = *****
REMARK                            x       y       z     vdW  Elec       q    Type
REMARK                         _______ _______ _______ _____ _____    ______ ____
ROOT
ATOM      1  C   LIG    1       24.043 -13.830   5.274  0.00  0.00    +0.044 C 
ATOM      2  C   LIG    1       23.277 -12.862   4.339  0.00  0.00    +0.122 C 
ATOM      3  C   LIG    1       24.084 -12.879   3.037  0.00  0.00    +0.036 C 
ATOM      4  C   LIG    1       25.544 -13.091   3.477  0.00  0.00    -0.001 C 
ATOM      5  C   LIG    1       26.245 -14.292   2.836  0.00  0.00    +0.034 C 
ATOM      6  C   LIG    1       26.970 -14.991   3.965  0.00  0.00    -0.073 C 
ATOM      7  C   LIG    1       27.733 -16.082   3.766  0.00  0.00    -0.027 C 
ATOM      8  C   LIG    1       26.666 -14.322   5.279  0.00  0.00    +0.035 C 
ATOM      9  C   LIG    1       25.500 -13.382   4.985  0.00  0.00    +0.006 C 
ENDROOT
BRANCH   1  11
ATOM     10  C   LIG    1       22.496 -15.836   5.160  0.00  0.00    +0.000 C 
ATOM     11  C   LIG    1       23.722 -15.297   5.019  0.00  0.00    -0.022 C 
BRANCH  10  12
ATOM     12  C   LIG    1       22.150 -17.302   4.977  0.00  0.00    +0.141 C 
BRANCH  12  13
ATOM     13  C   LIG    1       21.415 -17.582   3.637  0.00  0.00    +0.030 C 
ATOM     14  C   LIG    1       19.935 -17.908   3.882  0.00  0.00    +0.011 C 
BRANCH  13  15
ATOM     15  C   LIG    1       22.061 -18.744   2.840  0.00  0.00    +0.095 C 
BRANCH  15  18
ATOM     16  C   LIG    1       26.195 -18.583   2.877  0.00  0.00    +0.106 C 
ATOM     17  C   LIG    1       24.747 -18.673   2.917  0.00  0.00    -0.106 C 
ATOM     18  C   LIG    1       23.531 -18.714   2.918  0.00  0.00    -0.102 C 
ENDBRANCH  15  18
ENDBRANCH  13  15
ENDBRANCH  12  13
BRANCH  12  19
ATOM     19  O   LIG    1       23.364 -18.049   5.011  0.00  0.00    -0.388 OA
ATOM     20  H   LIG    1       23.165 -18.963   4.750  0.00  0.00    +0.210 HD
ENDBRANCH  12  19
ENDBRANCH  10  12
ENDBRANCH   1  11
BRANCH   2  21
ATOM     21  O   LIG    1       23.297 -11.543   4.896  0.00  0.00    -0.391 OA
ATOM     22  H   LIG    1       24.226 -11.293   5.042  0.00  0.00    +0.210 HD
ENDBRANCH   2  21
BRANCH   7  23
ATOM     23  C   LIG    1       28.548 -16.852   4.780  0.00  0.00    +0.028 C 
BRANCH  23  24
ATOM     24  C   LIG    1       27.923 -18.196   5.166  0.00  0.00    +0.015 C 
BRANCH  24  25
ATOM     25  C   LIG    1       28.951 -19.332   5.295  0.00  0.00    +0.121 C 
BRANCH  25  26
ATOM     26  C   LIG    1       28.656 -20.180   6.513  0.00  0.00    +0.307 C 
ATOM     27  O   LIG    1       29.473 -20.906   7.062  0.00  0.00    -0.251 OA
BRANCH  26  28
ATOM     28  O   LIG    1       27.355 -20.052   6.893  0.00  0.00    -0.457 OA
BRANCH  28  29
ATOM     29  C   LIG    1       26.557 -21.231   6.737  0.00  0.00    +0.311 C 
BRANCH  29  30
ATOM     30  C   LIG    1       25.773 -21.243   5.414  0.00  0.00    +0.200 C 
ATOM     31  O   LIG    1       26.342 -21.149   4.327  0.00  0.00    -0.288 OA
BRANCH  30  32
ATOM     32  C   LIG    1       24.294 -21.437   5.462  0.00  0.00    +0.021 A 
ATOM     33  C   LIG    1       23.610 -21.492   6.684  0.00  0.00    +0.011 A 
ATOM     34  C   LIG    1       22.208 -21.527   6.691  0.00  0.00    +0.001 A 
ATOM     35  C   LIG    1       21.494 -21.561   5.490  0.00  0.00    +0.000 A 
ATOM     36  C   LIG    1       22.177 -21.571   4.280  0.00  0.00    +0.001 A 
ATOM     37  C   LIG    1       23.568 -21.509   4.270  0.00  0.00    +0.011 A 
ENDBRANCH  30  32
ENDBRANCH  29  30
ENDBRANCH  28  29
ENDBRANCH  26  28
ENDBRANCH  25  26
ENDBRANCH  24  25
ENDBRANCH  23  24
ENDBRANCH   7  23
TORSDOF 15
ENDMDL
MODEL 4
REMARK VINA RESULT:       5.1      1.812      5.144
REMARK  Name = *****
REMARK                            x       y       z     vdW  Elec       q    Type
REMARK                         _______ _______ _______ _____ _____    ______ ____
ROOT
ATOM      1  C   LIG    1       24.413 -19.943   5.716  0.00  0.00    +0.044 C 
ATOM      2  C   LIG    1       24.027 -21.377   5.279  0.00  0.00    +0.122 C 
ATOM      3  C   LIG    1       24.353 -21.415   3.783  0.00  0.00    +0.036 C 
ATOM      4  C   LIG    1       24.092 -19.982   3.283  0.00  0.00    -0.001 C 
ATOM      5  C   LIG    1       25.276 -19.319   2.575  0.00  0.00    +0.034 C 
ATOM      6  C   LIG    1       25.356 -17.918   3.140  0.00  0.00    -0.073 C 
ATOM      7  C   LIG    1       26.268 -17.021   2.719  0.00  0.00    -0.027 C 
ATOM      8  C   LIG    1       24.332 -17.730   4.227  0.00  0.00    +0.035 C 
ATOM      9  C   LIG    1       23.818 -19.134   4.534  0.00  0.00    +0.006 C 
ENDROOT
BRANCH   1  11
ATOM     10  C   LIG    1       26.860 -20.532   5.405  0.00  0.00    +0.000 C 
ATOM     11  C   LIG    1       25.905 -19.771   5.972  0.00  0.00    -0.022 C 
BRANCH  10  12
ATOM     12  C   LIG    1       28.349 -20.433   5.682  0.00  0.00    +0.141 C 
BRANCH  12  13
ATOM     13  C   LIG    1       28.925 -19.025   5.365  0.00  0.00    +0.030 C 
ATOM     14  C   LIG    1       29.353 -18.307   6.653  0.00  0.00    +0.011 C 
BRANCH  13  15
ATOM     15  C   LIG    1       27.915 -18.131   4.602  0.00  0.00    +0.095 C 
BRANCH  15  18
ATOM     16  C   LIG    1       28.593 -14.066   4.953  0.00  0.00    +0.106 C 
ATOM     17  C   LIG    1       28.407 -15.502   4.864  0.00  0.00    -0.106 C 
ATOM     18  C   LIG    1       28.206 -16.699   4.774  0.00  0.00    -0.102 C 
ENDBRANCH  15  18
ENDBRANCH  13  15
ENDBRANCH  12  13
BRANCH  12  19
ATOM     19  O   LIG    1       28.561 -20.728   7.061  0.00  0.00    -0.388 OA
ATOM     20  H   LIG    1       28.512 -21.692   7.175  0.00  0.00    +0.210 HD
ENDBRANCH  12  19
ENDBRANCH  10  12
ENDBRANCH   1  11
BRANCH   2  21
ATOM     21  O   LIG    1       22.621 -21.571   5.466  0.00  0.00    -0.391 OA
ATOM     22  H   LIG    1       22.153 -20.883   4.962  0.00  0.00    +0.210 HD
ENDBRANCH   2  21
BRANCH   7  23
ATOM     23  C   LIG    1       26.436 -15.583   3.153  0.00  0.00    +0.028 C 
BRANCH  23  24
ATOM     24  C   LIG    1       26.383 -14.588   1.989  0.00  0.00    +0.015 C 
BRANCH  24  25
ATOM     25  C   LIG    1       25.054 -13.820   1.903  0.00  0.00    +0.121 C 
BRANCH  25  26
ATOM     26  C   LIG    1       25.254 -12.369   2.280  0.00  0.00    +0.307 C 
ATOM     27  O   LIG    1       26.341 -11.809   2.314  0.00  0.00    -0.251 OA
BRANCH  26  28
ATOM     28  O   LIG    1       24.070 -11.782   2.608  0.00  0.00    -0.457 OA
BRANCH  28  29
ATOM     29  C   LIG    1       23.822 -11.656   4.013  0.00  0.00    +0.311 C 
BRANCH  29  30
ATOM     30  C   LIG    1       24.308 -12.876   4.810  0.00  0.00    +0.200 C 
ATOM     31  O   LIG    1       25.439 -12.924   5.291  0.00  0.00    -0.288 OA
BRANCH  30  32
ATOM     32  C   LIG    1       23.352 -13.997   5.054  0.00  0.00    +0.021 A 
ATOM     33  C   LIG    1       23.165 -15.009   4.103  0.00  0.00    +0.011 A 
ATOM     34  C   LIG    1       22.374 -16.123   4.423  0.00  0.00    +0.001 A 
ATOM     35  C   LIG    1       21.732 -16.202   5.661  0.00  0.00    +0.000 A 
ATOM     36  C   LIG    1       21.867 -15.167   6.578  0.00  0.00    +0.001 A 
ATOM     37  C   LIG    1       22.673 -14.073   6.274  0.00  0.00    +0.011 A 
ENDBRANCH  30  32
ENDBRANCH  29  30
ENDBRANCH  28  29
ENDBRANCH  26  28
ENDBRANCH  25  26
ENDBRANCH  24  25
ENDBRANCH  23  24
ENDBRANCH   7  23
TORSDOF 15
ENDMDL
MODEL 5
REMARK VINA RESULT:       5.1      1.733      7.366
REMARK  Name = *****
REMARK                            x       y       z     vdW  Elec       q    Type
REMARK                         _______ _______ _______ _____ _____    ______ ____
ROOT
ATOM      1  C   LIG    1       27.697 -13.977   4.775  0.00  0.00    +0.044 C 
ATOM      2  C   LIG    1       28.096 -12.754   3.915  0.00  0.00    +0.122 C 
ATOM      3  C   LIG    1       27.207 -12.861   2.672  0.00  0.00    +0.036 C 
ATOM      4  C   LIG    1       27.014 -14.372   2.450  0.00  0.00    -0.001 C 
ATOM      5  C   LIG    1       25.557 -14.837   2.391  0.00  0.00    +0.034 C 
ATOM      6  C   LIG    1       25.491 -16.082   3.249  0.00  0.00    -0.073 C 
ATOM      7  C   LIG    1       24.357 -16.792   3.403  0.00  0.00    -0.027 C 
ATOM      8  C   LIG    1       26.822 -16.342   3.901  0.00  0.00    +0.035 C 
ATOM      9  C   LIG    1       27.630 -15.068   3.674  0.00  0.00    +0.006 C 
ENDROOT
BRANCH   1  11
ATOM     10  C   LIG    1       25.207 -13.582   5.045  0.00  0.00    +0.000 C 
ATOM     11  C   LIG    1       26.427 -13.756   5.587  0.00  0.00    -0.022 C 
BRANCH  10  12
ATOM     12  C   LIG    1       23.931 -13.297   5.816  0.00  0.00    +0.141 C 
BRANCH  12  13
ATOM     13  C   LIG    1       23.437 -11.835   5.640  0.00  0.00    +0.030 C 
ATOM     14  C   LIG    1       22.231 -11.552   6.547  0.00  0.00    +0.011 C 
BRANCH  13  15
ATOM     15  C   LIG    1       23.051 -11.514   4.174  0.00  0.00    +0.095 C 
BRANCH  15  18
ATOM     16  C   LIG    1       26.448 -11.502   1.814  0.00  0.00    +0.106 C 
ATOM     17  C   LIG    1       25.235 -11.457   2.609  0.00  0.00    -0.106 C 
ATOM     18  C   LIG    1       24.228 -11.462   3.293  0.00  0.00    -0.102 C 
ENDBRANCH  15  18
ENDBRANCH  13  15
ENDBRANCH  12  13
BRANCH  12  19
ATOM     19  O   LIG    1       22.925 -14.193   5.348  0.00  0.00    -0.388 OA
ATOM     20  H   LIG    1       22.677 -13.925   4.447  0.00  0.00    +0.210 HD
ENDBRANCH  12  19
ENDBRANCH  10  12
ENDBRANCH   1  11
BRANCH   2  21
ATOM     21  O   LIG    1       29.471 -12.869   3.529  0.00  0.00    -0.391 OA
ATOM     22  H   LIG    1       29.674 -13.814   3.424  0.00  0.00    +0.210 HD
ENDBRANCH   2  21
BRANCH   7  23
ATOM     23  C   LIG    1       24.153 -18.071   4.182  0.00  0.00    +0.028 C 
BRANCH  23  24
ATOM     24  C   LIG    1       22.791 -18.146   4.879  0.00  0.00    +0.015 C 
BRANCH  24  25
ATOM     25  C   LIG    1       22.517 -19.507   5.539  0.00  0.00    +0.121 C 
BRANCH  25  26
ATOM     26  C   LIG    1       22.111 -20.529   4.499  0.00  0.00    +0.307 C 
ATOM     27  O   LIG    1       20.955 -20.850   4.263  0.00  0.00    -0.251 OA
BRANCH  26  28
ATOM     28  O   LIG    1       23.204 -21.064   3.889  0.00  0.00    -0.457 OA
BRANCH  28  29
ATOM     29  C   LIG    1       24.298 -21.373   4.760  0.00  0.00    +0.311 C 
BRANCH  29  30
ATOM     30  C   LIG    1       25.631 -20.792   4.264  0.00  0.00    +0.200 C 
ATOM     31  O   LIG    1       25.794 -20.463   3.090  0.00  0.00    -0.288 OA
BRANCH  30  32
ATOM     32  C   LIG    1       26.726 -20.566   5.255  0.00  0.00    +0.021 A 
ATOM     33  C   LIG    1       27.043 -21.534   6.216  0.00  0.00    +0.011 A 
ATOM     34  C   LIG    1       28.168 -21.355   7.034  0.00  0.00    +0.001 A 
ATOM     35  C   LIG    1       28.941 -20.195   6.931  0.00  0.00    +0.000 A 
ATOM     36  C   LIG    1       28.586 -19.207   6.020  0.00  0.00    +0.001 A 
ATOM     37  C   LIG    1       27.486 -19.395   5.189  0.00  0.00    +0.011 A 
ENDBRANCH  30  32
ENDBRANCH  29  30
ENDBRANCH  28  29
ENDBRANCH  26  28
ENDBRANCH  25  26
ENDBRANCH  24  25
ENDBRANCH  23  24
ENDBRANCH   7  23
TORSDOF 15
ENDMDL
