MODEL 1
REMARK VINA RESULT:      -1.9      0.000      0.000
REMARK  Name = *****
REMARK                            x       y       z     vdW  Elec       q    Type
REMARK                         _______ _______ _______ _____ _____    ______ ____
ROOT
ATOM      1  C   LIG    1       24.712 -13.503   4.439  0.00  0.00    +0.163 C 
ATOM      2  N   LIG    1       24.578 -14.437   3.312  0.00  0.00    -0.270 N 
ATOM      3  C   LIG    1       24.429 -15.786   3.773  0.00  0.00    +0.331 C 
ATOM      4  N   LIG    1       25.714 -16.383   3.728  0.00  0.00    -0.132 N 
ATOM      5  C   LIG    1       26.646 -15.359   3.270  0.00  0.00    +0.127 C 
ATOM      6  C   LIG    1       27.115 -14.571   4.516  0.00  0.00    +0.029 C 
ATOM      7  O   LIG    1       23.389 -16.293   4.159  0.00  0.00    -0.250 OA
ATOM      8  C   LIG    1       25.744 -14.464   2.446  0.00  0.00    +0.135 C 
ATOM      9  C   LIG    1       26.191 -13.385   4.901  0.00  0.00    +0.034 C 
ENDROOT
BRANCH   1  13
ATOM     10  N   LIG    1       23.497 -11.448   5.023  0.00  0.00    -0.328 N 
ATOM     11  H   LIG    1       23.337 -11.883   5.924  0.00  0.00    +0.145 HD
ATOM     12  H   LIG    1       23.093 -10.545   4.819  0.00  0.00    +0.145 HD
ATOM     13  C   LIG    1       24.142 -12.130   4.028  0.00  0.00    +0.231 C 
ATOM     14  O   LIG    1       24.333 -11.607   2.936  0.00  0.00    -0.274 OA
ENDBRANCH   1  13
BRANCH   4  15
ATOM     15  O   LIG    1       25.675 -17.506   2.845  0.00  0.00    -0.096 OA
BRANCH  15  16
ATOM     16  S   LIG    1       25.397 -18.927   3.617  0.00  0.00    +0.227 S 
ATOM     17  O   LIG    1       24.007 -18.997   4.001  0.00  0.00    -0.116 OA
ATOM     18  O   LIG    1       26.446 -19.127   4.598  0.00  0.00    -0.116 OA
BRANCH  16  19
ATOM     19  O   LIG    1       25.642 -20.055   2.495  0.00  0.00    -0.230 OA
ATOM     20  H   LIG    1       26.579 -20.001   2.219  0.00  0.00    +0.247 HD
ENDBRANCH  16  19
ENDBRANCH  15  16
ENDBRANCH   4  15
TORSDOF 4
ENDMDL
MODEL 2
REMARK VINA RESULT:      -1.4      2.155      3.063
REMARK  Name = *****
REMARK                            x       y       z     vdW  Elec       q    Type
REMARK                         _______ _______ _______ _____ _____    ______ ____
ROOT
ATOM      1  C   LIG    1       27.771 -13.810   3.464  0.00  0.00    +0.163 C 
ATOM      2  N   LIG    1       27.050 -14.663   4.418  0.00  0.00    -0.270 N 
ATOM      3  C   LIG    1       26.905 -15.997   3.914  0.00  0.00    +0.331 C 
ATOM      4  N   LIG    1       25.618 -16.079   3.325  0.00  0.00    -0.132 N 
ATOM      5  C   LIG    1       25.005 -14.761   3.449  0.00  0.00    +0.127 C 
ATOM      6  C   LIG    1       25.453 -13.928   2.224  0.00  0.00    +0.029 C 
ATOM      7  O   LIG    1       27.755 -16.870   3.962  0.00  0.00    -0.250 OA
ATOM      8  C   LIG    1       25.694 -14.213   4.681  0.00  0.00    +0.135 C 
ATOM      9  C   LIG    1       26.802 -13.186   2.421  0.00  0.00    +0.034 C 
ENDROOT
BRANCH   1  13
ATOM     10  N   LIG    1       28.191 -12.590   5.555  0.00  0.00    -0.328 N 
ATOM     11  H   LIG    1       27.415 -13.119   5.936  0.00  0.00    +0.145 HD
ATOM     12  H   LIG    1       28.650 -11.888   6.119  0.00  0.00    +0.145 HD
ATOM     13  C   LIG    1       28.538 -12.720   4.239  0.00  0.00    +0.231 C 
ATOM     14  O   LIG    1       29.474 -12.078   3.775  0.00  0.00    -0.274 OA
ENDBRANCH   1  13
BRANCH   4  15
ATOM     15  O   LIG    1       24.861 -17.087   3.999  0.00  0.00    -0.096 OA
BRANCH  15  16
ATOM     16  S   LIG    1       25.111 -18.594   3.399  0.00  0.00    +0.227 S 
ATOM     17  O   LIG    1       25.815 -18.497   2.142  0.00  0.00    -0.116 OA
ATOM     18  O   LIG    1       23.868 -19.335   3.494  0.00  0.00    -0.116 OA
BRANCH  16  19
ATOM     19  O   LIG    1       26.105 -19.293   4.454  0.00  0.00    -0.230 OA
ATOM     20  H   LIG    1       26.770 -18.628   4.721  0.00  0.00    +0.247 HD
ENDBRANCH  16  19
ENDBRANCH  15  16
ENDBRANCH   4  15
TORSDOF 4
ENDMDL
MODEL 3
REMARK VINA RESULT:      -0.9      2.215      3.277
REMARK  Name = *****
REMARK                            x       y       z     vdW  Elec       q    Type
REMARK                         _______ _______ _______ _____ _____    ______ ____
ROOT
ATOM      1  C   LIG    1       26.302 -14.165   2.747  0.00  0.00    +0.163 C 
ATOM      2  N   LIG    1       25.994 -14.953   3.949  0.00  0.00    -0.270 N 
ATOM      3  C   LIG    1       25.349 -16.187   3.608  0.00  0.00    +0.331 C 
ATOM      4  N   LIG    1       23.954 -15.977   3.751  0.00  0.00    -0.132 N 
ATOM      5  C   LIG    1       23.767 -14.586   4.146  0.00  0.00    +0.127 C 
ATOM      6  C   LIG    1       23.706 -13.743   2.849  0.00  0.00    +0.029 C 
ATOM      7  O   LIG    1       25.912 -17.202   3.234  0.00  0.00    -0.250 OA
ATOM      8  C   LIG    1       25.073 -14.286   4.853  0.00  0.00    +0.135 C 
ATOM      9  C   LIG    1       25.094 -13.282   2.327  0.00  0.00    +0.034 C 
ENDROOT
BRANCH   1  13
ATOM     10  N   LIG    1       27.407 -11.970   2.771  0.00  0.00    -0.328 N 
ATOM     11  H   LIG    1       26.553 -11.615   2.357  0.00  0.00    +0.145 HD
ATOM     12  H   LIG    1       28.193 -11.353   2.918  0.00  0.00    +0.145 HD
ATOM     13  C   LIG    1       27.556 -13.308   3.012  0.00  0.00    +0.231 C 
ATOM     14  O   LIG    1       28.590 -13.741   3.509  0.00  0.00    -0.274 OA
ENDBRANCH   1  13
BRANCH   4  15
ATOM     15  O   LIG    1       23.445 -16.885   4.730  0.00  0.00    -0.096 OA
BRANCH  15  16
ATOM     16  S   LIG    1       22.710 -18.199   4.076  0.00  0.00    +0.227 S 
ATOM     17  O   LIG    1       23.647 -18.897   3.228  0.00  0.00    -0.116 OA
ATOM     18  O   LIG    1       21.414 -17.791   3.568  0.00  0.00    -0.116 OA
BRANCH  16  19
ATOM     19  O   LIG    1       22.393 -19.156   5.331  0.00  0.00    -0.230 OA
ATOM     20  H   LIG    1       22.984 -19.932   5.269  0.00  0.00    +0.247 HD
ENDBRANCH  16  19
ENDBRANCH  15  16
ENDBRANCH   4  15
TORSDOF 4
ENDMDL
MODEL 4
REMARK VINA RESULT:       0.5      4.383      5.759
REMARK  Name = *****
REMARK                            x       y       z     vdW  Elec       q    Type
REMARK                         _______ _______ _______ _____ _____    ______ ____
ROOT
ATOM      1  C   LIG    1       23.400 -19.772   3.726  0.00  0.00    +0.163 C 
ATOM      2  N   LIG    1       24.265 -18.884   4.514  0.00  0.00    -0.270 N 
ATOM      3  C   LIG    1       25.524 -18.673   3.861  0.00  0.00    +0.331 C 
ATOM      4  N   LIG    1       26.444 -19.587   4.435  0.00  0.00    -0.132 N 
ATOM      5  C   LIG    1       25.709 -20.377   5.416  0.00  0.00    +0.127 C 
ATOM      6  C   LIG    1       25.076 -21.572   4.664  0.00  0.00    +0.029 C 
ATOM      7  O   LIG    1       25.732 -17.878   2.961  0.00  0.00    -0.250 OA
ATOM      8  C   LIG    1       24.605 -19.422   5.820  0.00  0.00    +0.135 C 
ATOM      9  C   LIG    1       23.684 -21.266   4.047  0.00  0.00    +0.034 C 
ENDROOT
BRANCH   1  13
ATOM     10  N   LIG    1       21.145 -20.446   4.434  0.00  0.00    -0.328 N 
ATOM     11  H   LIG    1       21.518 -21.388   4.476  0.00  0.00    +0.145 HD
ATOM     12  H   LIG    1       20.167 -20.280   4.622  0.00  0.00    +0.145 HD
ATOM     13  C   LIG    1       21.925 -19.412   3.994  0.00  0.00    +0.231 C 
ATOM     14  O   LIG    1       21.476 -18.273   3.939  0.00  0.00    -0.274 OA
ENDBRANCH   1  13
BRANCH   4  15
ATOM     15  O   LIG    1       27.516 -18.853   5.032  0.00  0.00    -0.096 OA
BRANCH  15  16
ATOM     16  S   LIG    1       28.362 -19.726   6.136  0.00  0.00    +0.227 S 
ATOM     17  O   LIG    1       27.442 -20.344   7.062  0.00  0.00    -0.116 OA
ATOM     18  O   LIG    1       29.460 -18.911   6.618  0.00  0.00    -0.116 OA
BRANCH  16  19
ATOM     19  O   LIG    1       29.049 -20.906   5.283  0.00  0.00    -0.230 OA
ATOM     20  H   LIG    1       29.966 -21.010   5.605  0.00  0.00    +0.247 HD
ENDBRANCH  16  19
ENDBRANCH  15  16
ENDBRANCH   4  15
TORSDOF 4
ENDMDL
MODEL 5
REMARK VINA RESULT:       0.6      2.033      2.637
REMARK  Name = *****
REMARK                            x       y       z     vdW  Elec       q    Type
REMARK                         _______ _______ _______ _____ _____    ______ ____
ROOT
ATOM      1  C   LIG    1       25.364 -13.844   3.635  0.00  0.00    +0.163 C 
ATOM      2  N   LIG    1       26.434 -14.609   2.981  0.00  0.00    -0.270 N 
ATOM      3  C   LIG    1       26.511 -15.942   3.502  0.00  0.00    +0.331 C 
ATOM      4  N   LIG    1       27.525 -15.940   4.493  0.00  0.00    -0.132 N 
ATOM      5  C   LIG    1       28.031 -14.575   4.587  0.00  0.00    +0.127 C 
ATOM      6  C   LIG    1       27.127 -13.817   5.589  0.00  0.00    +0.029 C 
ATOM      7  O   LIG    1       25.804 -16.876   3.166  0.00  0.00    -0.250 OA
ATOM      8  C   LIG    1       27.756 -14.046   3.195  0.00  0.00    +0.135 C 
ATOM      9  C   LIG    1       25.867 -13.177   4.946  0.00  0.00    +0.034 C 
ENDROOT
BRANCH   1  13
ATOM     10  N   LIG    1       23.492 -12.487   2.801  0.00  0.00    -0.328 N 
ATOM     11  H   LIG    1       22.919 -13.002   3.460  0.00  0.00    +0.145 HD
ATOM     12  H   LIG    1       23.067 -11.812   2.181  0.00  0.00    +0.145 HD
ATOM     13  C   LIG    1       24.816 -12.794   2.648  0.00  0.00    +0.231 C 
ATOM     14  O   LIG    1       25.510 -12.176   1.848  0.00  0.00    -0.274 OA
ENDBRANCH   1  13
BRANCH   4  15
ATOM     15  O   LIG    1       28.547 -16.865   4.114  0.00  0.00    -0.096 OA
BRANCH  15  16
ATOM     16  S   LIG    1       28.638 -18.171   5.105  0.00  0.00    +0.227 S 
ATOM     17  O   LIG    1       28.916 -17.729   6.452  0.00  0.00    -0.116 OA
ATOM     18  O   LIG    1       29.474 -19.170   4.467  0.00  0.00    -0.116 OA
BRANCH  16  19
ATOM     19  O   LIG    1       27.153 -18.791   5.099  0.00  0.00    -0.230 OA
ATOM     20  H   LIG    1       27.231 -19.748   4.909  0.00  0.00    +0.247 HD
ENDBRANCH  16  19
ENDBRANCH  15  16
ENDBRANCH   4  15
TORSDOF 4
ENDMDL
MODEL 6
REMARK VINA RESULT:       0.6      3.451      5.855
REMARK  Name = *****
REMARK                            x       y       z     vdW  Elec       q    Type
REMARK                         _______ _______ _______ _____ _____    ______ ____
ROOT
ATOM      1  C   LIG    1       23.479 -19.633   4.850  0.00  0.00    +0.163 C 
ATOM      2  N   LIG    1       24.296 -19.293   3.677  0.00  0.00    -0.270 N 
ATOM      3  C   LIG    1       25.439 -18.513   4.051  0.00  0.00    +0.331 C 
ATOM      4  N   LIG    1       25.099 -17.153   3.838  0.00  0.00    -0.132 N 
ATOM      5  C   LIG    1       23.720 -17.124   3.366  0.00  0.00    +0.127 C 
ATOM      6  C   LIG    1       22.806 -17.100   4.615  0.00  0.00    +0.029 C 
ATOM      7  O   LIG    1       26.483 -18.955   4.499  0.00  0.00    -0.250 OA
ATOM      8  C   LIG    1       23.591 -18.479   2.702  0.00  0.00    +0.135 C 
ATOM      9  C   LIG    1       22.459 -18.506   5.173  0.00  0.00    +0.034 C 
ENDROOT
BRANCH   1  13
ATOM     10  N   LIG    1       23.055 -21.572   3.399  0.00  0.00    -0.328 N 
ATOM     11  H   LIG    1       23.622 -21.090   2.711  0.00  0.00    +0.145 HD
ATOM     12  H   LIG    1       22.616 -22.451   3.168  0.00  0.00    +0.145 HD
ATOM     13  C   LIG    1       22.767 -20.978   4.597  0.00  0.00    +0.231 C 
ATOM     14  O   LIG    1       22.079 -21.557   5.430  0.00  0.00    -0.274 OA
ENDBRANCH   1  13
BRANCH   4  15
ATOM     15  O   LIG    1       26.003 -16.592   2.884  0.00  0.00    -0.096 OA
BRANCH  15  16
ATOM     16  S   LIG    1       26.481 -15.067   3.262  0.00  0.00    +0.227 S 
ATOM     17  O   LIG    1       25.569 -14.509   4.233  0.00  0.00    -0.116 OA
ATOM     18  O   LIG    1       26.772 -14.361   2.030  0.00  0.00    -0.116 OA
BRANCH  16  19
ATOM     19  O   LIG    1       27.903 -15.255   3.992  0.00  0.00    -0.230 OA
ATOM     20  H   LIG    1       28.575 -14.783   3.460  0.00  0.00    +0.247 HD
ENDBRANCH  16  19
ENDBRANCH  15  16
ENDBRANCH   4  15
TORSDOF 4
ENDMDL
MODEL 7
REMARK VINA RESULT:       0.7      3.451      4.855
REMARK  Name = *****
REMARK                            x       y       z     vdW  Elec       q    Type
REMARK                         _______ _______ _______ _____ _____    ______ ____
ROOT
ATOM      1  C   LIG    1       23.835 -15.519   3.691  0.00  0.00    +0.163 C 
ATOM      2  N   LIG    1       24.433 -14.250   4.127  0.00  0.00    -0.270 N 
ATOM      3  C   LIG    1       24.910 -13.491   3.009  0.00  0.00    +0.331 C 
ATOM      4  N   LIG    1       26.297 -13.759   2.888  0.00  0.00    -0.132 N 
ATOM      5  C   LIG    1       26.639 -14.723   3.928  0.00  0.00    +0.127 C 
ATOM      6  C   LIG    1       26.371 -16.135   3.355  0.00  0.00    +0.029 C 
ATOM      7  O   LIG    1       24.227 -12.782   2.290  0.00  0.00    -0.250 OA
ATOM      8  C   LIG    1       25.594 -14.426   4.983  0.00  0.00    +0.135 C 
ATOM      9  C   LIG    1       24.912 -16.630   3.545  0.00  0.00    +0.034 C 
ENDROOT
BRANCH   1  13
ATOM     10  N   LIG    1       22.329 -17.234   4.603  0.00  0.00    -0.328 N 
ATOM     11  H   LIG    1       22.673 -17.830   3.858  0.00  0.00    +0.145 HD
ATOM     12  H   LIG    1       21.606 -17.568   5.225  0.00  0.00    +0.145 HD
ATOM     13  C   LIG    1       22.737 -15.932   4.692  0.00  0.00    +0.231 C 
ATOM     14  O   LIG    1       22.319 -15.208   5.589  0.00  0.00    -0.274 OA
ENDBRANCH   1  13
BRANCH   4  15
ATOM     15  O   LIG    1       27.022 -12.536   3.032  0.00  0.00    -0.096 OA
BRANCH  15  16
ATOM     16  S   LIG    1       28.425 -12.709   3.866  0.00  0.00    +0.227 S 
ATOM     17  O   LIG    1       29.105 -13.900   3.413  0.00  0.00    -0.116 OA
ATOM     18  O   LIG    1       28.147 -12.507   5.275  0.00  0.00    -0.116 OA
BRANCH  16  19
ATOM     19  O   LIG    1       29.321 -11.447   3.423  0.00  0.00    -0.230 OA
ATOM     20  H   LIG    1       29.645 -11.013   4.237  0.00  0.00    +0.247 HD
ENDBRANCH  16  19
ENDBRANCH  15  16
ENDBRANCH   4  15
TORSDOF 4
ENDMDL
