MODEL 1
REMARK VINA RESULT:      -5.8      0.000      0.000
REMARK  Name = *****
REMARK                            x       y       z     vdW  Elec       q    Type
REMARK                         _______ _______ _______ _____ _____    ______ ____
ROOT
ATOM      1  C   LIG    1       24.590 -28.731  12.476  0.00  0.00    +0.380 C 
ATOM      2  N   LIG    1       25.429 -28.383  13.548  0.00  0.00    -0.181 N 
ATOM      3  C   LIG    1       25.002 -27.192  14.342  0.00  0.00    +0.189 C 
ATOM      4  C   LIG    1       23.472 -27.133  14.430  0.00  0.00    +0.033 A 
ATOM      5  C   LIG    1       22.752 -27.520  13.298  0.00  0.00    +0.183 A 
ATOM      6  C   LIG    1       21.411 -27.113  13.183  0.00  0.00    +0.166 A 
ATOM      7  C   LIG    1       20.768 -26.418  14.208  0.00  0.00    +0.042 A 
ATOM      8  C   LIG    1       21.455 -26.153  15.389  0.00  0.00    +0.003 A 
ATOM      9  F   LIG    1       20.724 -27.342  12.053  0.00  0.00    -0.202 F 
ATOM     10  C   LIG    1       22.805 -26.503  15.499  0.00  0.00    +0.010 A 
ATOM     11  N   LIG    1       23.369 -28.285  12.298  0.00  0.00    -0.073 NA
ENDROOT
BRANCH   1  15
ATOM     12  N   LIG    1       26.615 -31.375   9.847  0.00  0.00    -0.324 N 
ATOM     13  C   LIG    1       27.252 -30.133  10.359  0.00  0.00    +0.140 C 
ATOM     14  C   LIG    1       26.185 -29.049  10.599  0.00  0.00    +0.206 C 
ATOM     15  N   LIG    1       25.101 -29.535  11.482  0.00  0.00    -0.221 N 
ATOM     16  C   LIG    1       24.517 -30.821  11.089  0.00  0.00    +0.206 C 
ATOM     17  C   LIG    1       25.616 -31.874  10.832  0.00  0.00    +0.140 C 
BRANCH  12  20
ATOM     18  C   LIG    1       25.318 -30.864   6.348  0.00  0.00    +0.122 A 
ATOM     19  C   LIG    1       25.468 -30.749   7.741  0.00  0.00    +0.068 A 
ATOM     20  C   LIG    1       26.385 -31.537   8.474  0.00  0.00    +0.033 A 
ATOM     21  C   LIG    1       27.138 -32.454   7.715  0.00  0.00    +0.023 A 
ATOM     22  C   LIG    1       26.989 -32.587   6.333  0.00  0.00    +0.005 A 
ATOM     23  C   LIG    1       26.090 -31.787   5.652  0.00  0.00    +0.046 A 
BRANCH  18  25
ATOM     24  C   LIG    1       24.941 -28.793   5.285  0.00  0.00    +0.277 C 
ATOM     25  O   LIG    1       24.401 -30.025   5.762  0.00  0.00    -0.495 OA
ENDBRANCH  18  25
ENDBRANCH  12  20
ENDBRANCH   1  15
BRANCH   2  26
ATOM     26  C   LIG    1       26.478 -29.207  14.108  0.00  0.00    +0.137 A 
ATOM     27  C   LIG    1       26.265 -30.380  14.896  0.00  0.00    +0.157 A 
ATOM     28  C   LIG    1       27.353 -31.189  15.277  0.00  0.00    +0.049 A 
ATOM     29  C   LIG    1       28.664 -30.826  15.024  0.00  0.00    +0.016 A 
ATOM     30  C   LIG    1       28.931 -29.654  14.331  0.00  0.00    +0.058 A 
ATOM     31  C   LIG    1       27.845 -28.868  13.878  0.00  0.00    +0.056 A 
BRANCH  30  32
ATOM     32  C   LIG    1       30.378 -29.345  14.033  0.00  0.00    +0.417 C 
ATOM     33  F   LIG    1       31.206 -30.296  14.558  0.00  0.00    -0.166 F 
ATOM     34  F   LIG    1       30.785 -28.169  14.590  0.00  0.00    -0.166 F 
ATOM     35  F   LIG    1       30.681 -29.269  12.712  0.00  0.00    -0.166 F 
ENDBRANCH  30  32
BRANCH  27  36
ATOM     36  O   LIG    1       24.991 -30.742  15.262  0.00  0.00    -0.492 OA
ATOM     37  C   LIG    1       24.498 -32.013  14.807  0.00  0.00    +0.277 C 
ENDBRANCH  27  36
ENDBRANCH   2  26
BRANCH   3  38
ATOM     38  C   LIG    1       25.451 -25.902  13.610  0.00  0.00    +0.164 C 
BRANCH  38  39
ATOM     39  C   LIG    1       26.646 -25.278  14.204  0.00  0.00    +0.308 C 
ATOM     40  O   LIG    1       26.732 -24.983  15.421  0.00  0.00    -0.251 OA
BRANCH  39  41
ATOM     41  O   LIG    1       27.649 -25.038  13.347  0.00  0.00    -0.480 OA
ATOM     42  H   LIG    1       28.422 -24.581  13.727  0.00  0.00    +0.295 HD
ENDBRANCH  39  41
ENDBRANCH  38  39
ENDBRANCH   3  38
TORSDOF 9
ENDMDL
MODEL 2
REMARK VINA RESULT:      -5.7      3.151      4.062
REMARK  Name = *****
REMARK                            x       y       z     vdW  Elec       q    Type
REMARK                         _______ _______ _______ _____ _____    ______ ____
ROOT
ATOM      1  C   LIG    1       22.669 -30.868  11.662  0.00  0.00    +0.380 C 
ATOM      2  N   LIG    1       22.789 -29.905  12.678  0.00  0.00    -0.181 N 
ATOM      3  C   LIG    1       21.513 -29.514  13.350  0.00  0.00    +0.189 C 
ATOM      4  C   LIG    1       20.576 -30.722  13.455  0.00  0.00    +0.033 A 
ATOM      5  C   LIG    1       20.561 -31.615  12.381  0.00  0.00    +0.183 A 
ATOM      6  C   LIG    1       19.465 -32.485  12.245  0.00  0.00    +0.166 A 
ATOM      7  C   LIG    1       18.450 -32.537  13.202  0.00  0.00    +0.042 A 
ATOM      8  C   LIG    1       18.541 -31.737  14.338  0.00  0.00    +0.003 A 
ATOM      9  F   LIG    1       19.341 -33.260  11.156  0.00  0.00    -0.202 F 
ATOM     10  C   LIG    1       19.597 -30.828  14.463  0.00  0.00    +0.010 A 
ATOM     11  N   LIG    1       21.616 -31.623  11.457  0.00  0.00    -0.073 NA
ENDROOT
BRANCH   1  15
ATOM     12  N   LIG    1       26.034 -30.659   9.084  0.00  0.00    -0.324 N 
ATOM     13  C   LIG    1       24.914 -29.684   8.997  0.00  0.00    +0.140 C 
ATOM     14  C   LIG    1       23.592 -30.356   9.413  0.00  0.00    +0.206 C 
ATOM     15  N   LIG    1       23.695 -30.984  10.750  0.00  0.00    -0.221 N 
ATOM     16  C   LIG    1       24.853 -31.865  10.928  0.00  0.00    +0.206 C 
ATOM     17  C   LIG    1       26.154 -31.170  10.478  0.00  0.00    +0.140 C 
BRANCH  12  20
ATOM     18  C   LIG    1       26.173 -32.109   5.610  0.00  0.00    +0.122 A 
ATOM     19  C   LIG    1       25.801 -31.305   6.702  0.00  0.00    +0.068 A 
ATOM     20  C   LIG    1       26.320 -31.504   8.003  0.00  0.00    +0.033 A 
ATOM     21  C   LIG    1       27.232 -32.569   8.135  0.00  0.00    +0.023 A 
ATOM     22  C   LIG    1       27.598 -33.383   7.061  0.00  0.00    +0.005 A 
ATOM     23  C   LIG    1       27.078 -33.146   5.802  0.00  0.00    +0.046 A 
BRANCH  18  25
ATOM     24  C   LIG    1       25.978 -32.655   3.324  0.00  0.00    +0.277 C 
ATOM     25  O   LIG    1       25.603 -31.794   4.400  0.00  0.00    -0.495 OA
ENDBRANCH  18  25
ENDBRANCH  12  20
ENDBRANCH   1  15
BRANCH   2  26
ATOM     26  C   LIG    1       24.022 -29.480  13.304  0.00  0.00    +0.137 A 
ATOM     27  C   LIG    1       24.727 -30.215  14.307  0.00  0.00    +0.157 A 
ATOM     28  C   LIG    1       25.991 -29.780  14.753  0.00  0.00    +0.049 A 
ATOM     29  C   LIG    1       26.539 -28.577  14.346  0.00  0.00    +0.016 A 
ATOM     30  C   LIG    1       25.859 -27.784  13.433  0.00  0.00    +0.058 A 
ATOM     31  C   LIG    1       24.622 -28.244  12.921  0.00  0.00    +0.056 A 
BRANCH  30  32
ATOM     32  C   LIG    1       26.539 -26.514  12.983  0.00  0.00    +0.417 C 
ATOM     33  F   LIG    1       27.089 -26.658  11.742  0.00  0.00    -0.166 F 
ATOM     34  F   LIG    1       27.577 -26.163  13.796  0.00  0.00    -0.166 F 
ATOM     35  F   LIG    1       25.725 -25.431  12.912  0.00  0.00    -0.166 F 
ENDBRANCH  30  32
BRANCH  27  36
ATOM     36  O   LIG    1       24.188 -31.370  14.821  0.00  0.00    -0.492 OA
ATOM     37  C   LIG    1       24.895 -32.599  14.592  0.00  0.00    +0.277 C 
ENDBRANCH  27  36
ENDBRANCH   2  26
BRANCH   3  38
ATOM     38  C   LIG    1       20.780 -28.462  12.479  0.00  0.00    +0.164 C 
BRANCH  38  39
ATOM     39  C   LIG    1       20.746 -27.121  13.088  0.00  0.00    +0.308 C 
ATOM     40  O   LIG    1       21.581 -26.734  13.942  0.00  0.00    -0.251 OA
BRANCH  39  41
ATOM     41  O   LIG    1       19.747 -26.330  12.670  0.00  0.00    -0.480 OA
ATOM     42  H   LIG    1       19.535 -26.393  11.720  0.00  0.00    +0.295 HD
ENDBRANCH  39  41
ENDBRANCH  38  39
ENDBRANCH   3  38
TORSDOF 9
ENDMDL
MODEL 3
REMARK VINA RESULT:      -5.5      3.062      3.986
REMARK  Name = *****
REMARK                            x       y       z     vdW  Elec       q    Type
REMARK                         _______ _______ _______ _____ _____    ______ ____
ROOT
ATOM      1  C   LIG    1       22.416 -30.798  10.940  0.00  0.00    +0.380 C 
ATOM      2  N   LIG    1       22.603 -30.163  12.179  0.00  0.00    -0.181 N 
ATOM      3  C   LIG    1       21.373 -29.582  12.799  0.00  0.00    +0.189 C 
ATOM      4  C   LIG    1       20.157 -30.462  12.489  0.00  0.00    +0.033 A 
ATOM      5  C   LIG    1       20.098 -31.049  11.223  0.00  0.00    +0.183 A 
ATOM      6  C   LIG    1       18.856 -31.514  10.756  0.00  0.00    +0.166 A 
ATOM      7  C   LIG    1       17.715 -31.485  11.559  0.00  0.00    +0.042 A 
ATOM      8  C   LIG    1       17.813 -31.021  12.867  0.00  0.00    +0.003 A 
ATOM      9  F   LIG    1       18.725 -31.956   9.495  0.00  0.00    -0.202 F 
ATOM     10  C   LIG    1       19.027 -30.506  13.331  0.00  0.00    +0.010 A 
ATOM     11  N   LIG    1       21.256 -31.152  10.440  0.00  0.00    -0.073 NA
ENDROOT
BRANCH   1  15
ATOM     12  N   LIG    1       26.063 -30.900   8.772  0.00  0.00    -0.324 N 
ATOM     13  C   LIG    1       25.113 -29.762   8.661  0.00  0.00    +0.140 C 
ATOM     14  C   LIG    1       23.668 -30.255   8.864  0.00  0.00    +0.206 C 
ATOM     15  N   LIG    1       23.517 -30.996  10.137  0.00  0.00    -0.221 N 
ATOM     16  C   LIG    1       24.507 -32.055  10.353  0.00  0.00    +0.206 C 
ATOM     17  C   LIG    1       25.940 -31.533  10.115  0.00  0.00    +0.140 C 
BRANCH  12  20
ATOM     18  C   LIG    1       26.154 -32.217   5.245  0.00  0.00    +0.122 A 
ATOM     19  C   LIG    1       25.779 -31.473   6.378  0.00  0.00    +0.068 A 
ATOM     20  C   LIG    1       26.354 -31.690   7.652  0.00  0.00    +0.033 A 
ATOM     21  C   LIG    1       27.325 -32.709   7.713  0.00  0.00    +0.023 A 
ATOM     22  C   LIG    1       27.695 -33.463   6.598  0.00  0.00    +0.005 A 
ATOM     23  C   LIG    1       27.119 -33.210   5.367  0.00  0.00    +0.046 A 
BRANCH  18  25
ATOM     24  C   LIG    1       25.884 -32.710   2.954  0.00  0.00    +0.277 C 
ATOM     25  O   LIG    1       25.526 -31.890   4.066  0.00  0.00    -0.495 OA
ENDBRANCH  18  25
ENDBRANCH  12  20
ENDBRANCH   1  15
BRANCH   2  26
ATOM     26  C   LIG    1       23.779 -30.261  13.016  0.00  0.00    +0.137 A 
ATOM     27  C   LIG    1       24.031 -31.308  13.954  0.00  0.00    +0.157 A 
ATOM     28  C   LIG    1       25.271 -31.386  14.619  0.00  0.00    +0.049 A 
ATOM     29  C   LIG    1       26.233 -30.400  14.497  0.00  0.00    +0.016 A 
ATOM     30  C   LIG    1       26.007 -29.318  13.659  0.00  0.00    +0.058 A 
ATOM     31  C   LIG    1       24.796 -29.264  12.928  0.00  0.00    +0.056 A 
BRANCH  30  32
ATOM     32  C   LIG    1       27.121 -28.309  13.522  0.00  0.00    +0.417 C 
ATOM     33  F   LIG    1       27.071 -27.376  14.518  0.00  0.00    -0.166 F 
ATOM     34  F   LIG    1       27.040 -27.597  12.361  0.00  0.00    -0.166 F 
ATOM     35  F   LIG    1       28.371 -28.836  13.562  0.00  0.00    -0.166 F 
ENDBRANCH  30  32
BRANCH  27  36
ATOM     36  O   LIG    1       23.075 -32.266  14.191  0.00  0.00    -0.492 OA
ATOM     37  C   LIG    1       23.195 -33.520  13.501  0.00  0.00    +0.277 C 
ENDBRANCH  27  36
ENDBRANCH   2  26
BRANCH   3  38
ATOM     38  C   LIG    1       21.087 -28.197  12.165  0.00  0.00    +0.164 C 
BRANCH  38  39
ATOM     39  C   LIG    1       20.845 -27.138  13.160  0.00  0.00    +0.308 C 
ATOM     40  O   LIG    1       21.760 -26.620  13.846  0.00  0.00    -0.251 OA
BRANCH  39  41
ATOM     41  O   LIG    1       19.564 -26.762  13.292  0.00  0.00    -0.480 OA
ATOM     42  H   LIG    1       18.950 -27.137  12.635  0.00  0.00    +0.295 HD
ENDBRANCH  39  41
ENDBRANCH  38  39
ENDBRANCH   3  38
TORSDOF 9
ENDMDL
MODEL 4
REMARK VINA RESULT:      -5.5      3.108      3.932
REMARK  Name = *****
REMARK                            x       y       z     vdW  Elec       q    Type
REMARK                         _______ _______ _______ _____ _____    ______ ____
ROOT
ATOM      1  C   LIG    1       22.129 -30.616  11.606  0.00  0.00    +0.380 C 
ATOM      2  N   LIG    1       22.456 -29.750  12.663  0.00  0.00    -0.181 N 
ATOM      3  C   LIG    1       21.297 -29.181  13.414  0.00  0.00    +0.189 C 
ATOM      4  C   LIG    1       20.164 -30.210  13.501  0.00  0.00    +0.033 A 
ATOM      5  C   LIG    1       19.950 -31.021  12.384  0.00  0.00    +0.183 A 
ATOM      6  C   LIG    1       18.712 -31.675  12.256  0.00  0.00    +0.166 A 
ATOM      7  C   LIG    1       17.740 -31.604  13.255  0.00  0.00    +0.042 A 
ATOM      8  C   LIG    1       18.015 -30.901  14.425  0.00  0.00    +0.003 A 
ATOM      9  F   LIG    1       18.411 -32.350  11.135  0.00  0.00    -0.202 F 
ATOM     10  C   LIG    1       19.219 -30.201  14.547  0.00  0.00    +0.010 A 
ATOM     11  N   LIG    1       20.951 -31.159  11.412  0.00  0.00    -0.073 NA
ENDROOT
BRANCH   1  15
ATOM     12  N   LIG    1       25.490 -31.354   9.123  0.00  0.00    -0.324 N 
ATOM     13  C   LIG    1       25.332 -30.081   9.875  0.00  0.00    +0.140 C 
ATOM     14  C   LIG    1       23.838 -29.739  10.031  0.00  0.00    +0.206 C 
ATOM     15  N   LIG    1       23.083 -30.856  10.642  0.00  0.00    -0.221 N 
ATOM     16  C   LIG    1       23.297 -32.162  10.011  0.00  0.00    +0.206 C 
ATOM     17  C   LIG    1       24.802 -32.459   9.847  0.00  0.00    +0.140 C 
BRANCH  12  20
ATOM     18  C   LIG    1       25.218 -30.226   5.540  0.00  0.00    +0.122 A 
ATOM     19  C   LIG    1       25.095 -30.249   6.940  0.00  0.00    +0.068 A 
ATOM     20  C   LIG    1       25.519 -31.349   7.722  0.00  0.00    +0.033 A 
ATOM     21  C   LIG    1       26.070 -32.427   7.003  0.00  0.00    +0.023 A 
ATOM     22  C   LIG    1       26.185 -32.422   5.611  0.00  0.00    +0.005 A 
ATOM     23  C   LIG    1       25.770 -31.321   4.885  0.00  0.00    +0.046 A 
BRANCH  18  25
ATOM     24  C   LIG    1       24.483 -27.999   5.782  0.00  0.00    +0.277 C 
ATOM     25  O   LIG    1       24.779 -29.088   4.908  0.00  0.00    -0.495 OA
ENDBRANCH  18  25
ENDBRANCH  12  20
ENDBRANCH   1  15
BRANCH   2  26
ATOM     26  C   LIG    1       23.768 -29.587  13.253  0.00  0.00    +0.137 A 
ATOM     27  C   LIG    1       24.444 -30.575  14.032  0.00  0.00    +0.157 A 
ATOM     28  C   LIG    1       25.776 -30.368  14.444  0.00  0.00    +0.049 A 
ATOM     29  C   LIG    1       26.434 -29.171  14.229  0.00  0.00    +0.016 A 
ATOM     30  C   LIG    1       25.795 -28.146  13.546  0.00  0.00    +0.058 A 
ATOM     31  C   LIG    1       24.482 -28.366  13.064  0.00  0.00    +0.056 A 
BRANCH  30  32
ATOM     32  C   LIG    1       26.588 -26.888  13.292  0.00  0.00    +0.417 C 
ATOM     33  F   LIG    1       27.161 -26.905  12.053  0.00  0.00    -0.166 F 
ATOM     34  F   LIG    1       27.626 -26.741  14.165  0.00  0.00    -0.166 F 
ATOM     35  F   LIG    1       25.865 -25.741  13.357  0.00  0.00    -0.166 F 
ENDBRANCH  30  32
BRANCH  27  36
ATOM     36  O   LIG    1       23.809 -31.748  14.360  0.00  0.00    -0.492 OA
ATOM     37  C   LIG    1       24.242 -32.951  13.705  0.00  0.00    +0.277 C 
ENDBRANCH  27  36
ENDBRANCH   2  26
BRANCH   3  38
ATOM     38  C   LIG    1       20.731 -27.967  12.635  0.00  0.00    +0.164 C 
BRANCH  38  39
ATOM     39  C   LIG    1       20.249 -26.884  13.510  0.00  0.00    +0.308 C 
ATOM     40  O   LIG    1       20.774 -26.613  14.617  0.00  0.00    -0.251 OA
BRANCH  39  41
ATOM     41  O   LIG    1       19.194 -26.201  13.042  0.00  0.00    -0.480 OA
ATOM     42  H   LIG    1       19.193 -26.043  12.080  0.00  0.00    +0.295 HD
ENDBRANCH  39  41
ENDBRANCH  38  39
ENDBRANCH   3  38
TORSDOF 9
ENDMDL
MODEL 5
REMARK VINA RESULT:      -5.2      4.312      7.837
REMARK  Name = *****
REMARK                            x       y       z     vdW  Elec       q    Type
REMARK                         _______ _______ _______ _____ _____    ______ ____
ROOT
ATOM      1  C   LIG    1       22.447 -30.771  10.575  0.00  0.00    +0.380 C 
ATOM      2  N   LIG    1       23.210 -30.413  11.699  0.00  0.00    -0.181 N 
ATOM      3  C   LIG    1       24.670 -30.211  11.450  0.00  0.00    +0.189 C 
ATOM      4  C   LIG    1       24.892 -29.597  10.064  0.00  0.00    +0.033 A 
ATOM      5  C   LIG    1       24.055 -30.027   9.032  0.00  0.00    +0.183 A 
ATOM      6  C   LIG    1       24.462 -29.813   7.703  0.00  0.00    +0.166 A 
ATOM      7  C   LIG    1       25.627 -29.105   7.400  0.00  0.00    +0.042 A 
ATOM      8  C   LIG    1       26.385 -28.565   8.434  0.00  0.00    +0.003 A 
ATOM      9  F   LIG    1       23.760 -30.332   6.684  0.00  0.00    -0.202 F 
ATOM     10  C   LIG    1       26.024 -28.813   9.762  0.00  0.00    +0.010 A 
ATOM     11  N   LIG    1       22.846 -30.671   9.329  0.00  0.00    -0.073 NA
ENDROOT
BRANCH   1  15
ATOM     12  N   LIG    1       18.648 -32.661  10.573  0.00  0.00    -0.324 N 
ATOM     13  C   LIG    1       18.882 -31.364   9.885  0.00  0.00    +0.140 C 
ATOM     14  C   LIG    1       19.972 -30.562  10.620  0.00  0.00    +0.206 C 
ATOM     15  N   LIG    1       21.215 -31.351  10.781  0.00  0.00    -0.221 N 
ATOM     16  C   LIG    1       21.026 -32.690  11.346  0.00  0.00    +0.206 C 
ATOM     17  C   LIG    1       19.909 -33.453  10.603  0.00  0.00    +0.140 C 
BRANCH  12  20
ATOM     18  C   LIG    1       16.709 -31.826  13.692  0.00  0.00    +0.122 A 
ATOM     19  C   LIG    1       17.681 -31.778  12.677  0.00  0.00    +0.068 A 
ATOM     20  C   LIG    1       17.747 -32.741  11.643  0.00  0.00    +0.033 A 
ATOM     21  C   LIG    1       16.776 -33.759  11.701  0.00  0.00    +0.023 A 
ATOM     22  C   LIG    1       15.814 -33.825  12.711  0.00  0.00    +0.005 A 
ATOM     23  C   LIG    1       15.775 -32.855  13.696  0.00  0.00    +0.046 A 
BRANCH  18  25
ATOM     24  C   LIG    1       17.738 -29.816  14.373  0.00  0.00    +0.277 C 
ATOM     25  O   LIG    1       16.752 -30.817  14.625  0.00  0.00    -0.495 OA
ENDBRANCH  18  25
ENDBRANCH  12  20
ENDBRANCH   1  15
BRANCH   2  26
ATOM     26  C   LIG    1       22.689 -29.963  12.971  0.00  0.00    +0.137 A 
ATOM     27  C   LIG    1       22.643 -30.750  14.162  0.00  0.00    +0.157 A 
ATOM     28  C   LIG    1       22.244 -30.172  15.384  0.00  0.00    +0.049 A 
ATOM     29  C   LIG    1       21.763 -28.877  15.461  0.00  0.00    +0.016 A 
ATOM     30  C   LIG    1       21.711 -28.093  14.318  0.00  0.00    +0.058 A 
ATOM     31  C   LIG    1       22.177 -28.637  13.098  0.00  0.00    +0.056 A 
BRANCH  30  32
ATOM     32  C   LIG    1       21.234 -26.670  14.480  0.00  0.00    +0.417 C 
ATOM     33  F   LIG    1       21.326 -25.979  13.307  0.00  0.00    -0.166 F 
ATOM     34  F   LIG    1       21.988 -25.966  15.372  0.00  0.00    -0.166 F 
ATOM     35  F   LIG    1       19.945 -26.549  14.888  0.00  0.00    -0.166 F 
ENDBRANCH  30  32
BRANCH  27  36
ATOM     36  O   LIG    1       23.018 -32.071  14.130  0.00  0.00    -0.492 OA
ATOM     37  C   LIG    1       22.387 -32.971  15.055  0.00  0.00    +0.277 C 
ENDBRANCH  27  36
ENDBRANCH   2  26
BRANCH   3  38
ATOM     38  C   LIG    1       25.382 -31.588  11.441  0.00  0.00    +0.164 C 
BRANCH  38  39
ATOM     39  C   LIG    1       26.000 -31.935  12.733  0.00  0.00    +0.308 C 
ATOM     40  O   LIG    1       26.653 -31.114  13.423  0.00  0.00    -0.251 OA
BRANCH  39  41
ATOM     41  O   LIG    1       25.822 -33.204  13.127  0.00  0.00    -0.480 OA
ATOM     42  H   LIG    1       25.322 -33.767  12.507  0.00  0.00    +0.295 HD
ENDBRANCH  39  41
ENDBRANCH  38  39
ENDBRANCH   3  38
TORSDOF 9
ENDMDL
MODEL 6
REMARK VINA RESULT:      -5.1      4.343      6.965
REMARK  Name = *****
REMARK                            x       y       z     vdW  Elec       q    Type
REMARK                         _______ _______ _______ _____ _____    ______ ____
ROOT
ATOM      1  C   LIG    1       23.612 -30.149   9.174  0.00  0.00    +0.380 C 
ATOM      2  N   LIG    1       24.693 -29.790   9.996  0.00  0.00    -0.181 N 
ATOM      3  C   LIG    1       25.906 -29.287   9.285  0.00  0.00    +0.189 C 
ATOM      4  C   LIG    1       25.499 -28.481   8.046  0.00  0.00    +0.033 A 
ATOM      5  C   LIG    1       24.395 -28.936   7.321  0.00  0.00    +0.183 A 
ATOM      6  C   LIG    1       24.231 -28.492   5.997  0.00  0.00    +0.166 A 
ATOM      7  C   LIG    1       25.087 -27.545   5.432  0.00  0.00    +0.042 A 
ATOM      8  C   LIG    1       26.106 -26.998   6.207  0.00  0.00    +0.003 A 
ATOM      9  F   LIG    1       23.267 -29.009   5.220  0.00  0.00    -0.202 F 
ATOM     10  C   LIG    1       26.316 -27.466   7.508  0.00  0.00    +0.010 A 
ATOM     11  N   LIG    1       23.487 -29.828   7.908  0.00  0.00    -0.073 NA
ENDROOT
BRANCH   1  15
ATOM     12  N   LIG    1       21.079 -32.895  11.187  0.00  0.00    -0.324 N 
ATOM     13  C   LIG    1       22.236 -33.346  10.368  0.00  0.00    +0.140 C 
ATOM     14  C   LIG    1       22.482 -32.361   9.210  0.00  0.00    +0.206 C 
ATOM     15  N   LIG    1       22.640 -30.972   9.698  0.00  0.00    -0.221 N 
ATOM     16  C   LIG    1       21.585 -30.516  10.608  0.00  0.00    +0.206 C 
ATOM     17  C   LIG    1       21.347 -31.538  11.739  0.00  0.00    +0.140 C 
BRANCH  12  20
ATOM     18  C   LIG    1       17.375 -33.559  11.338  0.00  0.00    +0.122 A 
ATOM     19  C   LIG    1       18.694 -33.283  11.738  0.00  0.00    +0.068 A 
ATOM     20  C   LIG    1       19.774 -33.258  10.826  0.00  0.00    +0.033 A 
ATOM     21  C   LIG    1       19.442 -33.536   9.485  0.00  0.00    +0.023 A 
ATOM     22  C   LIG    1       18.138 -33.825   9.078  0.00  0.00    +0.005 A 
ATOM     23  C   LIG    1       17.107 -33.825  10.000  0.00  0.00    +0.046 A 
BRANCH  18  25
ATOM     24  C   LIG    1       16.933 -33.324  13.643  0.00  0.00    +0.277 C 
ATOM     25  O   LIG    1       16.420 -33.535  12.327  0.00  0.00    -0.495 OA
ENDBRANCH  18  25
ENDBRANCH  12  20
ENDBRANCH   1  15
BRANCH   2  26
ATOM     26  C   LIG    1       24.644 -29.601  11.430  0.00  0.00    +0.137 A 
ATOM     27  C   LIG    1       24.800 -30.640  12.399  0.00  0.00    +0.157 A 
ATOM     28  C   LIG    1       24.873 -30.329  13.771  0.00  0.00    +0.049 A 
ATOM     29  C   LIG    1       24.672 -29.045  14.246  0.00  0.00    +0.016 A 
ATOM     30  C   LIG    1       24.437 -28.010  13.352  0.00  0.00    +0.058 A 
ATOM     31  C   LIG    1       24.432 -28.296  11.966  0.00  0.00    +0.056 A 
BRANCH  30  32
ATOM     32  C   LIG    1       24.286 -26.624  13.929  0.00  0.00    +0.417 C 
ATOM     33  F   LIG    1       25.267 -25.789  13.478  0.00  0.00    -0.166 F 
ATOM     34  F   LIG    1       24.400 -26.609  15.288  0.00  0.00    -0.166 F 
ATOM     35  F   LIG    1       23.108 -26.015  13.637  0.00  0.00    -0.166 F 
ENDBRANCH  30  32
BRANCH  27  36
ATOM     36  O   LIG    1       24.909 -31.948  11.994  0.00  0.00    -0.492 OA
ATOM     37  C   LIG    1       24.872 -32.968  13.005  0.00  0.00    +0.277 C 
ENDBRANCH  27  36
ENDBRANCH   2  26
BRANCH   3  38
ATOM     38  C   LIG    1       26.734 -30.493   8.772  0.00  0.00    +0.164 C 
BRANCH  38  39
ATOM     39  C   LIG    1       27.415 -31.233   9.849  0.00  0.00    +0.308 C 
ATOM     40  O   LIG    1       27.338 -32.479   9.979  0.00  0.00    -0.251 OA
BRANCH  39  41
ATOM     41  O   LIG    1       28.129 -30.478  10.696  0.00  0.00    -0.480 OA
ATOM     42  H   LIG    1       29.079 -30.405  10.491  0.00  0.00    +0.295 HD
ENDBRANCH  39  41
ENDBRANCH  38  39
ENDBRANCH   3  38
TORSDOF 9
ENDMDL
MODEL 7
REMARK VINA RESULT:      -5.0      3.400      4.418
REMARK  Name = *****
REMARK                            x       y       z     vdW  Elec       q    Type
REMARK                         _______ _______ _______ _____ _____    ______ ____
ROOT
ATOM      1  C   LIG    1       21.906 -30.619  11.322  0.00  0.00    +0.380 C 
ATOM      2  N   LIG    1       22.260 -29.996  12.531  0.00  0.00    -0.181 N 
ATOM      3  C   LIG    1       21.131 -29.384  13.296  0.00  0.00    +0.189 C 
ATOM      4  C   LIG    1       19.862 -30.227  13.134  0.00  0.00    +0.033 A 
ATOM      5  C   LIG    1       19.633 -30.806  11.884  0.00  0.00    +0.183 A 
ATOM      6  C   LIG    1       18.331 -31.233  11.569  0.00  0.00    +0.166 A 
ATOM      7  C   LIG    1       17.296 -31.176  12.505  0.00  0.00    +0.042 A 
ATOM      8  C   LIG    1       17.565 -30.721  13.792  0.00  0.00    +0.003 A 
ATOM      9  F   LIG    1       18.036 -31.665  10.333  0.00  0.00    -0.202 F 
ATOM     10  C   LIG    1       18.841 -30.243  14.107  0.00  0.00    +0.010 A 
ATOM     11  N   LIG    1       20.684 -30.938  10.966  0.00  0.00    -0.073 NA
ENDROOT
BRANCH   1  15
ATOM     12  N   LIG    1       25.354 -31.357   8.961  0.00  0.00    -0.324 N 
ATOM     13  C   LIG    1       25.209 -30.123   9.778  0.00  0.00    +0.140 C 
ATOM     14  C   LIG    1       23.724 -29.728   9.883  0.00  0.00    +0.206 C 
ATOM     15  N   LIG    1       22.896 -30.845  10.391  0.00  0.00    -0.221 N 
ATOM     16  C   LIG    1       23.089 -32.121   9.696  0.00  0.00    +0.206 C 
ATOM     17  C   LIG    1       24.588 -32.471   9.586  0.00  0.00    +0.140 C 
BRANCH  12  20
ATOM     18  C   LIG    1       25.194 -30.052   5.431  0.00  0.00    +0.122 A 
ATOM     19  C   LIG    1       25.003 -30.158   6.820  0.00  0.00    +0.068 A 
ATOM     20  C   LIG    1       25.452 -31.273   7.565  0.00  0.00    +0.033 A 
ATOM     21  C   LIG    1       26.100 -32.278   6.821  0.00  0.00    +0.023 A 
ATOM     22  C   LIG    1       26.284 -32.190   5.439  0.00  0.00    +0.005 A 
ATOM     23  C   LIG    1       25.842 -31.076   4.750  0.00  0.00    +0.046 A 
BRANCH  18  25
ATOM     24  C   LIG    1       25.324 -27.701   5.304  0.00  0.00    +0.277 C 
ATOM     25  O   LIG    1       24.720 -28.907   4.837  0.00  0.00    -0.495 OA
ENDBRANCH  18  25
ENDBRANCH  12  20
ENDBRANCH   1  15
BRANCH   2  26
ATOM     26  C   LIG    1       23.525 -30.133  13.218  0.00  0.00    +0.137 A 
ATOM     27  C   LIG    1       24.363 -29.046  13.616  0.00  0.00    +0.157 A 
ATOM     28  C   LIG    1       25.508 -29.279  14.403  0.00  0.00    +0.049 A 
ATOM     29  C   LIG    1       25.939 -30.556  14.712  0.00  0.00    +0.016 A 
ATOM     30  C   LIG    1       25.206 -31.653  14.283  0.00  0.00    +0.058 A 
ATOM     31  C   LIG    1       24.014 -31.431  13.553  0.00  0.00    +0.056 A 
BRANCH  30  32
ATOM     32  C   LIG    1       25.696 -33.016  14.705  0.00  0.00    +0.417 C 
ATOM     33  F   LIG    1       26.869 -32.929  15.398  0.00  0.00    -0.166 F 
ATOM     34  F   LIG    1       25.969 -33.825  13.640  0.00  0.00    -0.166 F 
ATOM     35  F   LIG    1       24.838 -33.705  15.500  0.00  0.00    -0.166 F 
ENDBRANCH  30  32
BRANCH  27  36
ATOM     36  O   LIG    1       24.039 -27.759  13.257  0.00  0.00    -0.492 OA
ATOM     37  C   LIG    1       24.020 -26.760  14.288  0.00  0.00    +0.277 C 
ENDBRANCH  27  36
ENDBRANCH   2  26
BRANCH   3  38
ATOM     38  C   LIG    1       20.811 -27.988  12.703  0.00  0.00    +0.164 C 
BRANCH  38  39
ATOM     39  C   LIG    1       20.195 -27.068  13.676  0.00  0.00    +0.308 C 
ATOM     40  O   LIG    1       20.636 -26.905  14.839  0.00  0.00    -0.251 OA
BRANCH  39  41
ATOM     41  O   LIG    1       19.113 -26.411  13.232  0.00  0.00    -0.480 OA
ATOM     42  H   LIG    1       19.105 -26.220  12.276  0.00  0.00    +0.295 HD
ENDBRANCH  39  41
ENDBRANCH  38  39
ENDBRANCH   3  38
TORSDOF 9
ENDMDL
MODEL 8
REMARK VINA RESULT:      -4.7      3.887      7.157
REMARK  Name = *****
REMARK                            x       y       z     vdW  Elec       q    Type
REMARK                         _______ _______ _______ _____ _____    ______ ____
ROOT
ATOM      1  C   LIG    1       25.359 -30.525  11.659  0.00  0.00    +0.380 C 
ATOM      2  N   LIG    1       26.056 -29.906  10.609  0.00  0.00    -0.181 N 
ATOM      3  C   LIG    1       27.204 -29.041  11.018  0.00  0.00    +0.189 C 
ATOM      4  C   LIG    1       27.903 -29.633  12.246  0.00  0.00    +0.033 A 
ATOM      5  C   LIG    1       27.096 -30.235  13.214  0.00  0.00    +0.183 A 
ATOM      6  C   LIG    1       27.621 -30.423  14.505  0.00  0.00    +0.166 A 
ATOM      7  C   LIG    1       28.946 -30.109  14.808  0.00  0.00    +0.042 A 
ATOM      8  C   LIG    1       29.782 -29.633  13.802  0.00  0.00    +0.003 A 
ATOM      9  F   LIG    1       26.838 -30.868  15.500  0.00  0.00    -0.202 F 
ATOM     10  C   LIG    1       29.263 -29.390  12.526  0.00  0.00    +0.010 A 
ATOM     11  N   LIG    1       25.788 -30.625  12.895  0.00  0.00    -0.073 NA
ENDROOT
BRANCH   1  15
ATOM     12  N   LIG    1       21.572 -31.846  10.272  0.00  0.00    -0.324 N 
ATOM     13  C   LIG    1       21.997 -30.425  10.166  0.00  0.00    +0.140 C 
ATOM     14  C   LIG    1       22.940 -30.066  11.330  0.00  0.00    +0.206 C 
ATOM     15  N   LIG    1       24.089 -30.996  11.410  0.00  0.00    -0.221 N 
ATOM     16  C   LIG    1       23.731 -32.418  11.396  0.00  0.00    +0.206 C 
ATOM     17  C   LIG    1       22.766 -32.736  10.235  0.00  0.00    +0.140 C 
BRANCH  12  20
ATOM     18  C   LIG    1       18.106 -31.918  11.742  0.00  0.00    +0.122 A 
ATOM     19  C   LIG    1       19.235 -31.496  11.019  0.00  0.00    +0.068 A 
ATOM     20  C   LIG    1       20.464 -32.196  11.055  0.00  0.00    +0.033 A 
ATOM     21  C   LIG    1       20.484 -33.343  11.871  0.00  0.00    +0.023 A 
ATOM     22  C   LIG    1       19.373 -33.764  12.605  0.00  0.00    +0.005 A 
ATOM     23  C   LIG    1       18.185 -33.059  12.531  0.00  0.00    +0.046 A 
BRANCH  18  25
ATOM     24  C   LIG    1       16.224 -30.974  12.805  0.00  0.00    +0.277 C 
ATOM     25  O   LIG    1       16.973 -31.152  11.603  0.00  0.00    -0.495 OA
ENDBRANCH  18  25
ENDBRANCH  12  20
ENDBRANCH   1  15
BRANCH   2  26
ATOM     26  C   LIG    1       25.949 -30.239   9.205  0.00  0.00    +0.137 A 
ATOM     27  C   LIG    1       26.368 -31.473   8.622  0.00  0.00    +0.157 A 
ATOM     28  C   LIG    1       26.093 -31.752   7.268  0.00  0.00    +0.049 A 
ATOM     29  C   LIG    1       25.531 -30.812   6.424  0.00  0.00    +0.016 A 
ATOM     30  C   LIG    1       25.177 -29.565   6.920  0.00  0.00    +0.058 A 
ATOM     31  C   LIG    1       25.381 -29.298   8.295  0.00  0.00    +0.056 A 
BRANCH  30  32
ATOM     32  C   LIG    1       24.513 -28.606   5.963  0.00  0.00    +0.417 C 
ATOM     33  F   LIG    1       23.422 -29.173   5.370  0.00  0.00    -0.166 F 
ATOM     34  F   LIG    1       25.333 -28.245   4.934  0.00  0.00    -0.166 F 
ATOM     35  F   LIG    1       24.077 -27.452   6.529  0.00  0.00    -0.166 F 
ENDBRANCH  30  32
BRANCH  27  36
ATOM     36  O   LIG    1       27.018 -32.412   9.387  0.00  0.00    -0.492 OA
ATOM     37  C   LIG    1       27.425 -33.632   8.749  0.00  0.00    +0.277 C 
ENDBRANCH  27  36
ENDBRANCH   2  26
BRANCH   3  38
ATOM     38  C   LIG    1       26.668 -27.650  11.443  0.00  0.00    +0.164 C 
BRANCH  38  39
ATOM     39  C   LIG    1       26.513 -27.505  12.901  0.00  0.00    +0.308 C 
ATOM     40  O   LIG    1       27.421 -27.064  13.647  0.00  0.00    -0.251 OA
BRANCH  39  41
ATOM     41  O   LIG    1       25.322 -27.885  13.388  0.00  0.00    -0.480 OA
ATOM     42  H   LIG    1       25.073 -28.809  13.204  0.00  0.00    +0.295 HD
ENDBRANCH  39  41
ENDBRANCH  38  39
ENDBRANCH   3  38
TORSDOF 9
ENDMDL
MODEL 9
REMARK VINA RESULT:      -4.7      3.511      7.360
REMARK  Name = *****
REMARK                            x       y       z     vdW  Elec       q    Type
REMARK                         _______ _______ _______ _____ _____    ______ ____
ROOT
ATOM      1  C   LIG    1       23.814 -30.291   9.781  0.00  0.00    +0.380 C 
ATOM      2  N   LIG    1       24.824 -29.638  10.507  0.00  0.00    -0.181 N 
ATOM      3  C   LIG    1       25.971 -29.124   9.698  0.00  0.00    +0.189 C 
ATOM      4  C   LIG    1       25.480 -28.635   8.331  0.00  0.00    +0.033 A 
ATOM      5  C   LIG    1       24.458 -29.366   7.720  0.00  0.00    +0.183 A 
ATOM      6  C   LIG    1       24.257 -29.213   6.336  0.00  0.00    +0.166 A 
ATOM      7  C   LIG    1       24.988 -28.288   5.589  0.00  0.00    +0.042 A 
ATOM      8  C   LIG    1       25.912 -27.469   6.232  0.00  0.00    +0.003 A 
ATOM      9  F   LIG    1       23.383 -29.996   5.685  0.00  0.00    -0.202 F 
ATOM     10  C   LIG    1       26.163 -27.644   7.597  0.00  0.00    +0.010 A 
ATOM     11  N   LIG    1       23.667 -30.241   8.478  0.00  0.00    -0.073 NA
ENDROOT
BRANCH   1  15
ATOM     12  N   LIG    1       21.124 -33.180  11.338  0.00  0.00    -0.324 N 
ATOM     13  C   LIG    1       20.735 -32.251  10.244  0.00  0.00    +0.140 C 
ATOM     14  C   LIG    1       21.488 -30.915  10.389  0.00  0.00    +0.206 C 
ATOM     15  N   LIG    1       22.952 -31.119  10.465  0.00  0.00    -0.221 N 
ATOM     16  C   LIG    1       23.385 -32.117  11.448  0.00  0.00    +0.206 C 
ATOM     17  C   LIG    1       22.592 -33.431  11.291  0.00  0.00    +0.140 C 
BRANCH  12  20
ATOM     18  C   LIG    1       18.508 -32.574  13.979  0.00  0.00    +0.122 A 
ATOM     19  C   LIG    1       19.198 -32.528  12.754  0.00  0.00    +0.068 A 
ATOM     20  C   LIG    1       20.462 -33.135  12.572  0.00  0.00    +0.033 A 
ATOM     21  C   LIG    1       20.991 -33.784  13.705  0.00  0.00    +0.023 A 
ATOM     22  C   LIG    1       20.322 -33.825  14.930  0.00  0.00    +0.005 A 
ATOM     23  C   LIG    1       19.080 -33.231  15.061  0.00  0.00    +0.046 A 
BRANCH  18  25
ATOM     24  C   LIG    1       17.304 -30.569  13.673  0.00  0.00    +0.277 C 
ATOM     25  O   LIG    1       17.280 -31.956  14.010  0.00  0.00    -0.495 OA
ENDBRANCH  18  25
ENDBRANCH  12  20
ENDBRANCH   1  15
BRANCH   2  26
ATOM     26  C   LIG    1       24.728 -29.183  11.877  0.00  0.00    +0.137 A 
ATOM     27  C   LIG    1       25.703 -29.427  12.891  0.00  0.00    +0.157 A 
ATOM     28  C   LIG    1       25.581 -28.823  14.158  0.00  0.00    +0.049 A 
ATOM     29  C   LIG    1       24.467 -28.084  14.515  0.00  0.00    +0.016 A 
ATOM     30  C   LIG    1       23.451 -27.882  13.593  0.00  0.00    +0.058 A 
ATOM     31  C   LIG    1       23.594 -28.423  12.293  0.00  0.00    +0.056 A 
BRANCH  30  32
ATOM     32  C   LIG    1       22.292 -27.017  14.024  0.00  0.00    +0.417 C 
ATOM     33  F   LIG    1       21.291 -27.766  14.572  0.00  0.00    -0.166 F 
ATOM     34  F   LIG    1       21.715 -26.359  12.978  0.00  0.00    -0.166 F 
ATOM     35  F   LIG    1       22.604 -26.072  14.947  0.00  0.00    -0.166 F 
ENDBRANCH  30  32
BRANCH  27  36
ATOM     36  O   LIG    1       26.786 -30.232  12.627  0.00  0.00    -0.492 OA
ATOM     37  C   LIG    1       28.094 -29.710  12.911  0.00  0.00    +0.277 C 
ENDBRANCH  27  36
ENDBRANCH   2  26
BRANCH   3  38
ATOM     38  C   LIG    1       26.961 -30.285   9.421  0.00  0.00    +0.164 C 
BRANCH  38  39
ATOM     39  C   LIG    1       26.353 -31.618   9.567  0.00  0.00    +0.308 C 
ATOM     40  O   LIG    1       26.320 -32.241  10.657  0.00  0.00    -0.251 OA
BRANCH  39  41
ATOM     41  O   LIG    1       25.834 -32.135   8.443  0.00  0.00    -0.480 OA
ATOM     42  H   LIG    1       25.561 -33.069   8.501  0.00  0.00    +0.295 HD
ENDBRANCH  39  41
ENDBRANCH  38  39
ENDBRANCH   3  38
TORSDOF 9
ENDMDL
