MODEL 1
REMARK VINA RESULT:      -2.9      0.000      0.000
REMARK  Name = *****
REMARK                            x       y       z     vdW  Elec       q    Type
REMARK                         _______ _______ _______ _____ _____    ______ ____
ROOT
ATOM      1  C   LIG    1       23.112 -16.915   4.326  0.00  0.00    +0.059 A 
ATOM      2  C   LIG    1       24.458 -16.470   3.975  0.00  0.00    +0.006 A 
ATOM      3  C   LIG    1       24.940 -15.116   3.986  0.00  0.00    -0.013 A 
ATOM      4  C   LIG    1       26.313 -14.835   3.563  0.00  0.00    +0.009 A 
ATOM      5  C   LIG    1       27.210 -15.744   3.132  0.00  0.00    +0.001 A 
ATOM      6  C   LIG    1       26.789 -17.030   3.281  0.00  0.00    +0.001 A 
ATOM      7  C   LIG    1       24.051 -14.189   4.407  0.00  0.00    -0.036 A 
ATOM      8  C   LIG    1       22.768 -14.620   4.866  0.00  0.00    +0.006 A 
ATOM      9  C   LIG    1       25.441 -17.286   3.681  0.00  0.00    +0.010 A 
ATOM     10  C   LIG    1       22.319 -15.951   4.852  0.00  0.00    +0.027 A 
ENDROOT
BRANCH   1  12
ATOM     11  C   LIG    1       23.261 -19.576   4.530  0.00  0.00    +0.197 A 
ATOM     12  N   LIG    1       22.634 -18.341   4.257  0.00  0.00    -0.264 N 
ATOM     13  C   LIG    1       21.342 -18.802   3.939  0.00  0.00    +0.205 A 
ATOM     14 BR   LIG    1       20.031 -18.134   2.781  0.00  0.00    -0.006 Br
ATOM     15  N   LIG    1       21.139 -19.979   4.504  0.00  0.00    -0.121 NA
ATOM     16  N   LIG    1       22.353 -20.482   4.843  0.00  0.00    -0.121 NA
BRANCH  11  17
ATOM     17  S   LIG    1       24.823 -20.139   3.946  0.00  0.00    -0.074 S 
BRANCH  17  18
ATOM     18  C   LIG    1       25.487 -21.107   5.287  0.00  0.00    +0.197 C 
BRANCH  18  20
ATOM     19  O   LIG    1       26.924 -20.088   7.058  0.00  0.00    -0.250 OA
ATOM     20  C   LIG    1       26.743 -20.464   5.886  0.00  0.00    +0.315 C 
BRANCH  20  21
ATOM     21  O   LIG    1       27.587 -20.052   4.907  0.00  0.00    -0.480 OA
ATOM     22  H   LIG    1       27.813 -20.814   4.329  0.00  0.00    +0.295 HD
ENDBRANCH  20  21
ENDBRANCH  18  20
ENDBRANCH  17  18
ENDBRANCH  11  17
ENDBRANCH   1  12
BRANCH   7  23
ATOM     23  C   LIG    1       24.428 -12.713   4.350  0.00  0.00    +0.020 C 
ATOM     24  C   LIG    1       23.870 -11.829   3.301  0.00  0.00    +0.009 C 
ATOM     25  C   LIG    1       23.511 -11.642   4.751  0.00  0.00    +0.009 C 
ENDBRANCH   7  23
TORSDOF 6
ENDMDL
MODEL 2
REMARK VINA RESULT:      -2.6      3.953      6.796
REMARK  Name = *****
REMARK                            x       y       z     vdW  Elec       q    Type
REMARK                         _______ _______ _______ _____ _____    ______ ____
ROOT
ATOM      1  C   LIG    1       27.046 -16.776   4.002  0.00  0.00    +0.059 A 
ATOM      2  C   LIG    1       26.249 -17.999   4.013  0.00  0.00    +0.006 A 
ATOM      3  C   LIG    1       26.636 -19.266   4.570  0.00  0.00    -0.013 A 
ATOM      4  C   LIG    1       25.729 -20.410   4.459  0.00  0.00    +0.009 A 
ATOM      5  C   LIG    1       24.525 -20.410   3.854  0.00  0.00    +0.001 A 
ATOM      6  C   LIG    1       24.111 -19.171   3.477  0.00  0.00    +0.001 A 
ATOM      7  C   LIG    1       27.844 -19.287   5.174  0.00  0.00    -0.036 A 
ATOM      8  C   LIG    1       28.587 -18.071   5.276  0.00  0.00    +0.006 A 
ATOM      9  C   LIG    1       25.014 -18.066   3.579  0.00  0.00    +0.010 A 
ATOM     10  C   LIG    1       28.188 -16.841   4.729  0.00  0.00    +0.027 A 
ENDROOT
BRANCH   1  12
ATOM     11  C   LIG    1       27.344 -14.415   2.785  0.00  0.00    +0.197 A 
ATOM     12  N   LIG    1       26.621 -15.479   3.366  0.00  0.00    -0.264 N 
ATOM     13  C   LIG    1       25.310 -15.023   3.133  0.00  0.00    +0.205 A 
ATOM     14 BR   LIG    1       23.719 -15.263   4.090  0.00  0.00    -0.006 Br
ATOM     15  N   LIG    1       25.305 -14.187   2.109  0.00  0.00    -0.121 NA
ATOM     16  N   LIG    1       26.584 -13.777   1.915  0.00  0.00    -0.121 NA
BRANCH  11  17
ATOM     17  S   LIG    1       28.722 -13.556   3.464  0.00  0.00    -0.074 S 
BRANCH  17  18
ATOM     18  C   LIG    1       28.012 -12.382   4.601  0.00  0.00    +0.197 C 
BRANCH  18  20
ATOM     19  O   LIG    1       25.620 -12.681   5.259  0.00  0.00    -0.250 OA
ATOM     20  C   LIG    1       26.824 -12.977   5.366  0.00  0.00    +0.315 C 
BRANCH  20  21
ATOM     21  O   LIG    1       27.251 -13.694   6.436  0.00  0.00    -0.480 OA
ATOM     22  H   LIG    1       27.854 -14.408   6.131  0.00  0.00    +0.295 HD
ENDBRANCH  20  21
ENDBRANCH  18  20
ENDBRANCH  17  18
ENDBRANCH  11  17
ENDBRANCH   1  12
BRANCH   7  23
ATOM     23  C   LIG    1       28.394 -20.609   5.698  0.00  0.00    +0.020 C 
ATOM     24  C   LIG    1       29.394 -20.634   6.789  0.00  0.00    +0.009 C 
ATOM     25  C   LIG    1       28.004 -21.176   6.993  0.00  0.00    +0.009 C 
ENDBRANCH   7  23
TORSDOF 6
ENDMDL
MODEL 3
REMARK VINA RESULT:      -2.5      2.765      4.089
REMARK  Name = *****
REMARK                            x       y       z     vdW  Elec       q    Type
REMARK                         _______ _______ _______ _____ _____    ______ ____
ROOT
ATOM      1  C   LIG    1       25.922 -17.158   3.785  0.00  0.00    +0.059 A 
ATOM      2  C   LIG    1       25.132 -15.944   3.964  0.00  0.00    +0.006 A 
ATOM      3  C   LIG    1       25.626 -14.594   3.958  0.00  0.00    -0.013 A 
ATOM      4  C   LIG    1       24.700 -13.485   4.196  0.00  0.00    +0.009 A 
ATOM      5  C   LIG    1       23.380 -13.596   4.444  0.00  0.00    +0.001 A 
ATOM      6  C   LIG    1       22.906 -14.861   4.287  0.00  0.00    +0.001 A 
ATOM      7  C   LIG    1       26.949 -14.464   3.719  0.00  0.00    -0.036 A 
ATOM      8  C   LIG    1       27.717 -15.633   3.426  0.00  0.00    +0.006 A 
ATOM      9  C   LIG    1       23.825 -15.935   4.070  0.00  0.00    +0.010 A 
ATOM     10  C   LIG    1       27.212 -16.944   3.431  0.00  0.00    +0.027 A 
ENDROOT
BRANCH   1  12
ATOM     11  C   LIG    1       24.154 -19.128   3.410  0.00  0.00    +0.197 A 
ATOM     12  N   LIG    1       25.371 -18.558   3.844  0.00  0.00    -0.264 N 
ATOM     13  C   LIG    1       26.010 -19.716   4.327  0.00  0.00    +0.205 A 
ATOM     14 BR   LIG    1       27.250 -19.971   5.706  0.00  0.00    -0.006 Br
ATOM     15  N   LIG    1       25.504 -20.783   3.734  0.00  0.00    -0.121 NA
ATOM     16  N   LIG    1       24.316 -20.418   3.187  0.00  0.00    -0.121 NA
BRANCH  11  17
ATOM     17  S   LIG    1       22.523 -18.541   3.718  0.00  0.00    -0.074 S 
BRANCH  17  18
ATOM     18  C   LIG    1       22.217 -18.926   5.430  0.00  0.00    +0.197 C 
BRANCH  18  20
ATOM     19  O   LIG    1       23.474 -20.799   6.505  0.00  0.00    -0.250 OA
ATOM     20  C   LIG    1       22.570 -20.381   5.759  0.00  0.00    +0.315 C 
BRANCH  20  21
ATOM     21  O   LIG    1       21.961 -21.231   4.894  0.00  0.00    -0.480 OA
ATOM     22  H   LIG    1       22.490 -22.057   4.823  0.00  0.00    +0.295 HD
ENDBRANCH  20  21
ENDBRANCH  18  20
ENDBRANCH  17  18
ENDBRANCH  11  17
ENDBRANCH   1  12
BRANCH   7  23
ATOM     23  C   LIG    1       27.592 -13.084   3.803  0.00  0.00    +0.020 C 
ATOM     24  C   LIG    1       28.283 -12.644   5.035  0.00  0.00    +0.009 C 
ATOM     25  C   LIG    1       29.043 -12.877   3.756  0.00  0.00    +0.009 C 
ENDBRANCH   7  23
TORSDOF 6
ENDMDL
MODEL 4
REMARK VINA RESULT:      -2.2      3.892      6.074
REMARK  Name = *****
REMARK                            x       y       z     vdW  Elec       q    Type
REMARK                         _______ _______ _______ _____ _____    ______ ____
ROOT
ATOM      1  C   LIG    1       24.013 -15.439   3.966  0.00  0.00    +0.059 A 
ATOM      2  C   LIG    1       24.591 -16.772   3.815  0.00  0.00    +0.006 A 
ATOM      3  C   LIG    1       23.981 -18.016   4.195  0.00  0.00    -0.013 A 
ATOM      4  C   LIG    1       24.718 -19.268   4.012  0.00  0.00    +0.009 A 
ATOM      5  C   LIG    1       25.966 -19.385   3.519  0.00  0.00    +0.001 A 
ATOM      6  C   LIG    1       26.462 -18.221   3.020  0.00  0.00    +0.001 A 
ATOM      7  C   LIG    1       22.731 -17.917   4.699  0.00  0.00    -0.036 A 
ATOM      8  C   LIG    1       22.104 -16.633   4.745  0.00  0.00    +0.006 A 
ATOM      9  C   LIG    1       25.736 -17.005   3.220  0.00  0.00    +0.010 A 
ATOM     10  C   LIG    1       22.718 -15.429   4.364  0.00  0.00    +0.027 A 
ENDROOT
BRANCH   1  12
ATOM     11  C   LIG    1       25.890 -13.878   2.877  0.00  0.00    +0.197 A 
ATOM     12  N   LIG    1       24.707 -14.155   3.597  0.00  0.00    -0.264 N 
ATOM     13  C   LIG    1       24.277 -12.839   3.852  0.00  0.00    +0.205 A 
ATOM     14 BR   LIG    1       23.309 -12.099   5.273  0.00  0.00    -0.006 Br
ATOM     15  N   LIG    1       24.786 -12.022   2.948  0.00  0.00    -0.121 NA
ATOM     16  N   LIG    1       25.826 -12.666   2.358  0.00  0.00    -0.121 NA
BRANCH  11  17
ATOM     17  S   LIG    1       27.479 -14.597   3.104  0.00  0.00    -0.074 S 
BRANCH  17  18
ATOM     18  C   LIG    1       28.503 -13.262   3.691  0.00  0.00    +0.197 C 
BRANCH  18  20
ATOM     19  O   LIG    1       27.186 -13.224   5.813  0.00  0.00    -0.250 OA
ATOM     20  C   LIG    1       28.180 -12.892   5.142  0.00  0.00    +0.315 C 
BRANCH  20  21
ATOM     21  O   LIG    1       28.973 -11.877   5.569  0.00  0.00    -0.480 OA
ATOM     22  H   LIG    1       29.816 -11.887   5.063  0.00  0.00    +0.295 HD
ENDBRANCH  20  21
ENDBRANCH  18  20
ENDBRANCH  17  18
ENDBRANCH  11  17
ENDBRANCH   1  12
BRANCH   7  23
ATOM     23  C   LIG    1       22.040 -19.166   5.235  0.00  0.00    +0.020 C 
ATOM     24  C   LIG    1       22.250 -20.482   4.592  0.00  0.00    +0.009 C 
ATOM     25  C   LIG    1       22.749 -20.207   5.986  0.00  0.00    +0.009 C 
ENDBRANCH   7  23
TORSDOF 6
ENDMDL
MODEL 5
REMARK VINA RESULT:      -2.1      2.458      2.848
REMARK  Name = *****
REMARK                            x       y       z     vdW  Elec       q    Type
REMARK                         _______ _______ _______ _____ _____    ______ ____
ROOT
ATOM      1  C   LIG    1       24.565 -16.521   3.980  0.00  0.00    +0.059 A 
ATOM      2  C   LIG    1       25.724 -15.637   3.891  0.00  0.00    +0.006 A 
ATOM      3  C   LIG    1       25.719 -14.205   4.016  0.00  0.00    -0.013 A 
ATOM      4  C   LIG    1       26.970 -13.462   3.858  0.00  0.00    +0.009 A 
ATOM      5  C   LIG    1       28.177 -13.995   3.584  0.00  0.00    +0.001 A 
ATOM      6  C   LIG    1       28.190 -15.354   3.628  0.00  0.00    +0.001 A 
ATOM      7  C   LIG    1       24.515 -13.653   4.284  0.00  0.00    -0.036 A 
ATOM      8  C   LIG    1       23.391 -14.511   4.490  0.00  0.00    +0.006 A 
ATOM      9  C   LIG    1       26.957 -16.065   3.768  0.00  0.00    +0.010 A 
ATOM     10  C   LIG    1       23.419 -15.910   4.369  0.00  0.00    +0.027 A 
ENDROOT
BRANCH   1  12
ATOM     11  C   LIG    1       23.619 -18.968   3.471  0.00  0.00    +0.197 A 
ATOM     12  N   LIG    1       24.608 -18.014   3.797  0.00  0.00    -0.264 N 
ATOM     13  C   LIG    1       25.733 -18.858   3.854  0.00  0.00    +0.205 A 
ATOM     14 BR   LIG    1       27.302 -18.774   4.873  0.00  0.00    -0.006 Br
ATOM     15  N   LIG    1       25.518 -19.937   3.123  0.00  0.00    -0.121 NA
ATOM     16  N   LIG    1       24.180 -20.024   2.913  0.00  0.00    -0.121 NA
BRANCH  11  17
ATOM     17  S   LIG    1       22.034 -19.168   4.211  0.00  0.00    -0.074 S 
BRANCH  17  18
ATOM     18  C   LIG    1       22.094 -20.769   4.989  0.00  0.00    +0.197 C 
BRANCH  18  20
ATOM     19  O   LIG    1       23.432 -20.236   7.030  0.00  0.00    -0.250 OA
ATOM     20  C   LIG    1       23.259 -20.878   5.978  0.00  0.00    +0.315 C 
BRANCH  20  21
ATOM     21  O   LIG    1       24.290 -21.572   5.433  0.00  0.00    -0.480 OA
ATOM     22  H   LIG    1       23.941 -22.212   4.775  0.00  0.00    +0.295 HD
ENDBRANCH  20  21
ENDBRANCH  18  20
ENDBRANCH  17  18
ENDBRANCH  11  17
ENDBRANCH   1  12
BRANCH   7  23
ATOM     23  C   LIG    1       24.383 -12.135   4.324  0.00  0.00    +0.020 C 
ATOM     24  C   LIG    1       23.296 -11.449   3.589  0.00  0.00    +0.009 C 
ATOM     25  C   LIG    1       23.341 -11.447   5.095  0.00  0.00    +0.009 C 
ENDBRANCH   7  23
TORSDOF 6
ENDMDL
MODEL 6
REMARK VINA RESULT:      -2.1      1.143      2.756
REMARK  Name = *****
REMARK                            x       y       z     vdW  Elec       q    Type
REMARK                         _______ _______ _______ _____ _____    ______ ____
ROOT
ATOM      1  C   LIG    1       24.727 -17.590   3.976  0.00  0.00    +0.059 A 
ATOM      2  C   LIG    1       24.395 -16.172   4.079  0.00  0.00    +0.006 A 
ATOM      3  C   LIG    1       25.236 -15.068   3.704  0.00  0.00    -0.013 A 
ATOM      4  C   LIG    1       24.764 -13.698   3.912  0.00  0.00    +0.009 A 
ATOM      5  C   LIG    1       23.582 -13.342   4.453  0.00  0.00    +0.001 A 
ATOM      6  C   LIG    1       22.741 -14.392   4.652  0.00  0.00    +0.001 A 
ATOM      7  C   LIG    1       26.428 -15.406   3.166  0.00  0.00    -0.036 A 
ATOM      8  C   LIG    1       26.722 -16.788   2.950  0.00  0.00    +0.006 A 
ATOM      9  C   LIG    1       23.222 -15.725   4.458  0.00  0.00    +0.010 A 
ATOM     10  C   LIG    1       25.883 -17.852   3.319  0.00  0.00    +0.027 A 
ENDROOT
BRANCH   1  12
ATOM     11  C   LIG    1       24.078 -19.901   5.152  0.00  0.00    +0.197 A 
ATOM     12  N   LIG    1       23.834 -18.716   4.425  0.00  0.00    -0.264 N 
ATOM     13  C   LIG    1       22.440 -18.827   4.262  0.00  0.00    +0.205 A 
ATOM     14 BR   LIG    1       21.294 -18.242   2.903  0.00  0.00    -0.006 Br
ATOM     15  N   LIG    1       21.941 -19.594   5.215  0.00  0.00    -0.121 NA
ATOM     16  N   LIG    1       22.971 -20.297   5.751  0.00  0.00    -0.121 NA
BRANCH  11  17
ATOM     17  S   LIG    1       25.336 -21.098   4.862  0.00  0.00    -0.074 S 
BRANCH  17  18
ATOM     18  C   LIG    1       26.301 -21.115   6.360  0.00  0.00    +0.197 C 
BRANCH  18  20
ATOM     19  O   LIG    1       28.383 -19.925   7.062  0.00  0.00    -0.250 OA
ATOM     20  C   LIG    1       27.644 -20.398   6.179  0.00  0.00    +0.315 C 
BRANCH  20  21
ATOM     21  O   LIG    1       27.833 -20.050   4.882  0.00  0.00    -0.480 OA
ATOM     22  H   LIG    1       27.902 -20.862   4.333  0.00  0.00    +0.295 HD
ENDBRANCH  20  21
ENDBRANCH  18  20
ENDBRANCH  17  18
ENDBRANCH  11  17
ENDBRANCH   1  12
BRANCH   7  23
ATOM     23  C   LIG    1       27.437 -14.311   2.839  0.00  0.00    +0.020 C 
ATOM     24  C   LIG    1       27.203 -12.913   3.265  0.00  0.00    +0.009 C 
ATOM     25  C   LIG    1       28.331 -13.727   3.844  0.00  0.00    +0.009 C 
ENDBRANCH   7  23
TORSDOF 6
ENDMDL
MODEL 7
REMARK VINA RESULT:      -2.0      3.738      6.617
REMARK  Name = *****
REMARK                            x       y       z     vdW  Elec       q    Type
REMARK                         _______ _______ _______ _____ _____    ______ ____
ROOT
ATOM      1  C   LIG    1       25.323 -16.408   3.545  0.00  0.00    +0.059 A 
ATOM      2  C   LIG    1       24.121 -17.179   3.851  0.00  0.00    +0.006 A 
ATOM      3  C   LIG    1       24.040 -18.604   4.019  0.00  0.00    -0.013 A 
ATOM      4  C   LIG    1       22.742 -19.227   4.283  0.00  0.00    +0.009 A 
ATOM      5  C   LIG    1       21.561 -18.585   4.377  0.00  0.00    +0.001 A 
ATOM      6  C   LIG    1       21.681 -17.230   4.375  0.00  0.00    +0.001 A 
ATOM      7  C   LIG    1       25.214 -19.266   3.919  0.00  0.00    -0.036 A 
ATOM      8  C   LIG    1       26.417 -18.516   3.737  0.00  0.00    +0.006 A 
ATOM      9  C   LIG    1       22.954 -16.638   4.101  0.00  0.00    +0.010 A 
ATOM     10  C   LIG    1       26.475 -17.121   3.581  0.00  0.00    +0.027 A 
ENDROOT
BRANCH   1  12
ATOM     11  C   LIG    1       26.227 -14.073   2.610  0.00  0.00    +0.197 A 
ATOM     12  N   LIG    1       25.356 -14.918   3.331  0.00  0.00    -0.264 N 
ATOM     13  C   LIG    1       24.428 -13.962   3.785  0.00  0.00    +0.205 A 
ATOM     14 BR   LIG    1       23.379 -13.881   5.333  0.00  0.00    -0.006 Br
ATOM     15  N   LIG    1       24.445 -12.911   2.984  0.00  0.00    -0.121 NA
ATOM     16  N   LIG    1       25.597 -12.964   2.269  0.00  0.00    -0.121 NA
BRANCH  11  17
ATOM     17  S   LIG    1       27.986 -14.040   2.670  0.00  0.00    -0.074 S 
BRANCH  17  18
ATOM     18  C   LIG    1       28.382 -12.551   3.566  0.00  0.00    +0.197 C 
BRANCH  18  20
ATOM     19  O   LIG    1       27.353 -13.372   5.690  0.00  0.00    -0.250 OA
ATOM     20  C   LIG    1       28.236 -12.742   5.080  0.00  0.00    +0.315 C 
BRANCH  20  21
ATOM     21  O   LIG    1       29.036 -11.878   5.754  0.00  0.00    -0.480 OA
ATOM     22  H   LIG    1       28.646 -11.693   6.637  0.00  0.00    +0.295 HD
ENDBRANCH  20  21
ENDBRANCH  18  20
ENDBRANCH  17  18
ENDBRANCH  11  17
ENDBRANCH   1  12
BRANCH   7  23
ATOM     23  C   LIG    1       25.219 -20.790   3.970  0.00  0.00    +0.020 C 
ATOM     24  C   LIG    1       25.429 -21.504   5.250  0.00  0.00    +0.009 C 
ATOM     25  C   LIG    1       24.110 -21.571   4.526  0.00  0.00    +0.009 C 
ENDBRANCH   7  23
TORSDOF 6
ENDMDL
MODEL 8
REMARK VINA RESULT:      -1.7      3.810      6.469
REMARK  Name = *****
REMARK                            x       y       z     vdW  Elec       q    Type
REMARK                         _______ _______ _______ _____ _____    ______ ____
ROOT
ATOM      1  C   LIG    1       25.680 -16.954   3.658  0.00  0.00    +0.059 A 
ATOM      2  C   LIG    1       26.739 -17.744   4.280  0.00  0.00    +0.006 A 
ATOM      3  C   LIG    1       26.652 -19.119   4.689  0.00  0.00    -0.013 A 
ATOM      4  C   LIG    1       27.800 -19.753   5.339  0.00  0.00    +0.009 A 
ATOM      5  C   LIG    1       28.976 -19.159   5.622  0.00  0.00    +0.001 A 
ATOM      6  C   LIG    1       29.095 -17.914   5.088  0.00  0.00    +0.001 A 
ATOM      7  C   LIG    1       25.476 -19.728   4.420  0.00  0.00    -0.036 A 
ATOM      8  C   LIG    1       24.470 -19.005   3.706  0.00  0.00    +0.006 A 
ATOM      9  C   LIG    1       27.960 -17.304   4.468  0.00  0.00    +0.010 A 
ATOM     10  C   LIG    1       24.578 -17.662   3.311  0.00  0.00    +0.027 A 
ENDROOT
BRANCH   1  12
ATOM     11  C   LIG    1       26.859 -14.727   2.765  0.00  0.00    +0.197 A 
ATOM     12  N   LIG    1       25.798 -15.499   3.287  0.00  0.00    -0.264 N 
ATOM     13  C   LIG    1       24.791 -14.516   3.323  0.00  0.00    +0.205 A 
ATOM     14 BR   LIG    1       23.326 -14.275   4.463  0.00  0.00    -0.006 Br
ATOM     15  N   LIG    1       25.064 -13.569   2.443  0.00  0.00    -0.121 NA
ATOM     16  N   LIG    1       26.377 -13.681   2.120  0.00  0.00    -0.121 NA
BRANCH  11  17
ATOM     17  S   LIG    1       28.518 -14.648   3.347  0.00  0.00    -0.074 S 
BRANCH  17  18
ATOM     18  C   LIG    1       28.762 -12.941   3.796  0.00  0.00    +0.197 C 
BRANCH  18  20
ATOM     19  O   LIG    1       27.083 -12.871   5.645  0.00  0.00    -0.250 OA
ATOM     20  C   LIG    1       28.220 -12.638   5.198  0.00  0.00    +0.315 C 
BRANCH  20  21
ATOM     21  O   LIG    1       29.044 -11.786   5.859  0.00  0.00    -0.480 OA
ATOM     22  H   LIG    1       29.800 -11.547   5.278  0.00  0.00    +0.295 HD
ENDBRANCH  20  21
ENDBRANCH  18  20
ENDBRANCH  17  18
ENDBRANCH  11  17
ENDBRANCH   1  12
BRANCH   7  23
ATOM     23  C   LIG    1       25.243 -21.152   4.913  0.00  0.00    +0.020 C 
ATOM     24  C   LIG    1       25.287 -21.470   6.358  0.00  0.00    +0.009 C 
ATOM     25  C   LIG    1       24.004 -21.571   5.576  0.00  0.00    +0.009 C 
ENDBRANCH   7  23
TORSDOF 6
ENDMDL
