MODEL 1
REMARK VINA RESULT:      -5.4      0.000      0.000
REMARK  Name = *****
REMARK                            x       y       z     vdW  Elec       q    Type
REMARK                         _______ _______ _______ _____ _____    ______ ____
ROOT
ATOM      1  C   LIG    1       25.170 -13.501   4.070  0.00  0.00    +0.052 C 
ATOM      2  C   LIG    1       24.199 -12.516   4.719  0.00  0.00    +0.021 C 
ATOM      3  C   LIG    1       25.512 -13.075   2.653  0.00  0.00    +0.226 C 
ATOM      4  O   LIG    1       24.737 -12.640   1.818  0.00  0.00    -0.275 OA
ATOM      5  N   LIG    1       26.837 -13.276   2.448  0.00  0.00    -0.256 N 
ATOM      6  H   LIG    1       27.294 -13.071   1.573  0.00  0.00    +0.158 HD
ATOM      7  C   LIG    1       27.526 -13.420   3.605  0.00  0.00    +0.220 C 
ATOM      8  O   LIG    1       28.742 -13.442   3.706  0.00  0.00    -0.275 OA
ATOM      9  C   LIG    1       26.555 -13.450   4.751  0.00  0.00    +0.112 C 
ENDROOT
BRANCH   1  11
ATOM     10  C   LIG    1       23.179 -15.116   4.462  0.00  0.00    +0.005 C 
ATOM     11  C   LIG    1       24.643 -14.955   4.072  0.00  0.00    +0.013 C 
ENDBRANCH   1  11
TORSDOF 1
ENDMDL
MODEL 2
REMARK VINA RESULT:      -5.0      1.756      2.146
REMARK  Name = *****
REMARK                            x       y       z     vdW  Elec       q    Type
REMARK                         _______ _______ _______ _____ _____    ______ ____
ROOT
ATOM      1  C   LIG    1       25.846 -13.818   3.221  0.00  0.00    +0.052 C 
ATOM      2  C   LIG    1       25.035 -13.785   1.927  0.00  0.00    +0.021 C 
ATOM      3  C   LIG    1       26.644 -15.106   3.332  0.00  0.00    +0.226 C 
ATOM      4  O   LIG    1       26.255 -16.228   3.053  0.00  0.00    -0.275 OA
ATOM      5  N   LIG    1       27.875 -14.812   3.817  0.00  0.00    -0.256 N 
ATOM      6  H   LIG    1       28.581 -15.513   3.982  0.00  0.00    +0.158 HD
ATOM      7  C   LIG    1       28.176 -13.497   3.708  0.00  0.00    +0.220 C 
ATOM      8  O   LIG    1       29.274 -13.004   3.910  0.00  0.00    -0.275 OA
ATOM      9  C   LIG    1       26.969 -12.760   3.203  0.00  0.00    +0.112 C 
ENDROOT
BRANCH   1  11
ATOM     10  C   LIG    1       23.669 -14.417   4.498  0.00  0.00    +0.005 C 
ATOM     11  C   LIG    1       24.973 -13.628   4.484  0.00  0.00    +0.013 C 
ENDBRANCH   1  11
TORSDOF 1
ENDMDL
MODEL 3
REMARK VINA RESULT:      -4.9      1.898      2.979
REMARK  Name = *****
REMARK                            x       y       z     vdW  Elec       q    Type
REMARK                         _______ _______ _______ _____ _____    ______ ____
ROOT
ATOM      1  C   LIG    1       25.712 -13.634   3.669  0.00  0.00    +0.052 C 
ATOM      2  C   LIG    1       25.011 -12.864   4.787  0.00  0.00    +0.021 C 
ATOM      3  C   LIG    1       27.160 -13.919   4.027  0.00  0.00    +0.226 C 
ATOM      4  O   LIG    1       27.942 -13.148   4.559  0.00  0.00    -0.275 OA
ATOM      5  N   LIG    1       27.462 -15.183   3.640  0.00  0.00    -0.256 N 
ATOM      6  H   LIG    1       28.374 -15.593   3.770  0.00  0.00    +0.158 HD
ATOM      7  C   LIG    1       26.358 -15.934   3.412  0.00  0.00    +0.220 C 
ATOM      8  O   LIG    1       26.351 -17.139   3.222  0.00  0.00    -0.275 OA
ATOM      9  C   LIG    1       25.141 -15.062   3.532  0.00  0.00    +0.112 C 
ENDROOT
BRANCH   1  11
ATOM     10  C   LIG    1       24.456 -11.966   2.130  0.00  0.00    +0.005 C 
ATOM     11  C   LIG    1       25.639 -12.911   2.303  0.00  0.00    +0.013 C 
ENDBRANCH   1  11
TORSDOF 1
ENDMDL
MODEL 4
REMARK VINA RESULT:      -4.7      1.553      3.211
REMARK  Name = *****
REMARK                            x       y       z     vdW  Elec       q    Type
REMARK                         _______ _______ _______ _____ _____    ______ ____
ROOT
ATOM      1  C   LIG    1       25.550 -14.319   3.878  0.00  0.00    +0.052 C 
ATOM      2  C   LIG    1       25.298 -15.817   3.715  0.00  0.00    +0.021 C 
ATOM      3  C   LIG    1       26.050 -13.706   2.581  0.00  0.00    +0.226 C 
ATOM      4  O   LIG    1       26.871 -14.189   1.818  0.00  0.00    -0.275 OA
ATOM      5  N   LIG    1       25.444 -12.506   2.408  0.00  0.00    -0.256 N 
ATOM      6  H   LIG    1       25.626 -11.910   1.615  0.00  0.00    +0.158 HD
ATOM      7  C   LIG    1       24.341 -12.364   3.180  0.00  0.00    +0.220 C 
ATOM      8  O   LIG    1       23.528 -11.459   3.091  0.00  0.00    -0.275 OA
ATOM      9  C   LIG    1       24.229 -13.551   4.094  0.00  0.00    +0.112 C 
ENDROOT
BRANCH   1  11
ATOM     10  C   LIG    1       27.770 -13.203   4.622  0.00  0.00    +0.005 C 
ATOM     11  C   LIG    1       26.534 -13.995   5.028  0.00  0.00    +0.013 C 
ENDBRANCH   1  11
TORSDOF 1
ENDMDL
MODEL 5
REMARK VINA RESULT:      -4.5      6.781      7.615
REMARK  Name = *****
REMARK                            x       y       z     vdW  Elec       q    Type
REMARK                         _______ _______ _______ _____ _____    ______ ____
ROOT
ATOM      1  C   LIG    1       24.207 -20.325   4.530  0.00  0.00    +0.052 C 
ATOM      2  C   LIG    1       23.856 -21.197   3.325  0.00  0.00    +0.021 C 
ATOM      3  C   LIG    1       23.771 -20.985   5.827  0.00  0.00    +0.226 C 
ATOM      4  O   LIG    1       22.720 -21.571   6.026  0.00  0.00    -0.275 OA
ATOM      5  N   LIG    1       24.743 -20.802   6.753  0.00  0.00    -0.256 N 
ATOM      6  H   LIG    1       24.672 -21.149   7.698  0.00  0.00    +0.158 HD
ATOM      7  C   LIG    1       25.927 -20.448   6.202  0.00  0.00    +0.220 C 
ATOM      8  O   LIG    1       26.993 -20.390   6.793  0.00  0.00    -0.275 OA
ATOM      9  C   LIG    1       25.735 -20.235   4.727  0.00  0.00    +0.112 C 
ENDROOT
BRANCH   1  11
ATOM     10  C   LIG    1       22.087 -18.833   4.437  0.00  0.00    +0.005 C 
ATOM     11  C   LIG    1       23.610 -18.901   4.436  0.00  0.00    +0.013 C 
ENDBRANCH   1  11
TORSDOF 1
ENDMDL
MODEL 6
REMARK VINA RESULT:      -4.5      1.950      3.471
REMARK  Name = *****
REMARK                            x       y       z     vdW  Elec       q    Type
REMARK                         _______ _______ _______ _____ _____    ______ ____
ROOT
ATOM      1  C   LIG    1       26.449 -14.012   3.441  0.00  0.00    +0.052 C 
ATOM      2  C   LIG    1       27.950 -13.797   3.257  0.00  0.00    +0.021 C 
ATOM      3  C   LIG    1       25.981 -13.473   4.782  0.00  0.00    +0.226 C 
ATOM      4  O   LIG    1       26.555 -13.590   5.852  0.00  0.00    -0.275 OA
ATOM      5  N   LIG    1       24.793 -12.845   4.605  0.00  0.00    -0.256 N 
ATOM      6  H   LIG    1       24.284 -12.412   5.361  0.00  0.00    +0.158 HD
ATOM      7  C   LIG    1       24.551 -12.545   3.307  0.00  0.00    +0.220 C 
ATOM      8  O   LIG    1       23.644 -11.836   2.903  0.00  0.00    -0.275 OA
ATOM      9  C   LIG    1       25.636 -13.142   2.458  0.00  0.00    +0.112 C 
ENDROOT
BRANCH   1  11
ATOM     10  C   LIG    1       27.101 -16.512   3.664  0.00  0.00    +0.005 C 
ATOM     11  C   LIG    1       26.030 -15.494   3.292  0.00  0.00    +0.013 C 
ENDBRANCH   1  11
TORSDOF 1
ENDMDL
MODEL 7
REMARK VINA RESULT:      -4.4      1.938      3.564
REMARK  Name = *****
REMARK                            x       y       z     vdW  Elec       q    Type
REMARK                         _______ _______ _______ _____ _____    ______ ____
ROOT
ATOM      1  C   LIG    1       26.050 -13.891   3.412  0.00  0.00    +0.052 C 
ATOM      2  C   LIG    1       26.918 -14.233   2.202  0.00  0.00    +0.021 C 
ATOM      3  C   LIG    1       24.936 -12.931   3.030  0.00  0.00    +0.226 C 
ATOM      4  O   LIG    1       25.032 -11.962   2.296  0.00  0.00    -0.275 OA
ATOM      5  N   LIG    1       23.799 -13.316   3.659  0.00  0.00    -0.256 N 
ATOM      6  H   LIG    1       22.925 -12.822   3.562  0.00  0.00    +0.158 HD
ATOM      7  C   LIG    1       23.861 -14.590   4.114  0.00  0.00    +0.220 C 
ATOM      8  O   LIG    1       22.921 -15.228   4.559  0.00  0.00    -0.275 OA
ATOM      9  C   LIG    1       25.248 -15.120   3.889  0.00  0.00    +0.112 C 
ENDROOT
BRANCH   1  11
ATOM     10  C   LIG    1       28.316 -12.972   4.276  0.00  0.00    +0.005 C 
ATOM     11  C   LIG    1       26.864 -13.311   4.593  0.00  0.00    +0.013 C 
ENDBRANCH   1  11
TORSDOF 1
ENDMDL
MODEL 8
REMARK VINA RESULT:      -4.3      2.023      2.714
REMARK  Name = *****
REMARK                            x       y       z     vdW  Elec       q    Type
REMARK                         _______ _______ _______ _____ _____    ______ ____
ROOT
ATOM      1  C   LIG    1       26.419 -14.385   3.409  0.00  0.00    +0.052 C 
ATOM      2  C   LIG    1       26.225 -15.895   3.278  0.00  0.00    +0.021 C 
ATOM      3  C   LIG    1       25.626 -13.832   4.580  0.00  0.00    +0.226 C 
ATOM      4  O   LIG    1       24.487 -14.137   4.894  0.00  0.00    -0.275 OA
ATOM      5  N   LIG    1       26.388 -12.915   5.225  0.00  0.00    -0.256 N 
ATOM      6  H   LIG    1       26.066 -12.407   6.034  0.00  0.00    +0.158 HD
ATOM      7  C   LIG    1       27.701 -13.018   4.911  0.00  0.00    +0.220 C 
ATOM      8  O   LIG    1       28.610 -12.431   5.475  0.00  0.00    -0.275 OA
ATOM      9  C   LIG    1       27.865 -14.043   3.826  0.00  0.00    +0.112 C 
ENDROOT
BRANCH   1  11
ATOM     10  C   LIG    1       24.702 -12.918   2.134  0.00  0.00    +0.005 C 
ATOM     11  C   LIG    1       26.056 -13.618   2.115  0.00  0.00    +0.013 C 
ENDBRANCH   1  11
TORSDOF 1
ENDMDL
MODEL 9
REMARK VINA RESULT:      -4.3      2.109      3.571
REMARK  Name = *****
REMARK                            x       y       z     vdW  Elec       q    Type
REMARK                         _______ _______ _______ _____ _____    ______ ____
ROOT
ATOM      1  C   LIG    1       26.107 -13.767   3.758  0.00  0.00    +0.052 C 
ATOM      2  C   LIG    1       27.274 -13.316   4.634  0.00  0.00    +0.021 C 
ATOM      3  C   LIG    1       26.147 -15.267   3.525  0.00  0.00    +0.226 C 
ATOM      4  O   LIG    1       27.137 -15.938   3.282  0.00  0.00    -0.275 OA
ATOM      5  N   LIG    1       24.885 -15.753   3.612  0.00  0.00    -0.256 N 
ATOM      6  H   LIG    1       24.663 -16.729   3.485  0.00  0.00    +0.158 HD
ATOM      7  C   LIG    1       24.039 -14.895   4.229  0.00  0.00    +0.220 C 
ATOM      8  O   LIG    1       22.901 -15.157   4.583  0.00  0.00    -0.275 OA
ATOM      9  C   LIG    1       24.761 -13.605   4.495  0.00  0.00    +0.112 C 
ENDROOT
BRANCH   1  11
ATOM     10  C   LIG    1       24.748 -12.284   2.120  0.00  0.00    +0.005 C 
ATOM     11  C   LIG    1       26.050 -13.024   2.402  0.00  0.00    +0.013 C 
ENDBRANCH   1  11
TORSDOF 1
ENDMDL
