MODEL 1
REMARK VINA RESULT:       1.4      0.000      0.000
REMARK  Name = *****
REMARK                            x       y       z     vdW  Elec       q    Type
REMARK                         _______ _______ _______ _____ _____    ______ ____
ROOT
ATOM      1  C   LIG    1       25.210 -16.005   3.232  0.00  0.00    +0.120 A 
ATOM      2  C   LIG    1       25.561 -17.345   3.414  0.00  0.00    +0.050 A 
ATOM      3  C   LIG    1       24.735 -18.233   4.141  0.00  0.00    -0.034 A 
ATOM      4  C   LIG    1       25.160 -19.713   4.337  0.00  0.00    +0.002 C 
ATOM      5  C   LIG    1       24.867 -20.474   3.010  0.00  0.00    +0.027 C 
ATOM      6  C   LIG    1       23.504 -21.199   3.000  0.00  0.00    +0.085 C 
ATOM      7  N   LIG    1       22.462 -20.494   3.747  0.00  0.00    -0.302 NA
ATOM      8  C   LIG    1       21.183 -21.196   3.680  0.00  0.00    +0.105 C 
ATOM      9  C   LIG    1       22.832 -20.143   5.144  0.00  0.00    +0.065 C 
ATOM     10  C   LIG    1       22.533 -18.650   5.361  0.00  0.00    +0.054 C 
ATOM     11  C   LIG    1       24.317 -20.421   5.431  0.00  0.00    +0.017 C 
ATOM     12  C   LIG    1       24.807 -20.068   6.840  0.00  0.00    +0.006 C 
ATOM     13  C   LIG    1       26.229 -20.598   7.062  0.00  0.00    +0.000 C 
ATOM     14  C   LIG    1       27.001 -20.835   5.761  0.00  0.00    +0.001 C 
ATOM     15  C   LIG    1       26.676 -19.771   4.714  0.00  0.00    +0.012 C 
ATOM     16  C   LIG    1       23.505 -17.751   4.634  0.00  0.00    -0.042 A 
ATOM     17  C   LIG    1       23.163 -16.402   4.458  0.00  0.00    +0.007 A 
ATOM     18  C   LIG    1       24.011 -15.539   3.766  0.00  0.00    +0.046 A 
ENDROOT
BRANCH   1  20
ATOM     19  C   LIG    1       27.071 -14.526   3.234  0.00  0.00    +0.277 C 
ATOM     20  O   LIG    1       25.940 -15.063   2.561  0.00  0.00    -0.495 OA
ENDBRANCH   1  20
TORSDOF 1
ENDMDL
MODEL 2
REMARK VINA RESULT:       2.1      1.472      3.702
REMARK  Name = *****
REMARK                            x       y       z     vdW  Elec       q    Type
REMARK                         _______ _______ _______ _____ _____    ______ ____
ROOT
ATOM      1  C   LIG    1       23.988 -15.934   4.023  0.00  0.00    +0.120 A 
ATOM      2  C   LIG    1       23.377 -17.074   4.550  0.00  0.00    +0.050 A 
ATOM      3  C   LIG    1       23.984 -18.349   4.455  0.00  0.00    -0.034 A 
ATOM      4  C   LIG    1       23.273 -19.598   5.040  0.00  0.00    +0.002 C 
ATOM      5  C   LIG    1       23.474 -19.582   6.585  0.00  0.00    +0.027 C 
ATOM      6  C   LIG    1       24.672 -20.432   7.062  0.00  0.00    +0.085 C 
ATOM      7  N   LIG    1       25.795 -20.437   6.125  0.00  0.00    -0.302 NA
ATOM      8  C   LIG    1       26.916 -21.222   6.633  0.00  0.00    +0.105 C 
ATOM      9  C   LIG    1       25.437 -20.815   4.732  0.00  0.00    +0.065 C 
ATOM     10  C   LIG    1       26.007 -19.750   3.781  0.00  0.00    +0.054 C 
ATOM     11  C   LIG    1       23.915 -20.920   4.539  0.00  0.00    +0.017 C 
ATOM     12  C   LIG    1       23.438 -21.281   3.127  0.00  0.00    +0.006 C 
ATOM     13  C   LIG    1       21.932 -21.571   3.127  0.00  0.00    +0.000 C 
ATOM     14  C   LIG    1       21.188 -20.935   4.305  0.00  0.00    +0.001 C 
ATOM     15  C   LIG    1       21.759 -19.562   4.654  0.00  0.00    +0.012 C 
ATOM     16  C   LIG    1       25.259 -18.439   3.862  0.00  0.00    -0.042 A 
ATOM     17  C   LIG    1       25.862 -17.292   3.323  0.00  0.00    +0.007 A 
ATOM     18  C   LIG    1       25.228 -16.054   3.401  0.00  0.00    +0.046 A 
ENDROOT
BRANCH   1  20
ATOM     19  C   LIG    1       24.385 -13.606   3.746  0.00  0.00    +0.277 C 
ATOM     20  O   LIG    1       23.483 -14.663   4.049  0.00  0.00    -0.495 OA
ENDBRANCH   1  20
TORSDOF 1
ENDMDL
