MODEL 1
REMARK VINA RESULT:      69.7      0.000      0.000
REMARK  Name = *****
REMARK                            x       y       z     vdW  Elec       q    Type
REMARK                         _______ _______ _______ _____ _____    ______ ____
ROOT
ATOM      1  C   LIG    1       23.244 -14.159   3.064  0.00  0.00    +0.134 C 
ATOM      2  C   LIG    1       22.855 -13.799   4.535  0.00  0.00    +0.079 C 
ATOM      3  C   LIG    1       23.950 -14.149   5.579  0.00  0.00    +0.158 C 
ATOM      4  C   LIG    1       24.323 -15.591   5.263  0.00  0.00    +0.030 A 
ATOM      5  C   LIG    1       24.933 -15.811   4.025  0.00  0.00    +0.007 A 
ATOM      6  C   LIG    1       25.482 -17.060   3.731  0.00  0.00    +0.132 A 
ATOM      7  C   LIG    1       25.082 -18.183   4.465  0.00  0.00    +0.078 A 
ATOM      8  C   LIG    1       25.251 -19.493   3.815  0.00  0.00    +0.198 C 
ATOM      9  O   LIG    1       26.317 -19.764   3.281  0.00  0.00    -0.286 OA
ATOM     10  C   LIG    1       23.995 -20.270   3.607  0.00  0.00    +0.037 A 
ATOM     11  C   LIG    1       22.920 -20.131   4.521  0.00  0.00    +0.075 A 
ATOM     12  C   LIG    1       21.665 -20.781   4.248  0.00  0.00    +0.132 A 
ATOM     13  C   LIG    1       21.518 -21.451   3.019  0.00  0.00    +0.046 A 
ATOM     14  C   LIG    1       22.589 -21.558   2.113  0.00  0.00    +0.004 A 
ATOM     15  C   LIG    1       23.117 -19.127   5.647  0.00  0.00    +0.202 C 
ATOM     16  O   LIG    1       22.362 -19.042   6.608  0.00  0.00    -0.286 OA
ATOM     17  C   LIG    1       23.828 -20.975   2.401  0.00  0.00    +0.012 A 
ATOM     18  C   LIG    1       24.128 -18.025   5.466  0.00  0.00    +0.078 A 
ATOM     19  C   LIG    1       23.847 -16.718   5.947  0.00  0.00    +0.135 A 
ATOM     20  C   LIG    1       24.684 -14.763   2.943  0.00  0.00    +0.082 C 
ENDROOT
BRANCH   1  21
ATOM     21  O   LIG    1       23.153 -12.929   2.301  0.00  0.00    -0.381 OA
ATOM     22  H   LIG    1       22.348 -12.470   2.626  0.00  0.00    +0.211 HD
ENDBRANCH   1  21
BRANCH  19  23
ATOM     23  O   LIG    1       22.896 -16.467   6.906  0.00  0.00    -0.506 OA
ATOM     24  H   LIG    1       23.047 -15.564   7.266  0.00  0.00    +0.292 HD
ENDBRANCH  19  23
BRANCH   6  25
ATOM     25  O   LIG    1       26.177 -17.163   2.556  0.00  0.00    -0.506 OA
ATOM     26  H   LIG    1       26.691 -16.340   2.405  0.00  0.00    +0.292 HD
ENDBRANCH   6  25
BRANCH  12  27
ATOM     27  O   LIG    1       20.596 -20.625   5.111  0.00  0.00    -0.494 OA
ATOM     28  C   LIG    1       19.353 -20.013   4.696  0.00  0.00    +0.277 C 
ENDBRANCH  12  27
BRANCH   1  29
ATOM     29  C   LIG    1       22.147 -14.997   2.330  0.00  0.00    +0.202 C 
ATOM     30  O   LIG    1       22.426 -16.104   1.844  0.00  0.00    -0.291 OA
BRANCH  29  31
ATOM     31  C   LIG    1       20.684 -14.563   2.465  0.00  0.00    +0.309 C 
BRANCH  31  32
ATOM     32  O   LIG    1       19.832 -15.682   2.701  0.00  0.00    -0.457 OA
BRANCH  32  33
ATOM     33  C   LIG    1       20.478 -16.751   3.228  0.00  0.00    +0.307 C 
ATOM     34  O   LIG    1       21.554 -17.271   2.687  0.00  0.00    -0.251 OA
BRANCH  33  35
ATOM     35  C   LIG    1       19.743 -17.263   4.450  0.00  0.00    +0.120 C 
BRANCH  35  36
ATOM     36  C   LIG    1       19.731 -16.181   5.658  0.00  0.00    +0.011 C 
BRANCH  36  38
ATOM     37  C   LIG    1       20.782 -13.877   7.049  0.00  0.00    +0.004 C 
ATOM     38  C   LIG    1       20.684 -14.830   5.757  0.00  0.00    -0.003 C 
ENDBRANCH  36  38
ENDBRANCH  35  36
ENDBRANCH  33  35
ENDBRANCH  32  33
ENDBRANCH  31  32
ENDBRANCH  29  31
ENDBRANCH   1  29
BRANCH   3  39
ATOM     39  O   LIG    1       25.071 -13.213   5.476  0.00  0.00    -0.343 OA
BRANCH  39  40
ATOM     40  C   LIG    1       26.214 -13.730   4.746  0.00  0.00    +0.253 C 
ATOM     41  O   LIG    1       27.263 -12.763   4.751  0.00  0.00    -0.346 OA
ATOM     42  C   LIG    1       28.433 -13.135   4.024  0.00  0.00    +0.148 C 
ATOM     43  C   LIG    1       29.448 -11.989   4.102  0.00  0.00    +0.040 C 
ATOM     44  C   LIG    1       29.044 -14.382   4.640  0.00  0.00    +0.163 C 
ATOM     45  C   LIG    1       28.031 -15.538   4.649  0.00  0.00    +0.109 C 
ATOM     46  C   LIG    1       26.706 -15.095   5.324  0.00  0.00    +0.086 C 
BRANCH  45  47
ATOM     47  N   LIG    1       28.581 -16.809   5.187  0.00  0.00    -0.302 N 
ATOM     48  H   LIG    1       29.477 -16.748   5.667  0.00  0.00    +0.149 HD
ATOM     49  C   LIG    1       27.893 -18.025   5.315  0.00  0.00    +0.318 C 
ATOM     50  O   LIG    1       26.697 -18.201   5.016  0.00  0.00    -0.266 OA
BRANCH  49  51
ATOM     51  C   LIG    1       28.667 -19.174   5.954  0.00  0.00    +0.469 C 
ATOM     52  F   LIG    1       29.469 -18.764   6.973  0.00  0.00    -0.162 F 
ATOM     53  F   LIG    1       29.457 -19.844   5.071  0.00  0.00    -0.162 F 
ATOM     54  F   LIG    1       27.813 -20.096   6.487  0.00  0.00    -0.162 F 
ENDBRANCH  49  51
ENDBRANCH  45  47
BRANCH  44  55
ATOM     55  O   LIG    1       29.384 -14.032   5.987  0.00  0.00    -0.387 OA
ATOM     56  H   LIG    1       29.547 -13.071   5.995  0.00  0.00    +0.210 HD
ENDBRANCH  44  55
ENDBRANCH  39  40
ENDBRANCH   3  39
TORSDOF 16
ENDMDL
