MODEL 1
REMARK VINA RESULT:      -6.9      0.000      0.000
REMARK  Name = *****
REMARK                            x       y       z     vdW  Elec       q    Type
REMARK                         _______ _______ _______ _____ _____    ______ ____
ROOT
ATOM      1  N   LIG    1       22.253 -17.561   5.174  0.00  0.00    -0.313 NA
ATOM      2  H   LIG    1       21.593 -17.724   5.935  0.00  0.00    +0.122 HD
ENDROOT
BRANCH   1   4
ATOM      3  C   LIG    1       21.983 -15.346   6.117  0.00  0.00    +0.024 C 
ATOM      4  C   LIG    1       22.216 -16.132   4.818  0.00  0.00    +0.051 C 
BRANCH   4   5
ATOM      5  C   LIG    1       23.469 -15.608   4.076  0.00  0.00    +0.023 C 
BRANCH   5   6
ATOM      6  C   LIG    1       23.875 -14.174   4.448  0.00  0.00    +0.036 C 
BRANCH   6   7
ATOM      7  C   LIG    1       25.330 -13.889   4.146  0.00  0.00    -0.047 A 
ATOM      8  C   LIG    1       26.212 -13.527   5.171  0.00  0.00    +0.007 A 
ATOM      9  C   LIG    1       27.567 -13.323   4.903  0.00  0.00    +0.045 A 
ATOM     10  C   LIG    1       28.044 -13.469   3.603  0.00  0.00    +0.117 A 
ATOM     11  C   LIG    1       27.180 -13.794   2.566  0.00  0.00    +0.045 A 
ATOM     12  C   LIG    1       25.824 -14.002   2.835  0.00  0.00    +0.007 A 
BRANCH  10  13
ATOM     13  O   LIG    1       29.379 -13.291   3.395  0.00  0.00    -0.507 OA
ATOM     14  H   LIG    1       29.518 -12.404   3.023  0.00  0.00    +0.292 HD
ENDBRANCH  10  13
ENDBRANCH   6   7
ENDBRANCH   5   6
ENDBRANCH   4   5
ENDBRANCH   1   4
BRANCH   1  15
ATOM     15  C   LIG    1       21.927 -18.468   4.067  0.00  0.00    +0.086 C 
BRANCH  15  16
ATOM     16  C   LIG    1       21.986 -19.933   4.540  0.00  0.00    +0.050 C 
BRANCH  16  17
ATOM     17  C   LIG    1       23.304 -20.297   5.192  0.00  0.00    -0.043 A 
ATOM     18  C   LIG    1       24.514 -20.040   4.527  0.00  0.00    +0.052 A 
ATOM     19  C   LIG    1       25.718 -20.377   5.138  0.00  0.00    +0.159 A 
ATOM     20  C   LIG    1       25.741 -20.979   6.389  0.00  0.00    +0.158 A 
ATOM     21  C   LIG    1       24.555 -21.258   7.057  0.00  0.00    +0.049 A 
ATOM     22  C   LIG    1       23.340 -20.919   6.450  0.00  0.00    +0.007 A 
BRANCH  19  23
ATOM     23  O   LIG    1       26.890 -20.104   4.490  0.00  0.00    -0.503 OA
ATOM     24  H   LIG    1       26.674 -19.345   3.911  0.00  0.00    +0.292 HD
ENDBRANCH  19  23
BRANCH  20  25
ATOM     25  O   LIG    1       26.962 -21.285   6.929  0.00  0.00    -0.503 OA
ATOM     26  H   LIG    1       27.491 -20.471   6.960  0.00  0.00    +0.292 HD
ENDBRANCH  20  25
ENDBRANCH  16  17
ENDBRANCH  15  16
ENDBRANCH   1  15
TORSDOF 10
ENDMDL
MODEL 2
REMARK VINA RESULT:      -6.2      1.220      6.629
REMARK  Name = *****
REMARK                            x       y       z     vdW  Elec       q    Type
REMARK                         _______ _______ _______ _____ _____    ______ ____
ROOT
ATOM      1  N   LIG    1       22.259 -16.810   4.810  0.00  0.00    -0.313 NA
ATOM      2  H   LIG    1       22.554 -16.712   5.783  0.00  0.00    +0.122 HD
ENDROOT
BRANCH   1   4
ATOM      3  C   LIG    1       21.004 -18.312   3.384  0.00  0.00    +0.024 C 
ATOM      4  C   LIG    1       22.018 -18.236   4.535  0.00  0.00    +0.051 C 
BRANCH   4   5
ATOM      5  C   LIG    1       23.284 -19.064   4.206  0.00  0.00    +0.023 C 
BRANCH   5   6
ATOM      6  C   LIG    1       23.507 -20.276   5.123  0.00  0.00    +0.036 C 
BRANCH   6   7
ATOM      7  C   LIG    1       24.948 -20.409   5.565  0.00  0.00    -0.047 A 
ATOM      8  C   LIG    1       25.280 -21.176   6.688  0.00  0.00    +0.007 A 
ATOM      9  C   LIG    1       26.614 -21.349   7.062  0.00  0.00    +0.045 A 
ATOM     10  C   LIG    1       27.624 -20.744   6.318  0.00  0.00    +0.117 A 
ATOM     11  C   LIG    1       27.314 -19.951   5.220  0.00  0.00    +0.045 A 
ATOM     12  C   LIG    1       25.979 -19.781   4.845  0.00  0.00    +0.007 A 
BRANCH  10  13
ATOM     13  O   LIG    1       28.912 -20.967   6.701  0.00  0.00    -0.507 OA
ATOM     14  H   LIG    1       29.146 -21.884   6.479  0.00  0.00    +0.292 HD
ENDBRANCH  10  13
ENDBRANCH   6   7
ENDBRANCH   5   6
ENDBRANCH   4   5
ENDBRANCH   1   4
BRANCH   1  15
ATOM     15  C   LIG    1       23.273 -16.191   3.948  0.00  0.00    +0.086 C 
BRANCH  15  16
ATOM     16  C   LIG    1       23.646 -14.793   4.479  0.00  0.00    +0.050 C 
BRANCH  16  17
ATOM     17  C   LIG    1       25.071 -14.394   4.157  0.00  0.00    -0.043 A 
ATOM     18  C   LIG    1       25.824 -13.661   5.087  0.00  0.00    +0.052 A 
ATOM     19  C   LIG    1       27.134 -13.303   4.780  0.00  0.00    +0.159 A 
ATOM     20  C   LIG    1       27.702 -13.646   3.561  0.00  0.00    +0.158 A 
ATOM     21  C   LIG    1       26.968 -14.356   2.619  0.00  0.00    +0.049 A 
ATOM     22  C   LIG    1       25.651 -14.723   2.921  0.00  0.00    +0.007 A 
BRANCH  19  23
ATOM     23  O   LIG    1       27.864 -12.605   5.702  0.00  0.00    -0.503 OA
ATOM     24  H   LIG    1       27.201 -12.300   6.354  0.00  0.00    +0.292 HD
ENDBRANCH  19  23
BRANCH  20  25
ATOM     25  O   LIG    1       28.994 -13.258   3.326  0.00  0.00    -0.503 OA
ATOM     26  H   LIG    1       29.558 -13.663   4.005  0.00  0.00    +0.292 HD
ENDBRANCH  20  25
ENDBRANCH  16  17
ENDBRANCH  15  16
ENDBRANCH   1  15
TORSDOF 10
ENDMDL
MODEL 3
REMARK VINA RESULT:      -6.0      3.075      7.283
REMARK  Name = *****
REMARK                            x       y       z     vdW  Elec       q    Type
REMARK                         _______ _______ _______ _____ _____    ______ ____
ROOT
ATOM      1  N   LIG    1       28.408 -19.058   4.793  0.00  0.00    -0.313 NA
ATOM      2  H   LIG    1       27.580 -19.453   4.346  0.00  0.00    +0.122 HD
ENDROOT
BRANCH   1   4
ATOM      3  C   LIG    1       29.433 -18.756   6.968  0.00  0.00    +0.024 C 
ATOM      4  C   LIG    1       28.587 -19.704   6.105  0.00  0.00    +0.051 C 
BRANCH   4   5
ATOM      5  C   LIG    1       27.275 -20.084   6.832  0.00  0.00    +0.023 C 
BRANCH   5   6
ATOM      6  C   LIG    1       26.411 -21.115   6.091  0.00  0.00    +0.036 C 
BRANCH   6   7
ATOM      7  C   LIG    1       25.144 -20.511   5.529  0.00  0.00    -0.047 A 
ATOM      8  C   LIG    1       23.945 -20.574   6.249  0.00  0.00    +0.007 A 
ATOM      9  C   LIG    1       22.788 -19.964   5.759  0.00  0.00    +0.045 A 
ATOM     10  C   LIG    1       22.823 -19.296   4.538  0.00  0.00    +0.117 A 
ATOM     11  C   LIG    1       23.994 -19.250   3.792  0.00  0.00    +0.045 A 
ATOM     12  C   LIG    1       25.152 -19.858   4.284  0.00  0.00    +0.007 A 
BRANCH  10  13
ATOM     13  O   LIG    1       21.679 -18.689   4.116  0.00  0.00    -0.507 OA
ATOM     14  H   LIG    1       21.833 -18.325   3.227  0.00  0.00    +0.292 HD
ENDBRANCH  10  13
ENDBRANCH   6   7
ENDBRANCH   5   6
ENDBRANCH   4   5
ENDBRANCH   1   4
BRANCH   1  15
ATOM     15  C   LIG    1       28.258 -17.599   4.854  0.00  0.00    +0.086 C 
BRANCH  15  16
ATOM     16  C   LIG    1       27.482 -17.089   3.624  0.00  0.00    +0.050 C 
BRANCH  16  17
ATOM     17  C   LIG    1       26.753 -15.786   3.877  0.00  0.00    -0.043 A 
ATOM     18  C   LIG    1       25.363 -15.710   3.697  0.00  0.00    +0.052 A 
ATOM     19  C   LIG    1       24.705 -14.507   3.935  0.00  0.00    +0.159 A 
ATOM     20  C   LIG    1       25.404 -13.376   4.334  0.00  0.00    +0.158 A 
ATOM     21  C   LIG    1       26.783 -13.425   4.503  0.00  0.00    +0.049 A 
ATOM     22  C   LIG    1       27.452 -14.632   4.268  0.00  0.00    +0.007 A 
BRANCH  19  23
ATOM     23  O   LIG    1       23.349 -14.449   3.774  0.00  0.00    -0.503 OA
ATOM     24  H   LIG    1       22.999 -15.067   4.448  0.00  0.00    +0.292 HD
ENDBRANCH  19  23
BRANCH  20  25
ATOM     25  O   LIG    1       24.692 -12.226   4.549  0.00  0.00    -0.503 OA
ATOM     26  H   LIG    1       24.990 -11.839   5.388  0.00  0.00    +0.292 HD
ENDBRANCH  20  25
ENDBRANCH  16  17
ENDBRANCH  15  16
ENDBRANCH   1  15
TORSDOF 10
ENDMDL
MODEL 4
REMARK VINA RESULT:      -5.3      2.902      7.443
REMARK  Name = *****
REMARK                            x       y       z     vdW  Elec       q    Type
REMARK                         _______ _______ _______ _____ _____    ______ ____
ROOT
ATOM      1  N   LIG    1       29.023 -18.578   6.084  0.00  0.00    -0.313 NA
ATOM      2  H   LIG    1       30.007 -18.651   6.346  0.00  0.00    +0.122 HD
ENDROOT
BRANCH   1   4
ATOM      3  C   LIG    1       29.473 -20.883   6.679  0.00  0.00    +0.024 C 
ATOM      4  C   LIG    1       28.445 -19.933   6.047  0.00  0.00    +0.051 C 
BRANCH   4   5
ATOM      5  C   LIG    1       27.067 -20.077   6.736  0.00  0.00    +0.023 C 
BRANCH   5   6
ATOM      6  C   LIG    1       26.103 -21.045   6.034  0.00  0.00    +0.036 C 
BRANCH   6   7
ATOM      7  C   LIG    1       24.874 -20.347   5.496  0.00  0.00    -0.047 A 
ATOM      8  C   LIG    1       24.938 -19.609   4.307  0.00  0.00    +0.007 A 
ATOM      9  C   LIG    1       23.791 -19.015   3.777  0.00  0.00    +0.045 A 
ATOM     10  C   LIG    1       22.574 -19.147   4.441  0.00  0.00    +0.117 A 
ATOM     11  C   LIG    1       22.495 -19.847   5.639  0.00  0.00    +0.045 A 
ATOM     12  C   LIG    1       23.643 -20.444   6.168  0.00  0.00    +0.007 A 
BRANCH  10  13
ATOM     13  O   LIG    1       21.476 -18.578   3.870  0.00  0.00    -0.507 OA
ATOM     14  H   LIG    1       21.697 -17.664   3.620  0.00  0.00    +0.292 HD
ENDBRANCH  10  13
ENDBRANCH   6   7
ENDBRANCH   5   6
ENDBRANCH   4   5
ENDBRANCH   1   4
BRANCH   1  15
ATOM     15  C   LIG    1       28.928 -17.846   4.816  0.00  0.00    +0.086 C 
BRANCH  15  16
ATOM     16  C   LIG    1       27.452 -17.654   4.417  0.00  0.00    +0.050 C 
BRANCH  16  17
ATOM     17  C   LIG    1       27.150 -16.264   3.899  0.00  0.00    -0.043 A 
ATOM     18  C   LIG    1       28.095 -15.236   4.044  0.00  0.00    +0.052 A 
ATOM     19  C   LIG    1       27.806 -13.964   3.562  0.00  0.00    +0.159 A 
ATOM     20  C   LIG    1       26.589 -13.689   2.952  0.00  0.00    +0.158 A 
ATOM     21  C   LIG    1       25.632 -14.687   2.813  0.00  0.00    +0.049 A 
ATOM     22  C   LIG    1       25.917 -15.971   3.294  0.00  0.00    +0.007 A 
BRANCH  19  23
ATOM     23  O   LIG    1       28.742 -12.976   3.692  0.00  0.00    -0.503 OA
ATOM     24  H   LIG    1       28.235 -12.146   3.571  0.00  0.00    +0.292 HD
ENDBRANCH  19  23
BRANCH  20  25
ATOM     25  O   LIG    1       26.372 -12.414   2.503  0.00  0.00    -0.503 OA
ATOM     26  H   LIG    1       25.747 -12.459   1.761  0.00  0.00    +0.292 HD
ENDBRANCH  20  25
ENDBRANCH  16  17
ENDBRANCH  15  16
ENDBRANCH   1  15
TORSDOF 10
ENDMDL
MODEL 5
REMARK VINA RESULT:      -5.3      1.554      6.530
REMARK  Name = *****
REMARK                            x       y       z     vdW  Elec       q    Type
REMARK                         _______ _______ _______ _____ _____    ______ ____
ROOT
ATOM      1  N   LIG    1       22.398 -18.386   4.919  0.00  0.00    -0.313 NA
ATOM      2  H   LIG    1       23.202 -18.264   5.537  0.00  0.00    +0.122 HD
ENDROOT
BRANCH   1   4
ATOM      3  C   LIG    1       23.729 -19.371   3.151  0.00  0.00    +0.024 C 
ATOM      4  C   LIG    1       22.586 -19.625   4.144  0.00  0.00    +0.051 C 
BRANCH   4   5
ATOM      5  C   LIG    1       22.864 -20.891   4.990  0.00  0.00    +0.023 C 
BRANCH   5   6
ATOM      6  C   LIG    1       23.540 -20.617   6.342  0.00  0.00    +0.036 C 
BRANCH   6   7
ATOM      7  C   LIG    1       25.049 -20.671   6.255  0.00  0.00    -0.047 A 
ATOM      8  C   LIG    1       25.743 -19.823   5.384  0.00  0.00    +0.007 A 
ATOM      9  C   LIG    1       27.139 -19.830   5.347  0.00  0.00    +0.045 A 
ATOM     10  C   LIG    1       27.848 -20.695   6.175  0.00  0.00    +0.117 A 
ATOM     11  C   LIG    1       27.179 -21.568   7.023  0.00  0.00    +0.045 A 
ATOM     12  C   LIG    1       25.782 -21.560   7.062  0.00  0.00    +0.007 A 
BRANCH  10  13
ATOM     13  O   LIG    1       29.209 -20.644   6.128  0.00  0.00    -0.507 OA
ATOM     14  H   LIG    1       29.564 -21.242   6.808  0.00  0.00    +0.292 HD
ENDBRANCH  10  13
ENDBRANCH   6   7
ENDBRANCH   5   6
ENDBRANCH   4   5
ENDBRANCH   1   4
BRANCH   1  15
ATOM     15  C   LIG    1       22.247 -17.179   4.099  0.00  0.00    +0.086 C 
BRANCH  15  16
ATOM     16  C   LIG    1       22.618 -15.926   4.917  0.00  0.00    +0.050 C 
BRANCH  16  17
ATOM     17  C   LIG    1       23.730 -15.112   4.289  0.00  0.00    -0.043 A 
ATOM     18  C   LIG    1       24.946 -15.723   3.946  0.00  0.00    +0.052 A 
ATOM     19  C   LIG    1       25.958 -14.963   3.368  0.00  0.00    +0.159 A 
ATOM     20  C   LIG    1       25.790 -13.604   3.138  0.00  0.00    +0.158 A 
ATOM     21  C   LIG    1       24.601 -12.975   3.486  0.00  0.00    +0.049 A 
ATOM     22  C   LIG    1       23.577 -13.733   4.066  0.00  0.00    +0.007 A 
BRANCH  19  23
ATOM     23  O   LIG    1       27.131 -15.574   3.021  0.00  0.00    -0.503 OA
ATOM     24  H   LIG    1       27.216 -16.311   3.659  0.00  0.00    +0.292 HD
ENDBRANCH  19  23
BRANCH  20  25
ATOM     25  O   LIG    1       26.829 -12.918   2.568  0.00  0.00    -0.503 OA
ATOM     26  H   LIG    1       27.099 -13.394   1.766  0.00  0.00    +0.292 HD
ENDBRANCH  20  25
ENDBRANCH  16  17
ENDBRANCH  15  16
ENDBRANCH   1  15
TORSDOF 10
ENDMDL
MODEL 6
REMARK VINA RESULT:      -5.3      1.086      6.828
REMARK  Name = *****
REMARK                            x       y       z     vdW  Elec       q    Type
REMARK                         _______ _______ _______ _____ _____    ______ ____
ROOT
ATOM      1  N   LIG    1       22.690 -15.591   3.747  0.00  0.00    -0.313 NA
ATOM      2  H   LIG    1       21.777 -15.153   3.617  0.00  0.00    +0.122 HD
ENDROOT
BRANCH   1   4
ATOM      3  C   LIG    1       21.960 -15.835   6.044  0.00  0.00    +0.024 C 
ATOM      4  C   LIG    1       22.590 -16.564   4.848  0.00  0.00    +0.051 C 
BRANCH   4   5
ATOM      5  C   LIG    1       21.802 -17.853   4.514  0.00  0.00    +0.023 C 
BRANCH   5   6
ATOM      6  C   LIG    1       22.565 -18.856   3.635  0.00  0.00    +0.036 C 
BRANCH   6   7
ATOM      7  C   LIG    1       23.646 -19.588   4.399  0.00  0.00    -0.047 A 
ATOM      8  C   LIG    1       24.994 -19.426   4.057  0.00  0.00    +0.007 A 
ATOM      9  C   LIG    1       25.996 -20.053   4.800  0.00  0.00    +0.045 A 
ATOM     10  C   LIG    1       25.653 -20.857   5.883  0.00  0.00    +0.117 A 
ATOM     11  C   LIG    1       24.320 -21.059   6.219  0.00  0.00    +0.045 A 
ATOM     12  C   LIG    1       23.317 -20.428   5.477  0.00  0.00    +0.007 A 
BRANCH  10  13
ATOM     13  O   LIG    1       26.666 -21.423   6.598  0.00  0.00    -0.507 OA
ATOM     14  H   LIG    1       26.806 -22.328   6.270  0.00  0.00    +0.292 HD
ENDBRANCH  10  13
ENDBRANCH   6   7
ENDBRANCH   5   6
ENDBRANCH   4   5
ENDBRANCH   1   4
BRANCH   1  15
ATOM     15  C   LIG    1       23.690 -14.538   3.961  0.00  0.00    +0.086 C 
BRANCH  15  16
ATOM     16  C   LIG    1       25.091 -15.041   3.564  0.00  0.00    +0.050 C 
BRANCH  16  17
ATOM     17  C   LIG    1       26.210 -14.170   4.094  0.00  0.00    -0.043 A 
ATOM     18  C   LIG    1       27.353 -13.937   3.314  0.00  0.00    +0.052 A 
ATOM     19  C   LIG    1       28.373 -13.133   3.813  0.00  0.00    +0.159 A 
ATOM     20  C   LIG    1       28.286 -12.568   5.078  0.00  0.00    +0.158 A 
ATOM     21  C   LIG    1       27.171 -12.799   5.874  0.00  0.00    +0.049 A 
ATOM     22  C   LIG    1       26.139 -13.606   5.379  0.00  0.00    +0.007 A 
BRANCH  19  23
ATOM     23  O   LIG    1       29.474 -12.898   3.036  0.00  0.00    -0.503 OA
ATOM     24  H   LIG    1       29.760 -11.997   3.289  0.00  0.00    +0.292 HD
ENDBRANCH  19  23
BRANCH  20  25
ATOM     25  O   LIG    1       29.328 -11.789   5.505  0.00  0.00    -0.503 OA
ATOM     26  H   LIG    1       30.153 -12.273   5.338  0.00  0.00    +0.292 HD
ENDBRANCH  20  25
ENDBRANCH  16  17
ENDBRANCH  15  16
ENDBRANCH   1  15
TORSDOF 10
ENDMDL
MODEL 7
REMARK VINA RESULT:      -5.2      2.961      8.032
REMARK  Name = *****
REMARK                            x       y       z     vdW  Elec       q    Type
REMARK                         _______ _______ _______ _____ _____    ______ ____
ROOT
ATOM      1  N   LIG    1       27.265 -17.759   4.757  0.00  0.00    -0.313 NA
ATOM      2  H   LIG    1       27.239 -17.259   5.647  0.00  0.00    +0.122 HD
ENDROOT
BRANCH   1   4
ATOM      3  C   LIG    1       29.473 -18.192   5.654  0.00  0.00    +0.024 C 
ATOM      4  C   LIG    1       28.323 -18.781   4.824  0.00  0.00    +0.051 C 
BRANCH   4   5
ATOM      5  C   LIG    1       27.878 -20.149   5.396  0.00  0.00    +0.023 C 
BRANCH   5   6
ATOM      6  C   LIG    1       26.840 -20.059   6.525  0.00  0.00    +0.036 C 
BRANCH   6   7
ATOM      7  C   LIG    1       25.462 -20.498   6.079  0.00  0.00    -0.047 A 
ATOM      8  C   LIG    1       24.474 -20.806   7.022  0.00  0.00    +0.007 A 
ATOM      9  C   LIG    1       23.184 -21.153   6.613  0.00  0.00    +0.045 A 
ATOM     10  C   LIG    1       22.881 -21.204   5.255  0.00  0.00    +0.117 A 
ATOM     11  C   LIG    1       23.856 -20.936   4.303  0.00  0.00    +0.045 A 
ATOM     12  C   LIG    1       25.145 -20.586   4.713  0.00  0.00    +0.007 A 
BRANCH  10  13
ATOM     13  O   LIG    1       21.602 -21.516   4.904  0.00  0.00    -0.507 OA
ATOM     14  H   LIG    1       21.511 -21.407   3.941  0.00  0.00    +0.292 HD
ENDBRANCH  10  13
ENDBRANCH   6   7
ENDBRANCH   5   6
ENDBRANCH   4   5
ENDBRANCH   1   4
BRANCH   1  15
ATOM     15  C   LIG    1       27.436 -16.782   3.675  0.00  0.00    +0.086 C 
BRANCH  15  16
ATOM     16  C   LIG    1       27.601 -15.364   4.255  0.00  0.00    +0.050 C 
BRANCH  16  17
ATOM     17  C   LIG    1       26.549 -14.392   3.761  0.00  0.00    -0.043 A 
ATOM     18  C   LIG    1       25.692 -13.758   4.673  0.00  0.00    +0.052 A 
ATOM     19  C   LIG    1       24.732 -12.865   4.207  0.00  0.00    +0.159 A 
ATOM     20  C   LIG    1       24.598 -12.604   2.850  0.00  0.00    +0.158 A 
ATOM     21  C   LIG    1       25.425 -13.234   1.928  0.00  0.00    +0.049 A 
ATOM     22  C   LIG    1       26.395 -14.131   2.390  0.00  0.00    +0.007 A 
BRANCH  19  23
ATOM     23  O   LIG    1       23.915 -12.239   5.106  0.00  0.00    -0.503 OA
ATOM     24  H   LIG    1       23.055 -12.169   4.643  0.00  0.00    +0.292 HD
ENDBRANCH  19  23
BRANCH  20  25
ATOM     25  O   LIG    1       23.630 -11.716   2.462  0.00  0.00    -0.503 OA
ATOM     26  H   LIG    1       22.859 -12.223   2.159  0.00  0.00    +0.292 HD
ENDBRANCH  20  25
ENDBRANCH  16  17
ENDBRANCH  15  16
ENDBRANCH   1  15
TORSDOF 10
ENDMDL
MODEL 8
REMARK VINA RESULT:      -4.5      3.089      7.508
REMARK  Name = *****
REMARK                            x       y       z     vdW  Elec       q    Type
REMARK                         _______ _______ _______ _____ _____    ______ ____
ROOT
ATOM      1  N   LIG    1       26.333 -18.835   4.022  0.00  0.00    -0.313 NA
ATOM      2  H   LIG    1       27.082 -19.422   3.651  0.00  0.00    +0.122 HD
ENDROOT
BRANCH   1   4
ATOM      3  C   LIG    1       25.025 -20.640   3.074  0.00  0.00    +0.024 C 
ATOM      4  C   LIG    1       25.152 -19.681   4.267  0.00  0.00    +0.051 C 
BRANCH   4   5
ATOM      5  C   LIG    1       25.172 -20.465   5.601  0.00  0.00    +0.023 C 
BRANCH   5   6
ATOM      6  C   LIG    1       23.798 -20.618   6.270  0.00  0.00    +0.036 C 
BRANCH   6   7
ATOM      7  C   LIG    1       22.677 -20.061   5.421  0.00  0.00    -0.047 A 
ATOM      8  C   LIG    1       22.599 -18.688   5.155  0.00  0.00    +0.007 A 
ATOM      9  C   LIG    1       21.600 -18.181   4.321  0.00  0.00    +0.045 A 
ATOM     10  C   LIG    1       20.665 -19.045   3.759  0.00  0.00    +0.117 A 
ATOM     11  C   LIG    1       20.703 -20.405   4.037  0.00  0.00    +0.045 A 
ATOM     12  C   LIG    1       21.705 -20.913   4.868  0.00  0.00    +0.007 A 
BRANCH  10  13
ATOM     13  O   LIG    1       19.728 -18.509   2.927  0.00  0.00    -0.507 OA
ATOM     14  H   LIG    1       20.178 -18.172   2.133  0.00  0.00    +0.292 HD
ENDBRANCH  10  13
ENDBRANCH   6   7
ENDBRANCH   5   6
ENDBRANCH   4   5
ENDBRANCH   1   4
BRANCH   1  15
ATOM     15  C   LIG    1       26.099 -17.726   3.090  0.00  0.00    +0.086 C 
BRANCH  15  16
ATOM     16  C   LIG    1       26.780 -16.443   3.603  0.00  0.00    +0.050 C 
BRANCH  16  17
ATOM     17  C   LIG    1       25.926 -15.204   3.429  0.00  0.00    -0.043 A 
ATOM     18  C   LIG    1       26.422 -14.099   2.720  0.00  0.00    +0.052 A 
ATOM     19  C   LIG    1       25.625 -12.969   2.566  0.00  0.00    +0.159 A 
ATOM     20  C   LIG    1       24.352 -12.910   3.116  0.00  0.00    +0.158 A 
ATOM     21  C   LIG    1       23.848 -13.986   3.836  0.00  0.00    +0.049 A 
ATOM     22  C   LIG    1       24.641 -15.128   3.993  0.00  0.00    +0.007 A 
BRANCH  19  23
ATOM     23  O   LIG    1       26.112 -11.905   1.857  0.00  0.00    -0.503 OA
ATOM     24  H   LIG    1       25.337 -11.319   1.740  0.00  0.00    +0.292 HD
ENDBRANCH  19  23
BRANCH  20  25
ATOM     25  O   LIG    1       23.625 -11.765   2.926  0.00  0.00    -0.503 OA
ATOM     26  H   LIG    1       23.871 -11.391   2.064  0.00  0.00    +0.292 HD
ENDBRANCH  20  25
ENDBRANCH  16  17
ENDBRANCH  15  16
ENDBRANCH   1  15
TORSDOF 10
ENDMDL
MODEL 9
REMARK VINA RESULT:      -4.5      2.719      7.019
REMARK  Name = *****
REMARK                            x       y       z     vdW  Elec       q    Type
REMARK                         _______ _______ _______ _____ _____    ______ ____
ROOT
ATOM      1  N   LIG    1       25.820 -20.274   4.020  0.00  0.00    -0.313 NA
ATOM      2  H   LIG    1       24.827 -20.255   3.781  0.00  0.00    +0.122 HD
ENDROOT
BRANCH   1   4
ATOM      3  C   LIG    1       26.728 -20.126   6.261  0.00  0.00    +0.024 C 
ATOM      4  C   LIG    1       25.987 -21.035   5.271  0.00  0.00    +0.051 C 
BRANCH   4   5
ATOM      5  C   LIG    1       24.674 -21.570   5.892  0.00  0.00    +0.023 C 
BRANCH   5   6
ATOM      6  C   LIG    1       23.769 -20.487   6.498  0.00  0.00    +0.036 C 
BRANCH   6   7
ATOM      7  C   LIG    1       22.762 -19.953   5.504  0.00  0.00    -0.047 A 
ATOM      8  C   LIG    1       21.835 -20.810   4.899  0.00  0.00    +0.007 A 
ATOM      9  C   LIG    1       20.866 -20.308   4.028  0.00  0.00    +0.045 A 
ATOM     10  C   LIG    1       20.828 -18.945   3.747  0.00  0.00    +0.117 A 
ATOM     11  C   LIG    1       21.760 -18.082   4.310  0.00  0.00    +0.045 A 
ATOM     12  C   LIG    1       22.728 -18.584   5.185  0.00  0.00    +0.007 A 
BRANCH  10  13
ATOM     13  O   LIG    1       19.846 -18.497   2.917  0.00  0.00    -0.507 OA
ATOM     14  H   LIG    1       19.770 -19.112   2.167  0.00  0.00    +0.292 HD
ENDBRANCH  10  13
ENDBRANCH   6   7
ENDBRANCH   5   6
ENDBRANCH   4   5
ENDBRANCH   1   4
BRANCH   1  15
ATOM     15  C   LIG    1       26.314 -18.894   4.083  0.00  0.00    +0.086 C 
BRANCH  15  16
ATOM     16  C   LIG    1       25.416 -17.965   3.244  0.00  0.00    +0.050 C 
BRANCH  16  17
ATOM     17  C   LIG    1       25.649 -16.495   3.525  0.00  0.00    -0.043 A 
ATOM     18  C   LIG    1       26.952 -15.974   3.518  0.00  0.00    +0.052 A 
ATOM     19  C   LIG    1       27.152 -14.621   3.775  0.00  0.00    +0.159 A 
ATOM     20  C   LIG    1       26.083 -13.781   4.056  0.00  0.00    +0.158 A 
ATOM     21  C   LIG    1       24.786 -14.280   4.085  0.00  0.00    +0.049 A 
ATOM     22  C   LIG    1       24.577 -15.639   3.824  0.00  0.00    +0.007 A 
BRANCH  19  23
ATOM     23  O   LIG    1       28.424 -14.121   3.747  0.00  0.00    -0.503 OA
ATOM     24  H   LIG    1       28.906 -14.651   4.414  0.00  0.00    +0.292 HD
ENDBRANCH  19  23
BRANCH  20  25
ATOM     25  O   LIG    1       26.354 -12.461   4.302  0.00  0.00    -0.503 OA
ATOM     26  H   LIG    1       25.896 -12.207   5.120  0.00  0.00    +0.292 HD
ENDBRANCH  20  25
ENDBRANCH  16  17
ENDBRANCH  15  16
ENDBRANCH   1  15
TORSDOF 10
ENDMDL
