MODEL 1
REMARK VINA RESULT:      -4.3      0.000      0.000
REMARK  Name = *****
REMARK                            x       y       z     vdW  Elec       q    Type
REMARK                         _______ _______ _______ _____ _____    ______ ____
ROOT
ATOM      1  C   LIG    1       24.866 -16.870   3.719  0.00  0.00    +0.231 C 
ATOM      2  N   LIG    1       25.065 -18.243   3.681  0.00  0.00    -0.284 N 
ATOM      3  H   LIG    1       25.552 -18.564   2.854  0.00  0.00    +0.155 HD
ATOM      4  O   LIG    1       23.972 -16.320   4.365  0.00  0.00    -0.274 OA
ENDROOT
BRANCH   2   5
ATOM      5  C   LIG    1       24.291 -19.220   4.372  0.00  0.00    +0.039 A 
ATOM      6  C   LIG    1       24.993 -20.176   5.154  0.00  0.00    -0.029 A 
ATOM      7  C   LIG    1       26.492 -20.177   5.320  0.00  0.00    +0.045 C 
ATOM      8  C   LIG    1       24.295 -21.243   5.754  0.00  0.00    +0.005 A 
ATOM      9  C   LIG    1       22.920 -21.364   5.617  0.00  0.00    +0.001 A 
ATOM     10  C   LIG    1       22.219 -20.391   4.922  0.00  0.00    +0.005 A 
ATOM     11  C   LIG    1       22.874 -19.286   4.339  0.00  0.00    -0.029 A 
ATOM     12  C   LIG    1       21.960 -18.219   3.791  0.00  0.00    +0.045 C 
ENDBRANCH   2   5
BRANCH   1  13
ATOM     13  C   LIG    1       25.846 -16.048   2.852  0.00  0.00    +0.180 C 
BRANCH  13  14
ATOM     14  N   LIG    1       26.225 -14.715   3.402  0.00  0.00    -0.294 NA
BRANCH  14  16
ATOM     15  C   LIG    1       28.338 -13.364   3.743  0.00  0.00    +0.020 C 
ATOM     16  C   LIG    1       27.579 -14.664   3.973  0.00  0.00    +0.081 C 
ENDBRANCH  14  16
BRANCH  14  17
ATOM     17  C   LIG    1       26.030 -13.638   2.404  0.00  0.00    +0.081 C 
ATOM     18  C   LIG    1       24.643 -12.993   2.420  0.00  0.00    +0.020 C 
ENDBRANCH  14  17
ENDBRANCH  13  14
ENDBRANCH   1  13
TORSDOF 5
ENDMDL
MODEL 2
REMARK VINA RESULT:      -4.2      1.744      6.392
REMARK  Name = *****
REMARK                            x       y       z     vdW  Elec       q    Type
REMARK                         _______ _______ _______ _____ _____    ______ ____
ROOT
ATOM      1  C   LIG    1       26.243 -17.003   3.564  0.00  0.00    +0.231 C 
ATOM      2  N   LIG    1       25.117 -16.241   3.285  0.00  0.00    -0.284 N 
ATOM      3  H   LIG    1       24.488 -16.668   2.617  0.00  0.00    +0.155 HD
ATOM      4  O   LIG    1       27.304 -16.538   3.983  0.00  0.00    -0.274 OA
ENDROOT
BRANCH   2   5
ATOM      5  C   LIG    1       25.004 -14.828   3.439  0.00  0.00    +0.039 A 
ATOM      6  C   LIG    1       23.927 -14.341   4.227  0.00  0.00    -0.029 A 
ATOM      7  C   LIG    1       22.941 -15.236   4.935  0.00  0.00    +0.045 C 
ATOM      8  C   LIG    1       23.686 -12.955   4.309  0.00  0.00    +0.005 A 
ATOM      9  C   LIG    1       24.503 -12.047   3.651  0.00  0.00    +0.001 A 
ATOM     10  C   LIG    1       25.602 -12.512   2.945  0.00  0.00    +0.005 A 
ATOM     11  C   LIG    1       25.902 -13.888   2.870  0.00  0.00    -0.029 A 
ATOM     12  C   LIG    1       27.229 -14.218   2.236  0.00  0.00    +0.045 C 
ENDBRANCH   2   5
BRANCH   1  13
ATOM     13  C   LIG    1       26.088 -18.514   3.283  0.00  0.00    +0.180 C 
BRANCH  13  14
ATOM     14  N   LIG    1       25.166 -19.246   4.199  0.00  0.00    -0.294 NA
BRANCH  14  16
ATOM     15  C   LIG    1       22.664 -18.906   4.375  0.00  0.00    +0.020 C 
ATOM     16  C   LIG    1       23.841 -19.517   3.625  0.00  0.00    +0.081 C 
ENDBRANCH  14  16
BRANCH  14  17
ATOM     17  C   LIG    1       25.784 -20.488   4.716  0.00  0.00    +0.081 C 
ATOM     18  C   LIG    1       25.980 -20.523   6.234  0.00  0.00    +0.020 C 
ENDBRANCH  14  17
ENDBRANCH  13  14
ENDBRANCH   1  13
TORSDOF 5
ENDMDL
MODEL 3
REMARK VINA RESULT:      -4.1      1.452      2.328
REMARK  Name = *****
REMARK                            x       y       z     vdW  Elec       q    Type
REMARK                         _______ _______ _______ _____ _____    ______ ____
ROOT
ATOM      1  C   LIG    1       26.076 -17.007   3.526  0.00  0.00    +0.231 C 
ATOM      2  N   LIG    1       24.717 -17.255   3.385  0.00  0.00    -0.284 N 
ATOM      3  H   LIG    1       24.152 -16.419   3.323  0.00  0.00    +0.155 HD
ATOM      4  O   LIG    1       26.873 -17.801   4.028  0.00  0.00    -0.274 OA
ENDROOT
BRANCH   2   5
ATOM      5  C   LIG    1       24.038 -18.444   3.783  0.00  0.00    +0.039 A 
ATOM      6  C   LIG    1       22.815 -18.292   4.490  0.00  0.00    -0.029 A 
ATOM      7  C   LIG    1       22.190 -16.954   4.794  0.00  0.00    +0.045 C 
ATOM      8  C   LIG    1       22.166 -19.423   5.023  0.00  0.00    +0.005 A 
ATOM      9  C   LIG    1       22.687 -20.696   4.847  0.00  0.00    +0.001 A 
ATOM     10  C   LIG    1       23.838 -20.859   4.090  0.00  0.00    +0.005 A 
ATOM     11  C   LIG    1       24.498 -19.757   3.506  0.00  0.00    -0.029 A 
ATOM     12  C   LIG    1       25.614 -20.112   2.557  0.00  0.00    +0.045 C 
ENDBRANCH   2   5
BRANCH   1  13
ATOM     13  C   LIG    1       26.537 -15.621   3.024  0.00  0.00    +0.180 C 
BRANCH  13  14
ATOM     14  N   LIG    1       26.113 -14.462   3.862  0.00  0.00    -0.294 NA
BRANCH  14  16
ATOM     15  C   LIG    1       28.367 -13.315   3.768  0.00  0.00    +0.020 C 
ATOM     16  C   LIG    1       27.209 -13.831   4.611  0.00  0.00    +0.081 C 
ENDBRANCH  14  16
BRANCH  14  17
ATOM     17  C   LIG    1       25.368 -13.458   3.068  0.00  0.00    +0.081 C 
ATOM     18  C   LIG    1       23.856 -13.450   3.303  0.00  0.00    +0.020 C 
ENDBRANCH  14  17
ENDBRANCH  13  14
ENDBRANCH   1  13
TORSDOF 5
ENDMDL
MODEL 4
REMARK VINA RESULT:      -4.1      1.241      2.792
REMARK  Name = *****
REMARK                            x       y       z     vdW  Elec       q    Type
REMARK                         _______ _______ _______ _____ _____    ______ ____
ROOT
ATOM      1  C   LIG    1       25.710 -17.852   3.343  0.00  0.00    +0.231 C 
ATOM      2  N   LIG    1       24.939 -18.108   4.469  0.00  0.00    -0.284 N 
ATOM      3  H   LIG    1       25.234 -17.598   5.292  0.00  0.00    +0.155 HD
ATOM      4  O   LIG    1       25.819 -18.628   2.391  0.00  0.00    -0.274 OA
ENDROOT
BRANCH   2   5
ATOM      5  C   LIG    1       24.160 -19.279   4.702  0.00  0.00    +0.039 A 
ATOM      6  C   LIG    1       22.762 -19.190   4.472  0.00  0.00    -0.029 A 
ATOM      7  C   LIG    1       22.079 -17.947   3.958  0.00  0.00    +0.045 C 
ATOM      8  C   LIG    1       21.924 -20.272   4.809  0.00  0.00    +0.005 A 
ATOM      9  C   LIG    1       22.445 -21.442   5.339  0.00  0.00    +0.001 A 
ATOM     10  C   LIG    1       23.818 -21.565   5.492  0.00  0.00    +0.005 A 
ATOM     11  C   LIG    1       24.695 -20.521   5.131  0.00  0.00    -0.029 A 
ATOM     12  C   LIG    1       26.160 -20.877   5.171  0.00  0.00    +0.045 C 
ENDBRANCH   2   5
BRANCH   1  13
ATOM     13  C   LIG    1       26.468 -16.506   3.368  0.00  0.00    +0.180 C 
BRANCH  13  14
ATOM     14  N   LIG    1       25.677 -15.318   2.936  0.00  0.00    -0.294 NA
BRANCH  14  16
ATOM     15  C   LIG    1       24.012 -13.531   3.598  0.00  0.00    +0.020 C 
ATOM     16  C   LIG    1       24.729 -14.828   3.946  0.00  0.00    +0.081 C 
ENDBRANCH  14  16
BRANCH  14  17
ATOM     17  C   LIG    1       26.555 -14.224   2.459  0.00  0.00    +0.081 C 
ATOM     18  C   LIG    1       27.715 -13.878   3.396  0.00  0.00    +0.020 C 
ENDBRANCH  14  17
ENDBRANCH  13  14
ENDBRANCH   1  13
TORSDOF 5
ENDMDL
MODEL 5
REMARK VINA RESULT:      -4.1      1.188      1.833
REMARK  Name = *****
REMARK                            x       y       z     vdW  Elec       q    Type
REMARK                         _______ _______ _______ _____ _____    ______ ____
ROOT
ATOM      1  C   LIG    1       25.721 -17.805   3.327  0.00  0.00    +0.231 C 
ATOM      2  N   LIG    1       25.069 -18.082   4.520  0.00  0.00    -0.284 N 
ATOM      3  H   LIG    1       25.505 -17.665   5.332  0.00  0.00    +0.155 HD
ATOM      4  O   LIG    1       25.644 -18.510   2.319  0.00  0.00    -0.274 OA
ENDROOT
BRANCH   2   5
ATOM      5  C   LIG    1       24.217 -19.198   4.769  0.00  0.00    +0.039 A 
ATOM      6  C   LIG    1       24.822 -20.385   5.260  0.00  0.00    -0.029 A 
ATOM      7  C   LIG    1       26.294 -20.504   5.569  0.00  0.00    +0.045 C 
ATOM      8  C   LIG    1       24.056 -21.559   5.401  0.00  0.00    +0.005 A 
ATOM      9  C   LIG    1       22.704 -21.572   5.092  0.00  0.00    +0.001 A 
ATOM     10  C   LIG    1       22.090 -20.396   4.688  0.00  0.00    +0.005 A 
ATOM     11  C   LIG    1       22.812 -19.190   4.571  0.00  0.00    -0.029 A 
ATOM     12  C   LIG    1       21.971 -17.965   4.313  0.00  0.00    +0.045 C 
ENDBRANCH   2   5
BRANCH   1  13
ATOM     13  C   LIG    1       26.599 -16.534   3.348  0.00  0.00    +0.180 C 
BRANCH  13  14
ATOM     14  N   LIG    1       25.929 -15.285   2.885  0.00  0.00    -0.294 NA
BRANCH  14  16
ATOM     15  C   LIG    1       24.239 -13.475   3.410  0.00  0.00    +0.020 C 
ATOM     16  C   LIG    1       24.831 -14.836   3.753  0.00  0.00    +0.081 C 
ENDBRANCH  14  16
BRANCH  14  17
ATOM     17  C   LIG    1       26.906 -14.194   2.659  0.00  0.00    +0.081 C 
ATOM     18  C   LIG    1       27.951 -14.031   3.765  0.00  0.00    +0.020 C 
ENDBRANCH  14  17
ENDBRANCH  13  14
ENDBRANCH   1  13
TORSDOF 5
ENDMDL
MODEL 6
REMARK VINA RESULT:      -4.0      1.463      6.540
REMARK  Name = *****
REMARK                            x       y       z     vdW  Elec       q    Type
REMARK                         _______ _______ _______ _____ _____    ______ ____
ROOT
ATOM      1  C   LIG    1       25.120 -17.663   3.390  0.00  0.00    +0.231 C 
ATOM      2  N   LIG    1       24.900 -16.401   3.925  0.00  0.00    -0.284 N 
ATOM      3  H   LIG    1       23.944 -16.240   4.216  0.00  0.00    +0.155 HD
ATOM      4  O   LIG    1       26.037 -17.932   2.612  0.00  0.00    -0.274 OA
ENDROOT
BRANCH   2   5
ATOM      5  C   LIG    1       25.684 -15.237   3.673  0.00  0.00    +0.039 A 
ATOM      6  C   LIG    1       24.992 -14.044   3.334  0.00  0.00    -0.029 A 
ATOM      7  C   LIG    1       23.489 -13.941   3.273  0.00  0.00    +0.045 C 
ATOM      8  C   LIG    1       25.715 -12.898   2.947  0.00  0.00    +0.005 A 
ATOM      9  C   LIG    1       27.102 -12.903   2.916  0.00  0.00    +0.001 A 
ATOM     10  C   LIG    1       27.784 -14.040   3.323  0.00  0.00    +0.005 A 
ATOM     11  C   LIG    1       27.100 -15.196   3.754  0.00  0.00    -0.029 A 
ATOM     12  C   LIG    1       27.975 -16.271   4.346  0.00  0.00    +0.045 C 
ENDBRANCH   2   5
BRANCH   1  13
ATOM     13  C   LIG    1       24.097 -18.737   3.821  0.00  0.00    +0.180 C 
BRANCH  13  14
ATOM     14  N   LIG    1       24.663 -20.091   4.089  0.00  0.00    -0.294 NA
BRANCH  14  16
ATOM     15  C   LIG    1       25.751 -20.853   6.243  0.00  0.00    +0.020 C 
ATOM     16  C   LIG    1       25.865 -20.082   4.935  0.00  0.00    +0.081 C 
ENDBRANCH  14  16
BRANCH  14  17
ATOM     17  C   LIG    1       23.639 -21.012   4.633  0.00  0.00    +0.081 C 
ATOM     18  C   LIG    1       22.318 -20.344   5.023  0.00  0.00    +0.020 C 
ENDBRANCH  14  17
ENDBRANCH  13  14
ENDBRANCH   1  13
TORSDOF 5
ENDMDL
MODEL 7
REMARK VINA RESULT:      -3.9      1.159      2.424
REMARK  Name = *****
REMARK                            x       y       z     vdW  Elec       q    Type
REMARK                         _______ _______ _______ _____ _____    ______ ____
ROOT
ATOM      1  C   LIG    1       25.684 -17.067   3.557  0.00  0.00    +0.231 C 
ATOM      2  N   LIG    1       26.344 -18.281   3.682  0.00  0.00    -0.284 N 
ATOM      3  H   LIG    1       27.029 -18.452   2.957  0.00  0.00    +0.155 HD
ATOM      4  O   LIG    1       24.571 -16.835   4.032  0.00  0.00    -0.274 OA
ENDROOT
BRANCH   2   5
ATOM      5  C   LIG    1       25.858 -19.432   4.370  0.00  0.00    +0.039 A 
ATOM      6  C   LIG    1       24.632 -19.991   3.921  0.00  0.00    -0.029 A 
ATOM      7  C   LIG    1       23.857 -19.461   2.741  0.00  0.00    +0.045 C 
ATOM      8  C   LIG    1       24.035 -21.046   4.640  0.00  0.00    +0.005 A 
ATOM      9  C   LIG    1       24.640 -21.571   5.773  0.00  0.00    +0.001 A 
ATOM     10  C   LIG    1       25.875 -21.082   6.170  0.00  0.00    +0.005 A 
ATOM     11  C   LIG    1       26.525 -20.054   5.456  0.00  0.00    -0.029 A 
ATOM     12  C   LIG    1       27.940 -19.770   5.894  0.00  0.00    +0.045 C 
ENDBRANCH   2   5
BRANCH   1  13
ATOM     13  C   LIG    1       26.441 -15.999   2.737  0.00  0.00    +0.180 C 
BRANCH  13  14
ATOM     14  N   LIG    1       26.570 -14.663   3.389  0.00  0.00    -0.294 NA
BRANCH  14  16
ATOM     15  C   LIG    1       28.439 -13.011   3.815  0.00  0.00    +0.020 C 
ATOM     16  C   LIG    1       27.885 -14.417   3.998  0.00  0.00    +0.081 C 
ENDBRANCH  14  16
BRANCH  14  17
ATOM     17  C   LIG    1       26.202 -13.567   2.463  0.00  0.00    +0.081 C 
ATOM     18  C   LIG    1       24.851 -12.910   2.753  0.00  0.00    +0.020 C 
ENDBRANCH  14  17
ENDBRANCH  13  14
ENDBRANCH   1  13
TORSDOF 5
ENDMDL
MODEL 8
REMARK VINA RESULT:      -3.7      1.448      6.118
REMARK  Name = *****
REMARK                            x       y       z     vdW  Elec       q    Type
REMARK                         _______ _______ _______ _____ _____    ______ ____
ROOT
ATOM      1  C   LIG    1       23.367 -16.123   4.339  0.00  0.00    +0.231 C 
ATOM      2  N   LIG    1       24.518 -16.142   3.564  0.00  0.00    -0.284 N 
ATOM      3  H   LIG    1       24.845 -17.072   3.337  0.00  0.00    +0.155 HD
ATOM      4  O   LIG    1       23.041 -15.183   5.067  0.00  0.00    -0.274 OA
ENDROOT
BRANCH   2   5
ATOM      5  C   LIG    1       25.487 -15.098   3.478  0.00  0.00    +0.039 A 
ATOM      6  C   LIG    1       26.849 -15.454   3.669  0.00  0.00    -0.029 A 
ATOM      7  C   LIG    1       27.315 -16.868   3.909  0.00  0.00    +0.045 C 
ATOM      8  C   LIG    1       27.836 -14.450   3.726  0.00  0.00    +0.005 A 
ATOM      9  C   LIG    1       27.505 -13.112   3.572  0.00  0.00    +0.001 A 
ATOM     10  C   LIG    1       26.189 -12.765   3.306  0.00  0.00    +0.005 A 
ATOM     11  C   LIG    1       25.176 -13.742   3.202  0.00  0.00    -0.029 A 
ATOM     12  C   LIG    1       23.843 -13.229   2.718  0.00  0.00    +0.045 C 
ENDBRANCH   2   5
BRANCH   1  13
ATOM     13  C   LIG    1       22.507 -17.404   4.254  0.00  0.00    +0.180 C 
BRANCH  13  14
ATOM     14  N   LIG    1       23.217 -18.675   4.580  0.00  0.00    -0.294 NA
BRANCH  14  16
ATOM     15  C   LIG    1       23.147 -20.451   6.381  0.00  0.00    +0.020 C 
ATOM     16  C   LIG    1       22.402 -19.642   5.328  0.00  0.00    +0.081 C 
ENDBRANCH  14  16
BRANCH  14  17
ATOM     17  C   LIG    1       23.802 -19.298   3.371  0.00  0.00    +0.081 C 
ATOM     18  C   LIG    1       25.211 -19.863   3.558  0.00  0.00    +0.020 C 
ENDBRANCH  14  17
ENDBRANCH  13  14
ENDBRANCH   1  13
TORSDOF 5
ENDMDL
MODEL 9
REMARK VINA RESULT:      -3.6      1.352      2.598
REMARK  Name = *****
REMARK                            x       y       z     vdW  Elec       q    Type
REMARK                         _______ _______ _______ _____ _____    ______ ____
ROOT
ATOM      1  C   LIG    1       23.101 -16.319   4.438  0.00  0.00    +0.231 C 
ATOM      2  N   LIG    1       23.588 -17.469   3.830  0.00  0.00    -0.284 N 
ATOM      3  H   LIG    1       23.837 -17.344   2.858  0.00  0.00    +0.155 HD
ATOM      4  O   LIG    1       22.368 -16.320   5.428  0.00  0.00    -0.274 OA
ENDROOT
BRANCH   2   5
ATOM      5  C   LIG    1       23.331 -18.808   4.247  0.00  0.00    +0.039 A 
ATOM      6  C   LIG    1       21.986 -19.261   4.196  0.00  0.00    -0.029 A 
ATOM      7  C   LIG    1       20.842 -18.420   3.687  0.00  0.00    +0.045 C 
ATOM      8  C   LIG    1       21.651 -20.527   4.716  0.00  0.00    +0.005 A 
ATOM      9  C   LIG    1       22.621 -21.358   5.256  0.00  0.00    +0.001 A 
ATOM     10  C   LIG    1       23.947 -20.954   5.236  0.00  0.00    +0.005 A 
ATOM     11  C   LIG    1       24.331 -19.712   4.690  0.00  0.00    -0.029 A 
ATOM     12  C   LIG    1       25.819 -19.503   4.564  0.00  0.00    +0.045 C 
ENDBRANCH   2   5
BRANCH   1  13
ATOM     13  C   LIG    1       23.525 -14.998   3.759  0.00  0.00    +0.180 C 
BRANCH  13  14
ATOM     14  N   LIG    1       24.833 -14.438   4.207  0.00  0.00    -0.294 NA
BRANCH  14  16
ATOM     15  C   LIG    1       27.349 -14.577   3.974  0.00  0.00    +0.020 C 
ATOM     16  C   LIG    1       25.974 -14.835   3.371  0.00  0.00    +0.081 C 
ENDBRANCH  14  16
BRANCH  14  17
ATOM     17  C   LIG    1       24.772 -12.966   4.357  0.00  0.00    +0.081 C 
ATOM     18  C   LIG    1       24.023 -12.238   3.238  0.00  0.00    +0.020 C 
ENDBRANCH  14  17
ENDBRANCH  13  14
ENDBRANCH   1  13
TORSDOF 5
ENDMDL
