MODEL 1
REMARK VINA RESULT:       5.9      0.000      0.000
REMARK  Name = *****
REMARK                            x       y       z     vdW  Elec       q    Type
REMARK                         _______ _______ _______ _____ _____    ______ ____
ROOT
ATOM      1  C   LIG    1       24.501 -13.686   3.898  0.00  0.00    +0.201 C 
ATOM      2  C   LIG    1       24.346 -13.863   5.426  0.00  0.00    +0.042 C 
ATOM      3  C   LIG    1       25.627 -14.488   6.006  0.00  0.00    +0.025 C 
ATOM      4  C   LIG    1       24.026 -12.607   6.251  0.00  0.00    +0.025 C 
ATOM      5  S   LIG    1       22.935 -15.052   5.682  0.00  0.00    -0.127 S 
ATOM      6  C   LIG    1       22.804 -15.543   3.923  0.00  0.00    +0.165 C 
ATOM      7  C   LIG    1       23.423 -16.904   3.500  0.00  0.00    +0.190 C 
ATOM      8  C   LIG    1       24.626 -16.032   3.075  0.00  0.00    +0.240 C 
ATOM      9  O   LIG    1       25.809 -16.211   2.837  0.00  0.00    -0.273 OA
ATOM     10  N   LIG    1       23.932 -14.879   3.263  0.00  0.00    -0.271 N 
ENDROOT
BRANCH   7  11
ATOM     11  N   LIG    1       23.691 -17.922   4.560  0.00  0.00    -0.300 N 
ATOM     12  H   LIG    1       23.904 -17.634   5.514  0.00  0.00    +0.150 HD
ATOM     13  C   LIG    1       24.061 -19.222   4.257  0.00  0.00    +0.235 C 
ATOM     14  O   LIG    1       24.171 -19.614   3.097  0.00  0.00    -0.274 OA
BRANCH  13  15
ATOM     15  C   LIG    1       24.242 -20.160   5.479  0.00  0.00    +0.168 C 
BRANCH  15  16
ATOM     16  C   LIG    1       25.693 -20.353   5.886  0.00  0.00    -0.022 A 
ATOM     17  C   LIG    1       26.095 -21.380   6.755  0.00  0.00    +0.006 A 
ATOM     18  C   LIG    1       27.450 -21.571   7.057  0.00  0.00    +0.000 A 
ATOM     19  C   LIG    1       28.419 -20.741   6.499  0.00  0.00    +0.000 A 
ATOM     20  C   LIG    1       28.034 -19.689   5.672  0.00  0.00    +0.000 A 
ATOM     21  C   LIG    1       26.681 -19.492   5.376  0.00  0.00    +0.006 A 
ENDBRANCH  15  16
BRANCH  15  22
ATOM     22  N   LIG    1       23.396 -19.722   6.624  0.00  0.00    -0.316 NA
ATOM     23  H   LIG    1       22.656 -20.422   6.727  0.00  0.00    +0.119 HD
ATOM     24  H   LIG    1       22.904 -18.874   6.336  0.00  0.00    +0.119 HD
ENDBRANCH  15  22
ENDBRANCH  13  15
ENDBRANCH   7  11
BRANCH   1  25
ATOM     25  C   LIG    1       23.880 -12.405   3.328  0.00  0.00    +0.332 C 
ATOM     26  O   LIG    1       23.215 -11.617   3.989  0.00  0.00    -0.249 OA
BRANCH  25  27
ATOM     27  O   LIG    1       24.230 -12.227   2.028  0.00  0.00    -0.426 OA
BRANCH  27  28
ATOM     28  C   LIG    1       25.548 -11.733   1.813  0.00  0.00    +0.472 C 
BRANCH  28  29
ATOM     29  O   LIG    1       26.387 -12.109   2.904  0.00  0.00    -0.427 OA
BRANCH  29  30
ATOM     30  C   LIG    1       27.110 -13.249   2.772  0.00  0.00    +0.315 C 
ATOM     31  O   LIG    1       27.041 -14.012   1.818  0.00  0.00    -0.250 OA
BRANCH  30  33
ATOM     32  C   LIG    1       27.648 -12.588   5.155  0.00  0.00    +0.022 C 
ATOM     33  C   LIG    1       28.096 -13.414   3.936  0.00  0.00    +0.059 C 
ATOM     34  C   LIG    1       28.195 -14.892   4.327  0.00  0.00    +0.022 C 
ATOM     35  C   LIG    1       29.474 -12.914   3.474  0.00  0.00    +0.022 C 
ENDBRANCH  30  33
ENDBRANCH  29  30
ENDBRANCH  28  29
ENDBRANCH  27  28
ENDBRANCH  25  27
ENDBRANCH   1  25
TORSDOF 10
ENDMDL
MODEL 2
REMARK VINA RESULT:       7.9      1.995      2.906
REMARK  Name = *****
REMARK                            x       y       z     vdW  Elec       q    Type
REMARK                         _______ _______ _______ _____ _____    ______ ____
ROOT
ATOM      1  C   LIG    1       25.323 -14.567   3.437  0.00  0.00    +0.201 C 
ATOM      2  C   LIG    1       24.124 -15.116   4.243  0.00  0.00    +0.042 C 
ATOM      3  C   LIG    1       24.494 -15.190   5.734  0.00  0.00    +0.025 C 
ATOM      4  C   LIG    1       22.793 -14.357   4.131  0.00  0.00    +0.025 C 
ATOM      5  S   LIG    1       23.815 -16.845   3.621  0.00  0.00    -0.127 S 
ATOM      6  C   LIG    1       25.357 -16.953   2.642  0.00  0.00    +0.165 C 
ATOM      7  C   LIG    1       26.547 -17.752   3.244  0.00  0.00    +0.190 C 
ATOM      8  C   LIG    1       27.035 -16.356   3.694  0.00  0.00    +0.240 C 
ATOM      9  O   LIG    1       27.818 -15.915   4.519  0.00  0.00    -0.273 OA
ATOM     10  N   LIG    1       26.088 -15.721   2.954  0.00  0.00    -0.271 N 
ENDROOT
BRANCH   7  11
ATOM     11  N   LIG    1       26.264 -18.731   4.335  0.00  0.00    -0.300 N 
ATOM     12  H   LIG    1       25.316 -18.860   4.684  0.00  0.00    +0.150 HD
ATOM     13  C   LIG    1       27.255 -19.197   5.183  0.00  0.00    +0.235 C 
ATOM     14  O   LIG    1       28.427 -18.843   5.071  0.00  0.00    -0.274 OA
BRANCH  13  15
ATOM     15  C   LIG    1       26.796 -20.255   6.220  0.00  0.00    +0.168 C 
BRANCH  15  16
ATOM     16  C   LIG    1       25.363 -20.722   6.017  0.00  0.00    -0.022 A 
ATOM     17  C   LIG    1       24.410 -20.678   7.046  0.00  0.00    +0.006 A 
ATOM     18  C   LIG    1       23.082 -21.053   6.806  0.00  0.00    +0.000 A 
ATOM     19  C   LIG    1       22.689 -21.478   5.539  0.00  0.00    +0.000 A 
ATOM     20  C   LIG    1       23.631 -21.572   4.519  0.00  0.00    +0.000 A 
ATOM     21  C   LIG    1       24.959 -21.206   4.759  0.00  0.00    +0.006 A 
ENDBRANCH  15  16
BRANCH  15  22
ATOM     22  N   LIG    1       27.749 -21.398   6.283  0.00  0.00    -0.316 NA
ATOM     23  H   LIG    1       27.303 -22.180   5.795  0.00  0.00    +0.119 HD
ATOM     24  H   LIG    1       27.801 -21.702   7.256  0.00  0.00    +0.119 HD
ENDBRANCH  15  22
ENDBRANCH  13  15
ENDBRANCH   7  11
BRANCH   1  25
ATOM     25  C   LIG    1       24.952 -13.627   2.283  0.00  0.00    +0.332 C 
ATOM     26  O   LIG    1       23.804 -13.445   1.895  0.00  0.00    -0.249 OA
BRANCH  25  27
ATOM     27  O   LIG    1       26.046 -12.974   1.812  0.00  0.00    -0.426 OA
BRANCH  27  28
ATOM     28  C   LIG    1       26.164 -11.614   2.214  0.00  0.00    +0.472 C 
BRANCH  28  29
ATOM     29  O   LIG    1       27.200 -11.488   3.188  0.00  0.00    -0.427 OA
BRANCH  29  30
ATOM     30  C   LIG    1       27.005 -12.091   4.388  0.00  0.00    +0.315 C 
ATOM     31  O   LIG    1       25.930 -12.154   4.970  0.00  0.00    -0.250 OA
BRANCH  30  33
ATOM     32  C   LIG    1       27.975 -13.876   5.897  0.00  0.00    +0.022 C 
ATOM     33  C   LIG    1       28.292 -12.764   4.882  0.00  0.00    +0.059 C 
ATOM     34  C   LIG    1       29.056 -13.357   3.694  0.00  0.00    +0.022 C 
ATOM     35  C   LIG    1       29.161 -11.696   5.566  0.00  0.00    +0.022 C 
ENDBRANCH  30  33
ENDBRANCH  29  30
ENDBRANCH  28  29
ENDBRANCH  27  28
ENDBRANCH  25  27
ENDBRANCH   1  25
TORSDOF 10
ENDMDL
