MODEL 1
REMARK VINA RESULT:      -9.5      0.000      0.000
REMARK  Name = *****
REMARK                            x       y       z     vdW  Elec       q    Type
REMARK                         _______ _______ _______ _____ _____    ______ ____
ROOT
ATOM      1  C   LIG    1       24.375 -23.211   6.841  0.00  0.00    +0.185 C 
ATOM      2  O   LIG    1       25.131 -22.718   5.736  0.00  0.00    -0.334 OA
ATOM      3  C   LIG    1       25.055 -21.274   5.792  0.00  0.00    +0.217 C 
ATOM      4  O   LIG    1       24.014 -20.927   6.731  0.00  0.00    -0.341 OA
ATOM      5  C   LIG    1       23.345 -22.137   7.066  0.00  0.00    +0.198 C 
ENDROOT
BRANCH   3   6
ATOM      6  C   LIG    1       26.372 -20.641   6.268  0.00  0.00    +0.031 A 
ATOM      7  C   LIG    1       26.831 -20.659   7.600  0.00  0.00    +0.051 A 
ATOM      8 CL   LIG    1       25.935 -21.351   8.906  0.00  0.00    -0.083 Cl
ATOM      9  C   LIG    1       28.085 -20.128   7.945  0.00  0.00    +0.040 A 
ATOM     10  C   LIG    1       28.911 -19.581   6.969  0.00  0.00    +0.042 A 
ATOM     11 CL   LIG    1       30.475 -19.006   7.397  0.00  0.00    -0.084 Cl
ATOM     12  C   LIG    1       28.484 -19.526   5.651  0.00  0.00    +0.020 A 
ATOM     13  C   LIG    1       27.228 -20.041   5.309  0.00  0.00    +0.012 A 
ENDBRANCH   3   6
BRANCH   1  14
ATOM     14  C   LIG    1       23.785 -24.592   6.548  0.00  0.00    +0.263 C 
BRANCH  14  15
ATOM     15  O   LIG    1       24.651 -25.362   5.718  0.00  0.00    -0.489 OA
BRANCH  15  19
ATOM     16  C   LIG    1       25.051 -29.506   6.487  0.00  0.00    +0.030 A 
ATOM     17  C   LIG    1       25.529 -28.487   7.329  0.00  0.00    +0.027 A 
ATOM     18  C   LIG    1       25.373 -27.126   7.026  0.00  0.00    +0.047 A 
ATOM     19  C   LIG    1       24.729 -26.715   5.865  0.00  0.00    +0.121 A 
ATOM     20  C   LIG    1       24.262 -27.691   4.996  0.00  0.00    +0.047 A 
ATOM     21  C   LIG    1       24.428 -29.058   5.305  0.00  0.00    +0.027 A 
BRANCH  16  27
ATOM     22  C   LIG    1       29.034 -33.825   6.854  0.00  0.00    +0.109 C 
ATOM     23  C   LIG    1       27.783 -33.554   6.044  0.00  0.00    +0.213 C 
ATOM     24  N   LIG    1       26.589 -33.440   6.753  0.00  0.00    -0.299 N 
ATOM     25  C   LIG    1       26.503 -32.709   8.012  0.00  0.00    +0.126 C 
ATOM     26  C   LIG    1       26.337 -31.197   7.743  0.00  0.00    +0.124 C 
ATOM     27  N   LIG    1       25.229 -30.880   6.797  0.00  0.00    -0.327 N 
ATOM     28  C   LIG    1       25.111 -31.804   5.625  0.00  0.00    +0.124 C 
ATOM     29  C   LIG    1       25.361 -33.281   5.983  0.00  0.00    +0.126 C 
ATOM     30  O   LIG    1       27.830 -33.534   4.822  0.00  0.00    -0.276 OA
ENDBRANCH  16  27
ENDBRANCH  15  19
ENDBRANCH  14  15
ENDBRANCH   1  14
BRANCH   3  31
ATOM     31  C   LIG    1       24.614 -20.828   4.376  0.00  0.00    +0.193 C 
BRANCH  31  32
ATOM     32  N   LIG    1       23.685 -19.723   4.319  0.00  0.00    -0.331 N 
ATOM     33  C   LIG    1       22.349 -19.773   4.605  0.00  0.00    +0.199 A 
ATOM     34  N   LIG    1       21.760 -18.628   4.339  0.00  0.00    -0.244 NA
ATOM     35  C   LIG    1       22.754 -17.811   3.865  0.00  0.00    +0.130 A 
ATOM     36  C   LIG    1       23.959 -18.471   3.844  0.00  0.00    +0.107 A 
ENDBRANCH  31  32
ENDBRANCH   3  31
TORSDOF 7
ENDMDL
MODEL 2
REMARK VINA RESULT:      -9.5      1.739      2.273
REMARK  Name = *****
REMARK                            x       y       z     vdW  Elec       q    Type
REMARK                         _______ _______ _______ _____ _____    ______ ____
ROOT
ATOM      1  C   LIG    1       24.290 -23.477   6.769  0.00  0.00    +0.185 C 
ATOM      2  O   LIG    1       25.043 -22.946   5.678  0.00  0.00    -0.334 OA
ATOM      3  C   LIG    1       24.911 -21.507   5.745  0.00  0.00    +0.217 C 
ATOM      4  O   LIG    1       23.846 -21.207   6.673  0.00  0.00    -0.341 OA
ATOM      5  C   LIG    1       23.218 -22.444   6.989  0.00  0.00    +0.198 C 
ENDROOT
BRANCH   3   6
ATOM      6  C   LIG    1       26.197 -20.828   6.245  0.00  0.00    +0.031 A 
ATOM      7  C   LIG    1       26.651 -20.861   7.578  0.00  0.00    +0.051 A 
ATOM      8 CL   LIG    1       25.780 -21.626   8.861  0.00  0.00    -0.083 Cl
ATOM      9  C   LIG    1       27.879 -20.284   7.944  0.00  0.00    +0.040 A 
ATOM     10  C   LIG    1       28.683 -19.677   6.987  0.00  0.00    +0.042 A 
ATOM     11 CL   LIG    1       30.218 -19.044   7.438  0.00  0.00    -0.084 Cl
ATOM     12  C   LIG    1       28.260 -19.605   5.669  0.00  0.00    +0.020 A 
ATOM     13  C   LIG    1       27.029 -20.167   5.306  0.00  0.00    +0.012 A 
ENDBRANCH   3   6
BRANCH   1  14
ATOM     14  C   LIG    1       23.757 -24.876   6.457  0.00  0.00    +0.263 C 
BRANCH  14  15
ATOM     15  O   LIG    1       24.774 -25.710   5.905  0.00  0.00    -0.489 OA
BRANCH  15  19
ATOM     16  C   LIG    1       25.083 -29.767   7.074  0.00  0.00    +0.030 A 
ATOM     17  C   LIG    1       25.720 -28.698   7.725  0.00  0.00    +0.027 A 
ATOM     18  C   LIG    1       25.588 -27.369   7.295  0.00  0.00    +0.047 A 
ATOM     19  C   LIG    1       24.808 -27.042   6.191  0.00  0.00    +0.121 A 
ATOM     20  C   LIG    1       24.180 -28.073   5.507  0.00  0.00    +0.047 A 
ATOM     21  C   LIG    1       24.323 -29.408   5.942  0.00  0.00    +0.027 A 
BRANCH  16  27
ATOM     22  C   LIG    1       23.787 -33.553  11.392  0.00  0.00    +0.109 C 
ATOM     23  C   LIG    1       25.047 -32.973  10.785  0.00  0.00    +0.213 C 
ATOM     24  N   LIG    1       25.291 -33.267   9.445  0.00  0.00    -0.299 N 
ATOM     25  C   LIG    1       24.231 -33.245   8.442  0.00  0.00    +0.126 C 
ATOM     26  C   LIG    1       23.992 -31.802   7.948  0.00  0.00    +0.124 C 
ATOM     27  N   LIG    1       25.238 -31.109   7.509  0.00  0.00    -0.327 N 
ATOM     28  C   LIG    1       26.437 -31.351   8.373  0.00  0.00    +0.124 C 
ATOM     29  C   LIG    1       26.549 -32.804   8.870  0.00  0.00    +0.126 C 
ATOM     30  O   LIG    1       25.844 -32.359  11.481  0.00  0.00    -0.276 OA
ENDBRANCH  16  27
ENDBRANCH  15  19
ENDBRANCH  14  15
ENDBRANCH   1  14
BRANCH   3  31
ATOM     31  C   LIG    1       24.473 -21.065   4.328  0.00  0.00    +0.193 C 
BRANCH  31  32
ATOM     32  N   LIG    1       23.679 -19.860   4.255  0.00  0.00    -0.331 N 
ATOM     33  C   LIG    1       24.098 -18.641   3.801  0.00  0.00    +0.199 A 
ATOM     34  N   LIG    1       23.176 -17.721   3.978  0.00  0.00    -0.244 NA
ATOM     35  C   LIG    1       22.123 -18.373   4.566  0.00  0.00    +0.130 A 
ATOM     36  C   LIG    1       22.414 -19.703   4.748  0.00  0.00    +0.107 A 
ENDBRANCH  31  32
ENDBRANCH   3  31
TORSDOF 7
ENDMDL
MODEL 3
REMARK VINA RESULT:      -9.5      2.153      2.908
REMARK  Name = *****
REMARK                            x       y       z     vdW  Elec       q    Type
REMARK                         _______ _______ _______ _____ _____    ______ ____
ROOT
ATOM      1  C   LIG    1       25.866 -23.853   6.186  0.00  0.00    +0.185 C 
ATOM      2  O   LIG    1       25.771 -22.474   5.830  0.00  0.00    -0.334 OA
ATOM      3  C   LIG    1       26.062 -21.717   7.028  0.00  0.00    +0.217 C 
ATOM      4  O   LIG    1       26.024 -22.631   8.145  0.00  0.00    -0.341 OA
ATOM      5  C   LIG    1       25.513 -23.862   7.648  0.00  0.00    +0.198 C 
ENDROOT
BRANCH   3   6
ATOM      6  C   LIG    1       27.454 -21.066   6.979  0.00  0.00    +0.031 A 
ATOM      7  C   LIG    1       27.847 -20.089   6.044  0.00  0.00    +0.051 A 
ATOM      8 CL   LIG    1       26.824 -19.527   4.768  0.00  0.00    -0.083 Cl
ATOM      9  C   LIG    1       29.113 -19.482   6.112  0.00  0.00    +0.040 A 
ATOM     10  C   LIG    1       30.004 -19.826   7.121  0.00  0.00    +0.042 A 
ATOM     11 CL   LIG    1       31.519 -19.018   7.236  0.00  0.00    -0.084 Cl
ATOM     12  C   LIG    1       29.662 -20.799   8.047  0.00  0.00    +0.020 A 
ATOM     13  C   LIG    1       28.407 -21.416   7.971  0.00  0.00    +0.012 A 
ENDBRANCH   3   6
BRANCH   1  14
ATOM     14  C   LIG    1       24.955 -24.723   5.317  0.00  0.00    +0.263 C 
BRANCH  14  15
ATOM     15  O   LIG    1       25.564 -25.976   5.016  0.00  0.00    -0.489 OA
BRANCH  15  19
ATOM     16  C   LIG    1       24.513 -29.515   7.088  0.00  0.00    +0.030 A 
ATOM     17  C   LIG    1       24.031 -29.161   5.817  0.00  0.00    +0.027 A 
ATOM     18  C   LIG    1       24.408 -27.972   5.174  0.00  0.00    +0.047 A 
ATOM     19  C   LIG    1       25.291 -27.078   5.770  0.00  0.00    +0.121 A 
ATOM     20  C   LIG    1       25.772 -27.381   7.036  0.00  0.00    +0.047 A 
ATOM     21  C   LIG    1       25.382 -28.576   7.679  0.00  0.00    +0.027 A 
BRANCH  16  27
ATOM     22  C   LIG    1       25.110 -32.703  12.002  0.00  0.00    +0.109 C 
ATOM     23  C   LIG    1       25.408 -32.893  10.529  0.00  0.00    +0.213 C 
ATOM     24  N   LIG    1       24.320 -32.871   9.660  0.00  0.00    -0.299 N 
ATOM     25  C   LIG    1       23.236 -31.905   9.800  0.00  0.00    +0.126 C 
ATOM     26  C   LIG    1       23.625 -30.565   9.138  0.00  0.00    +0.124 C 
ATOM     27  N   LIG    1       24.110 -30.712   7.736  0.00  0.00    -0.327 N 
ATOM     28  C   LIG    1       25.010 -31.885   7.496  0.00  0.00    +0.124 C 
ATOM     29  C   LIG    1       24.575 -33.154   8.252  0.00  0.00    +0.126 C 
ATOM     30  O   LIG    1       26.546 -33.145  10.156  0.00  0.00    -0.276 OA
ENDBRANCH  16  27
ENDBRANCH  15  19
ENDBRANCH  14  15
ENDBRANCH   1  14
BRANCH   3  31
ATOM     31  C   LIG    1       24.897 -20.707   7.172  0.00  0.00    +0.193 C 
BRANCH  31  32
ATOM     32  N   LIG    1       23.846 -20.805   6.184  0.00  0.00    -0.331 N 
ATOM     33  C   LIG    1       23.608 -19.925   5.167  0.00  0.00    +0.199 A 
ATOM     34  N   LIG    1       22.506 -20.229   4.518  0.00  0.00    -0.244 NA
ATOM     35  C   LIG    1       22.017 -21.349   5.141  0.00  0.00    +0.130 A 
ATOM     36  C   LIG    1       22.835 -21.723   6.180  0.00  0.00    +0.107 A 
ENDBRANCH  31  32
ENDBRANCH   3  31
TORSDOF 7
ENDMDL
MODEL 4
REMARK VINA RESULT:      -9.5      4.061     10.916
REMARK  Name = *****
REMARK                            x       y       z     vdW  Elec       q    Type
REMARK                         _______ _______ _______ _____ _____    ______ ____
ROOT
ATOM      1  C   LIG    1       24.554 -29.514   7.842  0.00  0.00    +0.185 C 
ATOM      2  O   LIG    1       23.590 -30.331   8.506  0.00  0.00    -0.334 OA
ATOM      3  C   LIG    1       24.167 -30.703   9.779  0.00  0.00    +0.217 C 
ATOM      4  O   LIG    1       25.571 -30.369   9.738  0.00  0.00    -0.341 OA
ATOM      5  C   LIG    1       25.865 -30.003   8.395  0.00  0.00    +0.198 C 
ENDROOT
BRANCH   3   6
ATOM      6  C   LIG    1       23.522 -29.946  10.952  0.00  0.00    +0.031 A 
ATOM      7  C   LIG    1       22.155 -30.007  11.286  0.00  0.00    +0.051 A 
ATOM      8 CL   LIG    1       20.991 -30.902  10.374  0.00  0.00    -0.083 Cl
ATOM      9  C   LIG    1       21.653 -29.350  12.423  0.00  0.00    +0.040 A 
ATOM     10  C   LIG    1       22.505 -28.632  13.254  0.00  0.00    +0.042 A 
ATOM     11 CL   LIG    1       21.887 -27.899  14.682  0.00  0.00    -0.084 Cl
ATOM     12  C   LIG    1       23.853 -28.532  12.946  0.00  0.00    +0.020 A 
ATOM     13  C   LIG    1       24.351 -29.173  11.805  0.00  0.00    +0.012 A 
ENDBRANCH   3   6
BRANCH   1  14
ATOM     14  C   LIG    1       24.435 -29.625   6.321  0.00  0.00    +0.263 C 
BRANCH  14  15
ATOM     15  O   LIG    1       25.312 -28.713   5.663  0.00  0.00    -0.489 OA
BRANCH  15  19
ATOM     16  C   LIG    1       24.955 -24.605   6.620  0.00  0.00    +0.030 A 
ATOM     17  C   LIG    1       23.899 -25.414   6.170  0.00  0.00    +0.027 A 
ATOM     18  C   LIG    1       24.071 -26.773   5.862  0.00  0.00    +0.047 A 
ATOM     19  C   LIG    1       25.309 -27.391   5.992  0.00  0.00    +0.121 A 
ATOM     20  C   LIG    1       26.384 -26.619   6.414  0.00  0.00    +0.047 A 
ATOM     21  C   LIG    1       26.203 -25.251   6.715  0.00  0.00    +0.027 A 
BRANCH  16  27
ATOM     22  C   LIG    1       22.399 -19.641   4.752  0.00  0.00    +0.109 C 
ATOM     23  C   LIG    1       23.815 -20.119   4.998  0.00  0.00    +0.213 C 
ATOM     24  N   LIG    1       24.144 -20.462   6.308  0.00  0.00    -0.299 N 
ATOM     25  C   LIG    1       23.236 -21.221   7.160  0.00  0.00    +0.126 C 
ATOM     26  C   LIG    1       23.366 -22.732   6.870  0.00  0.00    +0.124 C 
ATOM     27  N   LIG    1       24.772 -23.227   6.912  0.00  0.00    -0.327 N 
ATOM     28  C   LIG    1       25.784 -22.317   6.289  0.00  0.00    +0.124 C 
ATOM     29  C   LIG    1       25.529 -20.827   6.582  0.00  0.00    +0.126 C 
ATOM     30  O   LIG    1       24.638 -20.107   4.093  0.00  0.00    -0.276 OA
ENDBRANCH  16  27
ENDBRANCH  15  19
ENDBRANCH  14  15
ENDBRANCH   1  14
BRANCH   3  31
ATOM     31  C   LIG    1       24.024 -32.242   9.864  0.00  0.00    +0.193 C 
BRANCH  31  32
ATOM     32  N   LIG    1       23.836 -32.933   8.609  0.00  0.00    -0.331 N 
ATOM     33  C   LIG    1       24.817 -33.288   7.726  0.00  0.00    +0.199 A 
ATOM     34  N   LIG    1       24.309 -33.793   6.624  0.00  0.00    -0.244 NA
ATOM     35  C   LIG    1       22.950 -33.762   6.804  0.00  0.00    +0.130 A 
ATOM     36  C   LIG    1       22.634 -33.231   8.031  0.00  0.00    +0.107 A 
ENDBRANCH  31  32
ENDBRANCH   3  31
TORSDOF 7
ENDMDL
MODEL 5
REMARK VINA RESULT:      -9.2      4.187     10.817
REMARK  Name = *****
REMARK                            x       y       z     vdW  Elec       q    Type
REMARK                         _______ _______ _______ _____ _____    ______ ____
ROOT
ATOM      1  C   LIG    1       24.397 -29.368   7.818  0.00  0.00    +0.185 C 
ATOM      2  O   LIG    1       23.491 -30.275   8.446  0.00  0.00    -0.334 OA
ATOM      3  C   LIG    1       24.102 -30.672   9.696  0.00  0.00    +0.217 C 
ATOM      4  O   LIG    1       25.483 -30.250   9.663  0.00  0.00    -0.341 OA
ATOM      5  C   LIG    1       25.741 -29.801   8.337  0.00  0.00    +0.198 C 
ENDROOT
BRANCH   3   6
ATOM      6  C   LIG    1       23.422 -30.016  10.908  0.00  0.00    +0.031 A 
ATOM      7  C   LIG    1       22.070 -30.197  11.261  0.00  0.00    +0.051 A 
ATOM      8 CL   LIG    1       20.963 -31.146  10.332  0.00  0.00    -0.083 Cl
ATOM      9  C   LIG    1       21.540 -29.627  12.431  0.00  0.00    +0.040 A 
ATOM     10  C   LIG    1       22.348 -28.877  13.277  0.00  0.00    +0.042 A 
ATOM     11 CL   LIG    1       21.702 -28.251  14.744  0.00  0.00    -0.084 Cl
ATOM     12  C   LIG    1       23.678 -28.658  12.952  0.00  0.00    +0.020 A 
ATOM     13  C   LIG    1       24.204 -29.213  11.779  0.00  0.00    +0.012 A 
ENDBRANCH   3   6
BRANCH   1  14
ATOM     14  C   LIG    1       24.272 -29.412   6.294  0.00  0.00    +0.263 C 
BRANCH  14  15
ATOM     15  O   LIG    1       25.149 -28.474   5.673  0.00  0.00    -0.489 OA
BRANCH  15  19
ATOM     16  C   LIG    1       25.146 -24.338   6.573  0.00  0.00    +0.030 A 
ATOM     17  C   LIG    1       26.263 -25.181   6.697  0.00  0.00    +0.027 A 
ATOM     18  C   LIG    1       26.210 -26.549   6.389  0.00  0.00    +0.047 A 
ATOM     19  C   LIG    1       25.036 -27.142   5.937  0.00  0.00    +0.121 A 
ATOM     20  C   LIG    1       23.905 -26.346   5.822  0.00  0.00    +0.047 A 
ATOM     21  C   LIG    1       23.964 -24.972   6.141  0.00  0.00    +0.027 A 
BRANCH  16  27
ATOM     22  C   LIG    1       28.447 -19.481   6.147  0.00  0.00    +0.109 C 
ATOM     23  C   LIG    1       27.902 -20.340   7.268  0.00  0.00    +0.213 C 
ATOM     24  N   LIG    1       26.515 -20.415   7.385  0.00  0.00    -0.299 N 
ATOM     25  C   LIG    1       25.647 -20.553   6.221  0.00  0.00    +0.126 C 
ATOM     26  C   LIG    1       25.561 -22.033   5.790  0.00  0.00    +0.124 C 
ATOM     27  N   LIG    1       25.208 -22.958   6.905  0.00  0.00    -0.327 N 
ATOM     28  C   LIG    1       25.876 -22.660   8.212  0.00  0.00    +0.124 C 
ATOM     29  C   LIG    1       25.973 -21.155   8.519  0.00  0.00    +0.126 C 
ATOM     30  O   LIG    1       28.661 -20.857   8.076  0.00  0.00    -0.276 OA
ENDBRANCH  16  27
ENDBRANCH  15  19
ENDBRANCH  14  15
ENDBRANCH   1  14
BRANCH   3  31
ATOM     31  C   LIG    1       24.056 -32.219   9.706  0.00  0.00    +0.193 C 
BRANCH  31  32
ATOM     32  N   LIG    1       23.960 -32.860   8.413  0.00  0.00    -0.331 N 
ATOM     33  C   LIG    1       24.997 -33.127   7.564  0.00  0.00    +0.199 A 
ATOM     34  N   LIG    1       24.566 -33.605   6.418  0.00  0.00    -0.244 NA
ATOM     35  C   LIG    1       23.200 -33.648   6.534  0.00  0.00    +0.130 A 
ATOM     36  C   LIG    1       22.802 -33.189   7.767  0.00  0.00    +0.107 A 
ENDBRANCH  31  32
ENDBRANCH   3  31
TORSDOF 7
ENDMDL
MODEL 6
REMARK VINA RESULT:      -9.1      4.190     11.153
REMARK  Name = *****
REMARK                            x       y       z     vdW  Elec       q    Type
REMARK                         _______ _______ _______ _____ _____    ______ ____
ROOT
ATOM      1  C   LIG    1       24.445 -29.586   7.896  0.00  0.00    +0.185 C 
ATOM      2  O   LIG    1       23.535 -30.566   8.395  0.00  0.00    -0.334 OA
ATOM      3  C   LIG    1       23.921 -30.832   9.763  0.00  0.00    +0.217 C 
ATOM      4  O   LIG    1       25.227 -30.250   9.972  0.00  0.00    -0.341 OA
ATOM      5  C   LIG    1       25.696 -29.832   8.695  0.00  0.00    +0.198 C 
ENDROOT
BRANCH   3   6
ATOM      6  C   LIG    1       22.945 -30.209  10.774  0.00  0.00    +0.031 A 
ATOM      7  C   LIG    1       21.610 -30.621  10.953  0.00  0.00    +0.051 A 
ATOM      8 CL   LIG    1       20.860 -31.857  10.004  0.00  0.00    -0.083 Cl
ATOM      9  C   LIG    1       20.801 -30.057  11.953  0.00  0.00    +0.040 A 
ATOM     10  C   LIG    1       21.310 -29.082  12.803  0.00  0.00    +0.042 A 
ATOM     11 CL   LIG    1       20.330 -28.457  14.072  0.00  0.00    -0.084 Cl
ATOM     12  C   LIG    1       22.613 -28.636  12.645  0.00  0.00    +0.020 A 
ATOM     13  C   LIG    1       23.415 -29.187  11.638  0.00  0.00    +0.012 A 
ENDBRANCH   3   6
BRANCH   1  14
ATOM     14  C   LIG    1       24.634 -29.711   6.383  0.00  0.00    +0.263 C 
BRANCH  14  15
ATOM     15  O   LIG    1       25.499 -28.694   5.881  0.00  0.00    -0.489 OA
BRANCH  15  19
ATOM     16  C   LIG    1       24.904 -24.567   6.610  0.00  0.00    +0.030 A 
ATOM     17  C   LIG    1       26.061 -25.281   6.963  0.00  0.00    +0.027 A 
ATOM     18  C   LIG    1       26.207 -26.652   6.702  0.00  0.00    +0.047 A 
ATOM     19  C   LIG    1       25.203 -27.378   6.071  0.00  0.00    +0.121 A 
ATOM     20  C   LIG    1       24.034 -26.713   5.727  0.00  0.00    +0.047 A 
ATOM     21  C   LIG    1       23.892 -25.334   6.000  0.00  0.00    +0.027 A 
BRANCH  16  27
ATOM     22  C   LIG    1       22.454 -19.549   4.746  0.00  0.00    +0.109 C 
ATOM     23  C   LIG    1       23.860 -20.063   4.975  0.00  0.00    +0.213 C 
ATOM     24  N   LIG    1       24.198 -20.406   6.282  0.00  0.00    -0.299 N 
ATOM     25  C   LIG    1       23.283 -21.136   7.152  0.00  0.00    +0.126 C 
ATOM     26  C   LIG    1       23.369 -22.651   6.870  0.00  0.00    +0.124 C 
ATOM     27  N   LIG    1       24.762 -23.183   6.896  0.00  0.00    -0.327 N 
ATOM     28  C   LIG    1       25.789 -22.304   6.252  0.00  0.00    +0.124 C 
ATOM     29  C   LIG    1       25.577 -20.806   6.539  0.00  0.00    +0.126 C 
ATOM     30  O   LIG    1       24.670 -20.078   4.058  0.00  0.00    -0.276 OA
ENDBRANCH  16  27
ENDBRANCH  15  19
ENDBRANCH  14  15
ENDBRANCH   1  14
BRANCH   3  31
ATOM     31  C   LIG    1       24.042 -32.372   9.867  0.00  0.00    +0.193 C 
BRANCH  31  32
ATOM     32  N   LIG    1       24.913 -33.007   8.904  0.00  0.00    -0.331 N 
ATOM     33  C   LIG    1       26.236 -33.302   9.081  0.00  0.00    +0.199 A 
ATOM     34  N   LIG    1       26.775 -33.764   7.975  0.00  0.00    -0.244 NA
ATOM     35  C   LIG    1       25.761 -33.769   7.052  0.00  0.00    +0.130 A 
ATOM     36  C   LIG    1       24.595 -33.301   7.609  0.00  0.00    +0.107 A 
ENDBRANCH  31  32
ENDBRANCH   3  31
TORSDOF 7
ENDMDL
MODEL 7
REMARK VINA RESULT:      -9.0      4.329     10.927
REMARK  Name = *****
REMARK                            x       y       z     vdW  Elec       q    Type
REMARK                         _______ _______ _______ _____ _____    ______ ____
ROOT
ATOM      1  C   LIG    1       24.913 -30.249   7.188  0.00  0.00    +0.185 C 
ATOM      2  O   LIG    1       23.849 -30.330   8.137  0.00  0.00    -0.334 OA
ATOM      3  C   LIG    1       24.162 -31.433   9.018  0.00  0.00    +0.217 C 
ATOM      4  O   LIG    1       25.235 -32.187   8.413  0.00  0.00    -0.341 OA
ATOM      5  C   LIG    1       25.411 -31.666   7.101  0.00  0.00    +0.198 C 
ENDROOT
BRANCH   3   6
ATOM      6  C   LIG    1       24.625 -30.955  10.404  0.00  0.00    +0.031 A 
ATOM      7  C   LIG    1       25.151 -31.796  11.405  0.00  0.00    +0.051 A 
ATOM      8 CL   LIG    1       25.289 -33.511  11.231  0.00  0.00    -0.083 Cl
ATOM      9  C   LIG    1       25.628 -31.274  12.619  0.00  0.00    +0.040 A 
ATOM     10  C   LIG    1       25.604 -29.904  12.853  0.00  0.00    +0.042 A 
ATOM     11 CL   LIG    1       26.263 -29.275  14.312  0.00  0.00    -0.084 Cl
ATOM     12  C   LIG    1       25.074 -29.047  11.901  0.00  0.00    +0.020 A 
ATOM     13  C   LIG    1       24.585 -29.568  10.697  0.00  0.00    +0.012 A 
ENDBRANCH   3   6
BRANCH   1  14
ATOM     14  C   LIG    1       24.436 -29.670   5.855  0.00  0.00    +0.263 C 
BRANCH  14  15
ATOM     15  O   LIG    1       25.379 -28.740   5.326  0.00  0.00    -0.489 OA
BRANCH  15  19
ATOM     16  C   LIG    1       24.988 -24.703   6.539  0.00  0.00    +0.030 A 
ATOM     17  C   LIG    1       23.921 -25.521   6.133  0.00  0.00    +0.027 A 
ATOM     18  C   LIG    1       24.105 -26.855   5.736  0.00  0.00    +0.047 A 
ATOM     19  C   LIG    1       25.366 -27.437   5.728  0.00  0.00    +0.121 A 
ATOM     20  C   LIG    1       26.450 -26.655   6.101  0.00  0.00    +0.047 A 
ATOM     21  C   LIG    1       26.258 -25.312   6.493  0.00  0.00    +0.027 A 
BRANCH  16  27
ATOM     22  C   LIG    1       22.497 -19.615   4.937  0.00  0.00    +0.109 C 
ATOM     23  C   LIG    1       23.903 -20.111   5.201  0.00  0.00    +0.213 C 
ATOM     24  N   LIG    1       24.182 -20.548   6.495  0.00  0.00    -0.299 N 
ATOM     25  C   LIG    1       23.243 -21.365   7.255  0.00  0.00    +0.126 C 
ATOM     26  C   LIG    1       23.387 -22.851   6.862  0.00  0.00    +0.124 C 
ATOM     27  N   LIG    1       24.791 -23.350   6.922  0.00  0.00    -0.327 N 
ATOM     28  C   LIG    1       25.825 -22.398   6.406  0.00  0.00    +0.124 C 
ATOM     29  C   LIG    1       25.556 -20.933   6.795  0.00  0.00    +0.126 C 
ATOM     30  O   LIG    1       24.760 -20.034   4.332  0.00  0.00    -0.276 OA
ENDBRANCH  16  27
ENDBRANCH  15  19
ENDBRANCH  14  15
ENDBRANCH   1  14
BRANCH   3  31
ATOM     31  C   LIG    1       22.890 -32.315   9.046  0.00  0.00    +0.193 C 
BRANCH  31  32
ATOM     32  N   LIG    1       21.952 -32.043  10.112  0.00  0.00    -0.331 N 
ATOM     33  C   LIG    1       21.244 -30.888  10.292  0.00  0.00    +0.199 A 
ATOM     34  N   LIG    1       20.572 -30.910  11.422  0.00  0.00    -0.244 NA
ATOM     35  C   LIG    1       20.857 -32.126  11.989  0.00  0.00    +0.130 A 
ATOM     36  C   LIG    1       21.713 -32.846  11.192  0.00  0.00    +0.107 A 
ENDBRANCH  31  32
ENDBRANCH   3  31
TORSDOF 7
ENDMDL
MODEL 8
REMARK VINA RESULT:      -8.9      2.783      3.404
REMARK  Name = *****
REMARK                            x       y       z     vdW  Elec       q    Type
REMARK                         _______ _______ _______ _____ _____    ______ ____
ROOT
ATOM      1  C   LIG    1       24.616 -24.260   6.362  0.00  0.00    +0.185 C 
ATOM      2  O   LIG    1       25.205 -23.440   5.353  0.00  0.00    -0.334 OA
ATOM      3  C   LIG    1       24.825 -22.077   5.653  0.00  0.00    +0.217 C 
ATOM      4  O   LIG    1       23.774 -22.122   6.642  0.00  0.00    -0.341 OA
ATOM      5  C   LIG    1       23.392 -23.487   6.770  0.00  0.00    +0.198 C 
ENDROOT
BRANCH   3   6
ATOM      6  C   LIG    1       25.996 -21.260   6.226  0.00  0.00    +0.031 A 
ATOM      7  C   LIG    1       26.366 -21.238   7.584  0.00  0.00    +0.051 A 
ATOM      8 CL   LIG    1       25.504 -22.089   8.819  0.00  0.00    -0.083 Cl
ATOM      9  C   LIG    1       27.498 -20.529   8.020  0.00  0.00    +0.040 A 
ATOM     10  C   LIG    1       28.291 -19.841   7.109  0.00  0.00    +0.042 A 
ATOM     11 CL   LIG    1       29.716 -19.043   7.648  0.00  0.00    -0.084 Cl
ATOM     12  C   LIG    1       27.946 -19.822   5.766  0.00  0.00    +0.020 A 
ATOM     13  C   LIG    1       26.809 -20.515   5.333  0.00  0.00    +0.012 A 
ENDBRANCH   3   6
BRANCH   1  14
ATOM     14  C   LIG    1       24.323 -25.668   5.841  0.00  0.00    +0.263 C 
BRANCH  14  15
ATOM     15  O   LIG    1       25.421 -26.548   6.072  0.00  0.00    -0.489 OA
BRANCH  15  19
ATOM     16  C   LIG    1       25.195 -29.857   8.702  0.00  0.00    +0.030 A 
ATOM     17  C   LIG    1       26.076 -28.774   8.856  0.00  0.00    +0.027 A 
ATOM     18  C   LIG    1       26.114 -27.701   7.952  0.00  0.00    +0.047 A 
ATOM     19  C   LIG    1       25.269 -27.657   6.849  0.00  0.00    +0.121 A 
ATOM     20  C   LIG    1       24.399 -28.720   6.649  0.00  0.00    +0.047 A 
ATOM     21  C   LIG    1       24.372 -29.799   7.559  0.00  0.00    +0.027 A 
BRANCH  16  27
ATOM     22  C   LIG    1       21.759 -32.990  12.313  0.00  0.00    +0.109 C 
ATOM     23  C   LIG    1       22.985 -32.112  12.455  0.00  0.00    +0.213 C 
ATOM     24  N   LIG    1       24.140 -32.538  11.804  0.00  0.00    -0.299 N 
ATOM     25  C   LIG    1       24.109 -33.090  10.454  0.00  0.00    +0.126 C 
ATOM     26  C   LIG    1       24.096 -31.952   9.410  0.00  0.00    +0.124 C 
ATOM     27  N   LIG    1       25.178 -30.945   9.614  0.00  0.00    -0.327 N 
ATOM     28  C   LIG    1       25.433 -30.568  11.041  0.00  0.00    +0.124 C 
ATOM     29  C   LIG    1       25.357 -31.761  12.011  0.00  0.00    +0.126 C 
ATOM     30  O   LIG    1       22.963 -31.132  13.187  0.00  0.00    -0.276 OA
ENDBRANCH  16  27
ENDBRANCH  15  19
ENDBRANCH  14  15
ENDBRANCH   1  14
BRANCH   3  31
ATOM     31  C   LIG    1       24.243 -21.510   4.336  0.00  0.00    +0.193 C 
BRANCH  31  32
ATOM     32  N   LIG    1       23.625 -20.206   4.423  0.00  0.00    -0.331 N 
ATOM     33  C   LIG    1       22.545 -19.873   5.191  0.00  0.00    +0.199 A 
ATOM     34  N   LIG    1       22.152 -18.641   4.955  0.00  0.00    -0.244 NA
ATOM     35  C   LIG    1       23.012 -18.163   4.000  0.00  0.00    +0.130 A 
ATOM     36  C   LIG    1       23.936 -19.120   3.655  0.00  0.00    +0.107 A 
ENDBRANCH  31  32
ENDBRANCH   3  31
TORSDOF 7
ENDMDL
MODEL 9
REMARK VINA RESULT:      -8.6      4.571     10.870
REMARK  Name = *****
REMARK                            x       y       z     vdW  Elec       q    Type
REMARK                         _______ _______ _______ _____ _____    ______ ____
ROOT
ATOM      1  C   LIG    1       24.552 -30.090   7.476  0.00  0.00    +0.185 C 
ATOM      2  O   LIG    1       23.552 -30.169   8.492  0.00  0.00    -0.334 OA
ATOM      3  C   LIG    1       23.891 -31.305   9.320  0.00  0.00    +0.217 C 
ATOM      4  O   LIG    1       24.897 -32.071   8.623  0.00  0.00    -0.341 OA
ATOM      5  C   LIG    1       25.000 -31.518   7.316  0.00  0.00    +0.198 C 
ENDROOT
BRANCH   3   6
ATOM      6  C   LIG    1       24.461 -30.881  10.683  0.00  0.00    +0.031 A 
ATOM      7  C   LIG    1       25.116 -31.748  11.580  0.00  0.00    +0.051 A 
ATOM      8 CL   LIG    1       25.316 -33.441  11.292  0.00  0.00    -0.083 Cl
ATOM      9  C   LIG    1       25.682 -31.270  12.774  0.00  0.00    +0.040 A 
ATOM     10  C   LIG    1       25.618 -29.918  13.090  0.00  0.00    +0.042 A 
ATOM     11 CL   LIG    1       26.383 -29.337  14.518  0.00  0.00    -0.084 Cl
ATOM     12  C   LIG    1       24.963 -29.037  12.244  0.00  0.00    +0.020 A 
ATOM     13  C   LIG    1       24.385 -29.516  11.061  0.00  0.00    +0.012 A 
ENDBRANCH   3   6
BRANCH   1  14
ATOM     14  C   LIG    1       24.004 -29.459   6.195  0.00  0.00    +0.263 C 
BRANCH  14  15
ATOM     15  O   LIG    1       24.985 -28.646   5.555  0.00  0.00    -0.489 OA
BRANCH  15  19
ATOM     16  C   LIG    1       25.123 -24.529   6.531  0.00  0.00    +0.030 A 
ATOM     17  C   LIG    1       24.033 -25.168   5.919  0.00  0.00    +0.027 A 
ATOM     18  C   LIG    1       24.039 -26.538   5.612  0.00  0.00    +0.047 A 
ATOM     19  C   LIG    1       25.137 -27.338   5.906  0.00  0.00    +0.121 A 
ATOM     20  C   LIG    1       26.244 -26.739   6.491  0.00  0.00    +0.047 A 
ATOM     21  C   LIG    1       26.233 -25.359   6.790  0.00  0.00    +0.027 A 
BRANCH  16  27
ATOM     22  C   LIG    1       27.965 -19.453   5.625  0.00  0.00    +0.109 C 
ATOM     23  C   LIG    1       27.614 -20.314   6.821  0.00  0.00    +0.213 C 
ATOM     24  N   LIG    1       26.259 -20.490   7.091  0.00  0.00    -0.299 N 
ATOM     25  C   LIG    1       25.283 -20.731   6.034  0.00  0.00    +0.126 C 
ATOM     26  C   LIG    1       25.268 -22.227   5.651  0.00  0.00    +0.124 C 
ATOM     27  N   LIG    1       25.112 -23.139   6.820  0.00  0.00    -0.327 N 
ATOM     28  C   LIG    1       25.891 -22.748   8.038  0.00  0.00    +0.124 C 
ATOM     29  C   LIG    1       25.902 -21.230   8.296  0.00  0.00    +0.126 C 
ATOM     30  O   LIG    1       28.494 -20.745   7.552  0.00  0.00    -0.276 OA
ENDBRANCH  16  27
ENDBRANCH  15  19
ENDBRANCH  14  15
ENDBRANCH   1  14
BRANCH   3  31
ATOM     31  C   LIG    1       22.597 -32.151   9.411  0.00  0.00    +0.193 C 
BRANCH  31  32
ATOM     32  N   LIG    1       21.715 -31.845  10.514  0.00  0.00    -0.331 N 
ATOM     33  C   LIG    1       21.554 -32.588  11.650  0.00  0.00    +0.199 A 
ATOM     34  N   LIG    1       20.589 -32.107  12.403  0.00  0.00    -0.244 NA
ATOM     35  C   LIG    1       20.114 -31.013  11.727  0.00  0.00    +0.130 A 
ATOM     36  C   LIG    1       20.799 -30.832  10.550  0.00  0.00    +0.107 A 
ENDBRANCH  31  32
ENDBRANCH   3  31
TORSDOF 7
ENDMDL
