MODEL 1
REMARK VINA RESULT:       0.7      0.000      0.000
REMARK  Name = *****
REMARK                            x       y       z     vdW  Elec       q    Type
REMARK                         _______ _______ _______ _____ _____    ______ ____
ROOT
ATOM      1  C   LIG    1       25.282 -15.516   3.805  0.00  0.00    +0.125 A 
ATOM      2  C   LIG    1       26.591 -15.982   3.661  0.00  0.00    +0.069 A 
ATOM      3 CL   LIG    1       27.978 -14.957   3.551  0.00  0.00    -0.082 Cl
ATOM      4  C   LIG    1       26.833 -17.365   3.604  0.00  0.00    +0.047 A 
ATOM      5  C   LIG    1       25.789 -18.290   3.709  0.00  0.00    +0.057 A 
ATOM      6  N   LIG    1       26.048 -19.647   3.707  0.00  0.00    -0.326 N 
ATOM      7  H   LIG    1       27.012 -19.920   3.552  0.00  0.00    +0.148 HD
ATOM      8  C   LIG    1       25.277 -20.594   4.506  0.00  0.00    +0.163 C 
ATOM      9  N   LIG    1       23.952 -20.125   4.855  0.00  0.00    -0.170 NA
ATOM     10  H   LIG    1       23.702 -20.025   5.834  0.00  0.00    +0.150 HD
ATOM     11  S   LIG    1       23.220 -18.989   3.896  0.00  0.00    +0.062 S 
ATOM     12  O   LIG    1       22.150 -18.439   4.701  0.00  0.00    -0.153 OA
ATOM     13  O   LIG    1       22.990 -19.530   2.578  0.00  0.00    -0.153 OA
ATOM     14  C   LIG    1       24.496 -17.791   3.801  0.00  0.00    +0.128 A 
ATOM     15  C   LIG    1       24.218 -16.426   3.870  0.00  0.00    +0.060 A 
ENDROOT
BRANCH   8  16
ATOM     16  C   LIG    1       26.057 -20.872   5.809  0.00  0.00    +0.033 C 
ATOM     17  C   LIG    1       27.526 -21.352   5.635  0.00  0.00    +0.018 C 
ATOM     18  C   LIG    1       28.053 -21.134   7.059  0.00  0.00    +0.015 C 
ATOM     19  C   LIG    1       27.747 -19.636   7.047  0.00  0.00    +0.012 C 
ATOM     20  C   LIG    1       28.462 -19.260   5.770  0.00  0.00    -0.027 C 
ATOM     21  C   LIG    1       28.332 -20.293   4.923  0.00  0.00    -0.027 C 
ATOM     22  C   LIG    1       26.235 -19.626   6.743  0.00  0.00    +0.015 C 
ENDBRANCH   8  16
BRANCH   1  23
ATOM     23  S   LIG    1       24.924 -13.795   3.957  0.00  0.00    +0.057 S 
ATOM     24  O   LIG    1       23.491 -13.614   3.919  0.00  0.00    -0.153 OA
ATOM     25  O   LIG    1       25.731 -13.236   5.014  0.00  0.00    -0.153 OA
BRANCH  23  26
ATOM     26  N   LIG    1       25.475 -13.156   2.509  0.00  0.00    -0.203 NA
ATOM     27  H   LIG    1       25.865 -13.899   1.926  0.00  0.00    +0.144 HD
ATOM     28  H   LIG    1       24.731 -12.624   2.057  0.00  0.00    +0.144 HD
ENDBRANCH  23  26
ENDBRANCH   1  23
TORSDOF 3
ENDMDL
MODEL 2
REMARK VINA RESULT:       0.9      1.143      1.299
REMARK  Name = *****
REMARK                            x       y       z     vdW  Elec       q    Type
REMARK                         _______ _______ _______ _____ _____    ______ ____
ROOT
ATOM      1  C   LIG    1       24.906 -15.386   3.877  0.00  0.00    +0.125 A 
ATOM      2  C   LIG    1       26.006 -16.191   3.571  0.00  0.00    +0.069 A 
ATOM      3 CL   LIG    1       27.600 -15.587   3.289  0.00  0.00    -0.082 Cl
ATOM      4  C   LIG    1       25.843 -17.584   3.482  0.00  0.00    +0.047 A 
ATOM      5  C   LIG    1       24.603 -18.186   3.716  0.00  0.00    +0.057 A 
ATOM      6  N   LIG    1       24.470 -19.561   3.681  0.00  0.00    -0.326 N 
ATOM      7  H   LIG    1       25.294 -20.084   3.406  0.00  0.00    +0.148 HD
ATOM      8  C   LIG    1       23.566 -20.286   4.568  0.00  0.00    +0.163 C 
ATOM      9  N   LIG    1       22.477 -19.481   5.081  0.00  0.00    -0.170 NA
ATOM     10  H   LIG    1       22.384 -19.351   6.083  0.00  0.00    +0.150 HD
ATOM     11  S   LIG    1       21.983 -18.153   4.221  0.00  0.00    +0.062 S 
ATOM     12  O   LIG    1       21.213 -17.358   5.154  0.00  0.00    -0.153 OA
ATOM     13  O   LIG    1       21.454 -18.562   2.941  0.00  0.00    -0.153 OA
ATOM     14  C   LIG    1       23.521 -17.353   3.969  0.00  0.00    +0.128 A 
ATOM     15  C   LIG    1       23.646 -15.968   4.074  0.00  0.00    +0.060 A 
ENDROOT
BRANCH   8  16
ATOM     16  C   LIG    1       24.388 -20.816   5.763  0.00  0.00    +0.033 C 
ATOM     17  C   LIG    1       25.701 -21.568   5.408  0.00  0.00    +0.018 C 
ATOM     18  C   LIG    1       26.391 -21.572   6.778  0.00  0.00    +0.015 C 
ATOM     19  C   LIG    1       26.406 -20.046   6.883  0.00  0.00    +0.012 C 
ATOM     20  C   LIG    1       27.063 -19.726   5.561  0.00  0.00    -0.027 C 
ATOM     21  C   LIG    1       26.642 -20.642   4.676  0.00  0.00    -0.027 C 
ATOM     22  C   LIG    1       24.908 -19.707   6.742  0.00  0.00    +0.015 C 
ENDBRANCH   8  16
BRANCH   1  23
ATOM     23  S   LIG    1       25.063 -13.640   4.075  0.00  0.00    +0.057 S 
ATOM     24  O   LIG    1       23.745 -13.071   4.238  0.00  0.00    -0.153 OA
ATOM     25  O   LIG    1       26.129 -13.364   5.007  0.00  0.00    -0.153 OA
BRANCH  23  26
ATOM     26  N   LIG    1       25.568 -13.124   2.562  0.00  0.00    -0.203 NA
ATOM     27  H   LIG    1       26.254 -13.778   2.182  0.00  0.00    +0.144 HD
ATOM     28  H   LIG    1       24.761 -12.974   1.957  0.00  0.00    +0.144 HD
ENDBRANCH  23  26
ENDBRANCH   1  23
TORSDOF 3
ENDMDL
