MODEL 1
REMARK VINA RESULT:      12.7      0.000      0.000
REMARK  Name = *****
REMARK                            x       y       z     vdW  Elec       q    Type
REMARK                         _______ _______ _______ _____ _____    ______ ____
ROOT
ATOM      1  C   LIG    1       24.937 -18.127   4.110  0.00  0.00    +0.064 A 
ATOM      2  C   LIG    1       26.280 -17.663   4.036  0.00  0.00    +0.049 A 
ATOM      3  I   LIG    1       27.870 -19.127   4.116  0.00  0.00    -0.041 I 
ATOM      4  C   LIG    1       26.566 -16.287   3.789  0.00  0.00    +0.065 A 
ATOM      5  C   LIG    1       25.463 -15.447   3.425  0.00  0.00    +0.040 A 
ATOM      6  I   LIG    1       25.752 -13.763   2.117  0.00  0.00    -0.042 I 
ATOM      7  C   LIG    1       24.132 -15.831   3.751  0.00  0.00    +0.065 A 
ATOM      8  C   LIG    1       23.910 -17.158   4.161  0.00  0.00    +0.049 A 
ATOM      9  I   LIG    1       22.076 -17.788   5.213  0.00  0.00    -0.041 I 
ENDROOT
BRANCH   4  10
ATOM     10  C   LIG    1       27.963 -15.679   4.048  0.00  0.00    +0.246 C 
ATOM     11  N   LIG    1       28.226 -14.433   3.475  0.00  0.00    -0.309 N 
ATOM     12  H   LIG    1       27.496 -13.985   2.939  0.00  0.00    +0.149 HD
ATOM     13  O   LIG    1       28.844 -16.268   4.659  0.00  0.00    -0.270 OA
BRANCH  11  14
ATOM     14  C   LIG    1       29.466 -13.670   3.687  0.00  0.00    +0.138 C 
BRANCH  14  15
ATOM     15  C   LIG    1       29.262 -12.189   4.131  0.00  0.00    +0.157 C 
BRANCH  15  16
ATOM     16  O   LIG    1       28.210 -11.510   3.427  0.00  0.00    -0.388 OA
ATOM     17  H   LIG    1       28.042 -11.947   2.574  0.00  0.00    +0.210 HD
ENDBRANCH  15  16
BRANCH  15  18
ATOM     18  C   LIG    1       28.983 -12.139   5.650  0.00  0.00    +0.188 C 
BRANCH  18  19
ATOM     19  O   LIG    1       27.690 -12.623   6.005  0.00  0.00    -0.392 OA
ATOM     20  H   LIG    1       27.696 -12.807   6.963  0.00  0.00    +0.209 HD
ENDBRANCH  18  19
ENDBRANCH  15  18
ENDBRANCH  14  15
ENDBRANCH  11  14
ENDBRANCH   4  10
BRANCH   1  23
ATOM     21  C   LIG    1       23.563 -21.411   2.728  0.00  0.00    +0.110 C 
ATOM     22  C   LIG    1       23.631 -19.941   3.094  0.00  0.00    +0.217 C 
ATOM     23  N   LIG    1       24.556 -19.530   4.064  0.00  0.00    -0.267 N 
ATOM     24  O   LIG    1       22.916 -19.148   2.476  0.00  0.00    -0.276 OA
BRANCH  23  25
ATOM     25  C   LIG    1       25.486 -20.468   4.767  0.00  0.00    +0.147 C 
BRANCH  25  26
ATOM     26  C   LIG    1       25.189 -20.619   6.268  0.00  0.00    +0.158 C 
BRANCH  26  27
ATOM     27  O   LIG    1       23.956 -21.330   6.451  0.00  0.00    -0.388 OA
ATOM     28  H   LIG    1       23.680 -21.667   5.580  0.00  0.00    +0.210 HD
ENDBRANCH  26  27
BRANCH  26  29
ATOM     29  C   LIG    1       26.292 -21.327   7.055  0.00  0.00    +0.188 C 
BRANCH  29  30
ATOM     30  O   LIG    1       27.460 -21.465   6.252  0.00  0.00    -0.392 OA
ATOM     31  H   LIG    1       27.165 -21.477   5.322  0.00  0.00    +0.209 HD
ENDBRANCH  29  30
ENDBRANCH  26  29
ENDBRANCH  25  26
ENDBRANCH  23  25
ENDBRANCH   1  23
BRANCH   7  32
ATOM     32  C   LIG    1       23.004 -14.802   3.810  0.00  0.00    +0.246 C 
ATOM     33  N   LIG    1       23.521 -13.499   3.830  0.00  0.00    -0.309 N 
ATOM     34  H   LIG    1       24.517 -13.397   3.929  0.00  0.00    +0.149 HD
ATOM     35  O   LIG    1       21.840 -15.081   3.839  0.00  0.00    -0.270 OA
BRANCH  33  36
ATOM     36  C   LIG    1       22.696 -12.297   3.940  0.00  0.00    +0.138 C 
BRANCH  36  37
ATOM     37  C   LIG    1       23.016 -11.447   5.192  0.00  0.00    +0.157 C 
BRANCH  37  38
ATOM     38  O   LIG    1       21.974 -11.524   6.183  0.00  0.00    -0.388 OA
ATOM     39  H   LIG    1       22.010 -12.398   6.605  0.00  0.00    +0.210 HD
ENDBRANCH  37  38
BRANCH  37  40
ATOM     40  C   LIG    1       24.330 -11.837   5.876  0.00  0.00    +0.188 C 
BRANCH  40  41
ATOM     41  O   LIG    1       25.237 -12.360   4.904  0.00  0.00    -0.392 OA
ATOM     42  H   LIG    1       26.044 -11.809   4.961  0.00  0.00    +0.209 HD
ENDBRANCH  40  41
ENDBRANCH  37  40
ENDBRANCH  36  37
ENDBRANCH  33  36
ENDBRANCH   7  32
TORSDOF 18
ENDMDL
MODEL 2
REMARK VINA RESULT:      15.5      2.356      5.821
REMARK  Name = *****
REMARK                            x       y       z     vdW  Elec       q    Type
REMARK                         _______ _______ _______ _____ _____    ______ ____
ROOT
ATOM      1  C   LIG    1       23.803 -17.265   3.968  0.00  0.00    +0.064 A 
ATOM      2  C   LIG    1       24.558 -16.125   3.575  0.00  0.00    +0.049 A 
ATOM      3  I   LIG    1       23.488 -14.309   3.095  0.00  0.00    -0.041 I 
ATOM      4  C   LIG    1       25.985 -16.142   3.619  0.00  0.00    +0.065 A 
ATOM      5  C   LIG    1       26.604 -17.267   4.256  0.00  0.00    +0.040 A 
ATOM      6  I   LIG    1       28.484 -17.050   5.280  0.00  0.00    -0.042 I 
ATOM      7  C   LIG    1       25.891 -18.491   4.401  0.00  0.00    +0.065 A 
ATOM      8  C   LIG    1       24.502 -18.475   4.179  0.00  0.00    +0.049 A 
ATOM      9  I   LIG    1       23.334 -20.311   3.817  0.00  0.00    -0.041 I 
ENDROOT
BRANCH   4  10
ATOM     10  C   LIG    1       26.842 -15.087   2.884  0.00  0.00    +0.246 C 
ATOM     11  N   LIG    1       27.990 -14.638   3.539  0.00  0.00    -0.309 N 
ATOM     12  H   LIG    1       28.214 -15.030   4.443  0.00  0.00    +0.149 HD
ATOM     13  O   LIG    1       26.518 -14.593   1.813  0.00  0.00    -0.270 OA
BRANCH  11  14
ATOM     14  C   LIG    1       28.964 -13.704   2.954  0.00  0.00    +0.138 C 
BRANCH  14  15
ATOM     15  C   LIG    1       28.558 -12.199   3.018  0.00  0.00    +0.157 C 
BRANCH  15  16
ATOM     16  O   LIG    1       27.184 -11.953   2.678  0.00  0.00    -0.388 OA
ATOM     17  H   LIG    1       27.018 -12.207   1.754  0.00  0.00    +0.210 HD
ENDBRANCH  15  16
BRANCH  15  18
ATOM     18  C   LIG    1       28.848 -11.646   4.431  0.00  0.00    +0.188 C 
BRANCH  18  19
ATOM     19  O   LIG    1       28.237 -12.403   5.473  0.00  0.00    -0.392 OA
ATOM     20  H   LIG    1       27.880 -13.219   5.075  0.00  0.00    +0.209 HD
ENDBRANCH  18  19
ENDBRANCH  15  18
ENDBRANCH  14  15
ENDBRANCH  11  14
ENDBRANCH   4  10
BRANCH   1  23
ATOM     21  C   LIG    1       20.108 -18.192   3.703  0.00  0.00    +0.110 C 
ATOM     22  C   LIG    1       21.507 -17.791   3.276  0.00  0.00    +0.217 C 
ATOM     23  N   LIG    1       22.372 -17.244   4.233  0.00  0.00    -0.267 N 
ATOM     24  O   LIG    1       21.856 -18.024   2.116  0.00  0.00    -0.276 OA
BRANCH  23  25
ATOM     25  C   LIG    1       21.992 -17.028   5.664  0.00  0.00    +0.147 C 
BRANCH  25  26
ATOM     26  C   LIG    1       22.240 -15.594   6.157  0.00  0.00    +0.158 C 
BRANCH  26  27
ATOM     27  O   LIG    1       22.929 -14.844   5.145  0.00  0.00    -0.388 OA
ATOM     28  H   LIG    1       23.879 -14.870   5.358  0.00  0.00    +0.210 HD
ENDBRANCH  26  27
BRANCH  26  29
ATOM     29  C   LIG    1       20.970 -14.840   6.554  0.00  0.00    +0.188 C 
BRANCH  29  30
ATOM     30  O   LIG    1       21.300 -13.551   7.059  0.00  0.00    -0.392 OA
ATOM     31  H   LIG    1       22.250 -13.568   7.284  0.00  0.00    +0.209 HD
ENDBRANCH  29  30
ENDBRANCH  26  29
ENDBRANCH  25  26
ENDBRANCH  23  25
ENDBRANCH   1  23
BRANCH   7  32
ATOM     32  C   LIG    1       26.624 -19.810   4.632  0.00  0.00    +0.246 C 
ATOM     33  N   LIG    1       26.660 -20.125   5.998  0.00  0.00    -0.309 N 
ATOM     34  H   LIG    1       26.334 -19.425   6.644  0.00  0.00    +0.149 HD
ATOM     35  O   LIG    1       27.104 -20.476   3.760  0.00  0.00    -0.270 OA
BRANCH  33  36
ATOM     36  C   LIG    1       27.339 -21.298   6.546  0.00  0.00    +0.138 C 
BRANCH  36  37
ATOM     37  C   LIG    1       28.882 -21.192   6.497  0.00  0.00    +0.157 C 
BRANCH  37  38
ATOM     38  O   LIG    1       29.394 -21.331   5.159  0.00  0.00    -0.388 OA
ATOM     39  H   LIG    1       29.957 -20.564   4.960  0.00  0.00    +0.210 HD
ENDBRANCH  37  38
BRANCH  37  40
ATOM     40  C   LIG    1       29.421 -19.873   7.061  0.00  0.00    +0.188 C 
BRANCH  40  41
ATOM     41  O   LIG    1       29.218 -18.828   6.108  0.00  0.00    -0.392 OA
ATOM     42  H   LIG    1       29.293 -19.245   5.226  0.00  0.00    +0.209 HD
ENDBRANCH  40  41
ENDBRANCH  37  40
ENDBRANCH  36  37
ENDBRANCH  33  36
ENDBRANCH   7  32
TORSDOF 18
ENDMDL
