MODEL 1
REMARK VINA RESULT:      -0.8      0.000      0.000
REMARK  Name = *****
REMARK                            x       y       z     vdW  Elec       q    Type
REMARK                         _______ _______ _______ _____ _____    ______ ____
ROOT
ATOM      1  C   LIG    1       25.432 -20.506   5.023  0.00  0.00    +0.006 C 
ATOM      2  C   LIG    1       26.398 -19.709   4.163  0.00  0.00    +0.107 C 
ATOM      3  S   LIG    1       25.846 -18.008   3.855  0.00  0.00    -0.131 S 
ATOM      4  C   LIG    1       24.218 -18.542   3.261  0.00  0.00    +0.169 C 
ATOM      5  N   LIG    1       23.535 -19.268   4.317  0.00  0.00    -0.249 N 
ATOM      6  C   LIG    1       22.606 -18.312   4.566  0.00  0.00    +0.244 C 
ATOM      7  O   LIG    1       21.815 -18.226   5.488  0.00  0.00    -0.273 OA
ATOM      8  CA  LIG    1       23.076 -17.478   3.336  0.00  0.00    +0.191 C 
ATOM      9  CA  LIG    1       24.093 -20.262   5.090  0.00  0.00    +0.125 C 
ENDROOT
BRANCH   8  10
ATOM     10  N   LIG    1       23.477 -16.057   3.579  0.00  0.00    -0.301 N 
ATOM     11  H   LIG    1       24.133 -15.608   2.947  0.00  0.00    +0.150 HD
ATOM     12  C   LIG    1       22.901 -15.302   4.583  0.00  0.00    +0.224 C 
ATOM     13  O   LIG    1       22.016 -15.751   5.308  0.00  0.00    -0.275 OA
BRANCH  12  14
ATOM     14  C   LIG    1       23.452 -13.889   4.738  0.00  0.00    +0.170 C 
BRANCH  14  15
ATOM     15  S   LIG    1       24.291 -13.351   3.204  0.00  0.00    -0.116 S 
BRANCH  15  16
ATOM     16  C   LIG    1       25.988 -13.226   3.771  0.00  0.00    +0.011 A 
ATOM     17  C   LIG    1       26.280 -13.257   5.137  0.00  0.00    +0.034 A 
ATOM     18  C   LIG    1       27.605 -13.154   5.534  0.00  0.00    +0.112 A 
ATOM     19  N   LIG    1       28.640 -13.044   4.675  0.00  0.00    -0.263 NA
ATOM     20  C   LIG    1       28.337 -13.051   3.361  0.00  0.00    +0.112 A 
ATOM     21  C   LIG    1       27.045 -13.143   2.866  0.00  0.00    +0.034 A 
ENDBRANCH  15  16
ENDBRANCH  14  15
ENDBRANCH  12  14
ENDBRANCH   8  10
BRANCH   9  22
ATOM     22  C   LIG    1       23.191 -21.133   5.953  0.00  0.00    +0.351 C 
ATOM     23  O   LIG    1       23.520 -21.553   7.054  0.00  0.00    -0.244 OA
BRANCH  22  24
ATOM     24  OXT LIG    1       22.035 -21.550   5.406  0.00  0.00    -0.476 OA
ATOM     25  HXT LIG    1       21.302 -21.769   6.023  0.00  0.00    +0.295 HD
ENDBRANCH  22  24
ENDBRANCH   9  22
BRANCH   1  26
ATOM     26  C   LIG    1       26.156 -21.570   5.833  0.00  0.00    +0.266 C 
BRANCH  26  27
ATOM     27  O   LIG    1       26.728 -21.049   7.045  0.00  0.00    -0.460 OA
BRANCH  27  29
ATOM     28  C   LIG    1       28.240 -19.273   6.939  0.00  0.00    +0.136 C 
ATOM     29  C   LIG    1       28.057 -20.758   6.971  0.00  0.00    +0.304 C 
ATOM     30  O   LIG    1       28.960 -21.572   6.842  0.00  0.00    -0.251 OA
ENDBRANCH  27  29
ENDBRANCH  26  27
ENDBRANCH   1  26
TORSDOF 9
ENDMDL
MODEL 2
REMARK VINA RESULT:      -0.8      2.417      4.011
REMARK  Name = *****
REMARK                            x       y       z     vdW  Elec       q    Type
REMARK                         _______ _______ _______ _____ _____    ______ ____
ROOT
ATOM      1  C   LIG    1       25.920 -20.429   5.300  0.00  0.00    +0.006 C 
ATOM      2  C   LIG    1       27.209 -20.177   6.063  0.00  0.00    +0.107 C 
ATOM      3  S   LIG    1       27.761 -18.450   5.985  0.00  0.00    -0.131 S 
ATOM      4  C   LIG    1       27.669 -18.402   4.176  0.00  0.00    +0.169 C 
ATOM      5  N   LIG    1       26.306 -18.669   3.755  0.00  0.00    -0.249 N 
ATOM      6  C   LIG    1       26.040 -17.410   3.331  0.00  0.00    +0.244 C 
ATOM      7  O   LIG    1       24.975 -16.910   3.015  0.00  0.00    -0.273 OA
ATOM      8  CA  LIG    1       27.526 -16.985   3.532  0.00  0.00    +0.191 C 
ATOM      9  CA  LIG    1       25.512 -19.690   4.231  0.00  0.00    +0.125 C 
ENDROOT
BRANCH   8  10
ATOM     10  N   LIG    1       27.791 -15.803   4.410  0.00  0.00    -0.301 N 
ATOM     11  H   LIG    1       28.001 -15.948   5.393  0.00  0.00    +0.150 HD
ATOM     12  C   LIG    1       27.862 -14.521   3.899  0.00  0.00    +0.224 C 
ATOM     13  O   LIG    1       27.734 -14.291   2.699  0.00  0.00    -0.275 OA
BRANCH  12  14
ATOM     14  C   LIG    1       28.089 -13.418   4.928  0.00  0.00    +0.170 C 
BRANCH  14  15
ATOM     15  S   LIG    1       26.611 -13.205   5.985  0.00  0.00    -0.116 S 
BRANCH  15  16
ATOM     16  C   LIG    1       25.307 -13.234   4.754  0.00  0.00    +0.011 A 
ATOM     17  C   LIG    1       24.347 -14.250   4.765  0.00  0.00    +0.034 A 
ATOM     18  C   LIG    1       23.358 -14.237   3.792  0.00  0.00    +0.112 A 
ATOM     19  N   LIG    1       23.253 -13.287   2.840  0.00  0.00    -0.263 NA
ATOM     20  C   LIG    1       24.169 -12.299   2.870  0.00  0.00    +0.112 A 
ATOM     21  C   LIG    1       25.199 -12.227   3.796  0.00  0.00    +0.034 A 
ENDBRANCH  15  16
ENDBRANCH  14  15
ENDBRANCH  12  14
ENDBRANCH   8  10
BRANCH   9  22
ATOM     22  C   LIG    1       24.220 -20.033   3.501  0.00  0.00    +0.351 C 
ATOM     23  O   LIG    1       24.044 -21.092   2.914  0.00  0.00    -0.244 OA
BRANCH  22  24
ATOM     24  OXT LIG    1       23.293 -19.064   3.404  0.00  0.00    -0.476 OA
ATOM     25  HXT LIG    1       22.752 -18.880   4.203  0.00  0.00    +0.295 HD
ENDBRANCH  22  24
ENDBRANCH   9  22
BRANCH   1  26
ATOM     26  C   LIG    1       25.124 -21.572   5.912  0.00  0.00    +0.266 C 
BRANCH  26  27
ATOM     27  O   LIG    1       24.235 -21.131   6.953  0.00  0.00    -0.460 OA
BRANCH  27  29
ATOM     28  C   LIG    1       22.212 -21.570   5.873  0.00  0.00    +0.136 C 
ATOM     29  C   LIG    1       23.089 -20.540   6.513  0.00  0.00    +0.304 C 
ATOM     30  O   LIG    1       22.849 -19.342   6.537  0.00  0.00    -0.251 OA
ENDBRANCH  27  29
ENDBRANCH  26  27
ENDBRANCH   1  26
TORSDOF 9
ENDMDL
MODEL 3
REMARK VINA RESULT:      -0.5      3.156      7.887
REMARK  Name = *****
REMARK                            x       y       z     vdW  Elec       q    Type
REMARK                         _______ _______ _______ _____ _____    ______ ____
ROOT
ATOM      1  C   LIG    1       24.968 -14.500   4.126  0.00  0.00    +0.006 C 
ATOM      2  C   LIG    1       23.946 -15.546   3.716  0.00  0.00    +0.107 C 
ATOM      3  S   LIG    1       24.474 -17.244   4.081  0.00  0.00    -0.131 S 
ATOM      4  C   LIG    1       26.059 -17.036   3.227  0.00  0.00    +0.169 C 
ATOM      5  N   LIG    1       26.812 -15.970   3.862  0.00  0.00    -0.249 N 
ATOM      6  C   LIG    1       27.753 -16.772   4.415  0.00  0.00    +0.244 C 
ATOM      7  O   LIG    1       28.604 -16.506   5.246  0.00  0.00    -0.273 OA
ATOM      8  CA  LIG    1       27.202 -18.014   3.652  0.00  0.00    +0.191 C 
ATOM      9  CA  LIG    1       26.308 -14.734   4.205  0.00  0.00    +0.125 C 
ENDROOT
BRANCH   8  10
ATOM     10  N   LIG    1       26.815 -19.208   4.467  0.00  0.00    -0.301 N 
ATOM     11  H   LIG    1       25.926 -19.666   4.290  0.00  0.00    +0.150 HD
ATOM     12  C   LIG    1       27.681 -19.771   5.386  0.00  0.00    +0.224 C 
ATOM     13  O   LIG    1       28.816 -19.335   5.561  0.00  0.00    -0.275 OA
BRANCH  12  14
ATOM     14  C   LIG    1       27.122 -20.951   6.173  0.00  0.00    +0.170 C 
BRANCH  14  15
ATOM     15  S   LIG    1       25.597 -20.471   7.062  0.00  0.00    -0.116 S 
BRANCH  15  16
ATOM     16  C   LIG    1       24.370 -20.691   5.772  0.00  0.00    +0.011 A 
ATOM     17  C   LIG    1       24.728 -21.258   4.546  0.00  0.00    +0.034 A 
ATOM     18  C   LIG    1       23.750 -21.406   3.573  0.00  0.00    +0.112 A 
ATOM     19  N   LIG    1       22.460 -21.052   3.746  0.00  0.00    -0.263 NA
ATOM     20  C   LIG    1       22.130 -20.539   4.949  0.00  0.00    +0.112 A 
ATOM     21  C   LIG    1       23.036 -20.345   5.981  0.00  0.00    +0.034 A 
ENDBRANCH  15  16
ENDBRANCH  14  15
ENDBRANCH  12  14
ENDBRANCH   8  10
BRANCH   9  22
ATOM     22  C   LIG    1       27.267 -13.617   4.592  0.00  0.00    +0.351 C 
ATOM     23  O   LIG    1       28.142 -13.198   3.846  0.00  0.00    -0.244 OA
BRANCH  22  24
ATOM     24  OXT LIG    1       27.213 -13.173   5.860  0.00  0.00    -0.476 OA
ATOM     25  HXT LIG    1       27.666 -13.714   6.544  0.00  0.00    +0.295 HD
ENDBRANCH  22  24
ENDBRANCH   9  22
BRANCH   1  26
ATOM     26  C   LIG    1       24.302 -13.181   4.485  0.00  0.00    +0.266 C 
BRANCH  26  27
ATOM     27  O   LIG    1       24.922 -12.054   3.844  0.00  0.00    -0.460 OA
BRANCH  27  29
ATOM     28  C   LIG    1       23.689 -11.542   1.929  0.00  0.00    +0.136 C 
ATOM     29  C   LIG    1       24.955 -12.117   2.483  0.00  0.00    +0.304 C 
ATOM     30  O   LIG    1       25.826 -12.653   1.814  0.00  0.00    -0.251 OA
ENDBRANCH  27  29
ENDBRANCH  26  27
ENDBRANCH   1  26
TORSDOF 9
ENDMDL
MODEL 4
REMARK VINA RESULT:      -0.4      3.193      7.839
REMARK  Name = *****
REMARK                            x       y       z     vdW  Elec       q    Type
REMARK                         _______ _______ _______ _____ _____    ______ ____
ROOT
ATOM      1  C   LIG    1       25.788 -13.756   3.548  0.00  0.00    +0.006 C 
ATOM      2  C   LIG    1       24.555 -14.604   3.286  0.00  0.00    +0.107 C 
ATOM      3  S   LIG    1       24.683 -16.282   3.964  0.00  0.00    -0.131 S 
ATOM      4  C   LIG    1       26.275 -16.591   3.153  0.00  0.00    +0.169 C 
ATOM      5  N   LIG    1       27.250 -15.623   3.621  0.00  0.00    -0.249 N 
ATOM      6  C   LIG    1       27.984 -16.503   4.346  0.00  0.00    +0.244 C 
ATOM      7  O   LIG    1       28.873 -16.289   5.151  0.00  0.00    -0.273 OA
ATOM      8  CA  LIG    1       27.165 -17.707   3.790  0.00  0.00    +0.191 C 
ATOM      9  CA  LIG    1       27.040 -14.266   3.722  0.00  0.00    +0.125 C 
ENDROOT
BRANCH   8  10
ATOM     10  N   LIG    1       26.517 -18.618   4.784  0.00  0.00    -0.301 N 
ATOM     11  H   LIG    1       25.505 -18.621   4.872  0.00  0.00    +0.150 HD
ATOM     12  C   LIG    1       27.251 -19.532   5.517  0.00  0.00    +0.224 C 
ATOM     13  O   LIG    1       28.464 -19.658   5.371  0.00  0.00    -0.275 OA
BRANCH  12  14
ATOM     14  C   LIG    1       26.454 -20.352   6.526  0.00  0.00    +0.170 C 
BRANCH  14  15
ATOM     15  S   LIG    1       25.390 -21.571   5.672  0.00  0.00    -0.116 S 
BRANCH  15  16
ATOM     16  C   LIG    1       24.104 -20.502   5.023  0.00  0.00    +0.011 A 
ATOM     17  C   LIG    1       23.085 -20.036   5.857  0.00  0.00    +0.034 A 
ATOM     18  C   LIG    1       22.107 -19.215   5.314  0.00  0.00    +0.112 A 
ATOM     19  N   LIG    1       22.090 -18.819   4.024  0.00  0.00    -0.263 NA
ATOM     20  C   LIG    1       23.103 -19.253   3.246  0.00  0.00    +0.112 A 
ATOM     21  C   LIG    1       24.121 -20.082   3.694  0.00  0.00    +0.034 A 
ENDBRANCH  15  16
ENDBRANCH  14  15
ENDBRANCH  12  14
ENDBRANCH   8  10
BRANCH   9  22
ATOM     22  C   LIG    1       28.227 -13.340   3.946  0.00  0.00    +0.351 C 
ATOM     23  O   LIG    1       28.310 -12.575   4.898  0.00  0.00    -0.244 OA
BRANCH  22  24
ATOM     24  OXT LIG    1       29.157 -13.287   2.975  0.00  0.00    -0.476 OA
ATOM     25  HXT LIG    1       29.864 -12.611   3.069  0.00  0.00    +0.295 HD
ENDBRANCH  22  24
ENDBRANCH   9  22
BRANCH   1  26
ATOM     26  C   LIG    1       25.439 -12.279   3.643  0.00  0.00    +0.266 C 
BRANCH  26  27
ATOM     27  O   LIG    1       24.052 -12.057   3.950  0.00  0.00    -0.460 OA
BRANCH  27  29
ATOM     28  C   LIG    1       25.101 -11.521   5.965  0.00  0.00    +0.136 C 
ATOM     29  C   LIG    1       23.809 -11.626   5.219  0.00  0.00    +0.304 C 
ATOM     30  O   LIG    1       22.705 -11.452   5.715  0.00  0.00    -0.251 OA
ENDBRANCH  27  29
ENDBRANCH  26  27
ENDBRANCH   1  26
TORSDOF 9
ENDMDL
MODEL 5
REMARK VINA RESULT:       0.3      3.198      7.816
REMARK  Name = *****
REMARK                            x       y       z     vdW  Elec       q    Type
REMARK                         _______ _______ _______ _____ _____    ______ ____
ROOT
ATOM      1  C   LIG    1       25.606 -14.587   3.482  0.00  0.00    +0.006 C 
ATOM      2  C   LIG    1       24.424 -15.522   3.296  0.00  0.00    +0.107 C 
ATOM      3  S   LIG    1       24.681 -17.157   4.040  0.00  0.00    -0.131 S 
ATOM      4  C   LIG    1       26.264 -17.400   3.193  0.00  0.00    +0.169 C 
ATOM      5  N   LIG    1       27.188 -16.352   3.589  0.00  0.00    -0.249 N 
ATOM      6  C   LIG    1       27.998 -17.151   4.326  0.00  0.00    +0.244 C 
ATOM      7  O   LIG    1       28.894 -16.844   5.093  0.00  0.00    -0.273 OA
ATOM      8  CA  LIG    1       27.244 -18.428   3.848  0.00  0.00    +0.191 C 
ATOM      9  CA  LIG    1       26.893 -15.008   3.638  0.00  0.00    +0.125 C 
ENDROOT
BRANCH   8  10
ATOM     10  N   LIG    1       26.685 -19.333   4.900  0.00  0.00    -0.301 N 
ATOM     11  H   LIG    1       26.887 -19.146   5.878  0.00  0.00    +0.150 HD
ATOM     12  C   LIG    1       25.814 -20.359   4.586  0.00  0.00    +0.224 C 
ATOM     13  O   LIG    1       25.438 -20.564   3.435  0.00  0.00    -0.275 OA
BRANCH  12  14
ATOM     14  C   LIG    1       25.373 -21.225   5.762  0.00  0.00    +0.170 C 
BRANCH  14  15
ATOM     15  S   LIG    1       24.142 -20.343   6.788  0.00  0.00    -0.116 S 
BRANCH  15  16
ATOM     16  C   LIG    1       22.816 -20.112   5.603  0.00  0.00    +0.011 A 
ATOM     17  C   LIG    1       22.004 -21.187   5.233  0.00  0.00    +0.034 A 
ATOM     18  C   LIG    1       20.992 -20.966   4.310  0.00  0.00    +0.112 A 
ATOM     19  N   LIG    1       20.729 -19.763   3.757  0.00  0.00    -0.263 NA
ATOM     20  C   LIG    1       21.503 -18.734   4.156  0.00  0.00    +0.112 A 
ATOM     21  C   LIG    1       22.542 -18.855   5.066  0.00  0.00    +0.034 A 
ENDBRANCH  15  16
ENDBRANCH  14  15
ENDBRANCH  12  14
ENDBRANCH   8  10
BRANCH   9  22
ATOM     22  C   LIG    1       28.024 -13.999   3.785  0.00  0.00    +0.351 C 
ATOM     23  O   LIG    1       28.915 -13.867   2.958  0.00  0.00    -0.244 OA
BRANCH  22  24
ATOM     24  OXT LIG    1       28.096 -13.322   4.945  0.00  0.00    -0.476 OA
ATOM     25  HXT LIG    1       28.860 -13.517   5.531  0.00  0.00    +0.295 HD
ENDBRANCH  22  24
ENDBRANCH   9  22
BRANCH   1  26
ATOM     26  C   LIG    1       25.164 -13.132   3.526  0.00  0.00    +0.266 C 
BRANCH  26  27
ATOM     27  O   LIG    1       25.009 -12.641   4.868  0.00  0.00    -0.460 OA
BRANCH  27  29
ATOM     28  C   LIG    1       23.345 -11.449   3.744  0.00  0.00    +0.136 C 
ATOM     29  C   LIG    1       23.912 -11.857   5.067  0.00  0.00    +0.304 C 
ATOM     30  O   LIG    1       23.509 -11.456   6.149  0.00  0.00    -0.251 OA
ENDBRANCH  27  29
ENDBRANCH  26  27
ENDBRANCH   1  26
TORSDOF 9
ENDMDL
