MODEL 1
REMARK VINA RESULT:      -7.5      0.000      0.000
REMARK  Name = *****
REMARK                            x       y       z     vdW  Elec       q    Type
REMARK                         _______ _______ _______ _____ _____    ______ ____
ROOT
ATOM      1  N   LIG    1       25.275 -20.937   6.616  0.00  0.00    -0.297 N 
ATOM      2  C   LIG    1       26.644 -20.571   6.709  0.00  0.00    +0.048 A 
ATOM      3  C   LIG    1       27.312 -19.934   5.647  0.00  0.00    +0.034 A 
ATOM      4  C   LIG    1       28.669 -19.583   5.763  0.00  0.00    +0.017 A 
ATOM      5  C   LIG    1       29.367 -19.822   6.944  0.00  0.00    +0.001 A 
ATOM      6  C   LIG    1       28.712 -20.400   8.020  0.00  0.00    +0.002 A 
ATOM      7  S   LIG    1       26.511 -19.558   4.100  0.00  0.00    -0.086 S 
ATOM      8  C   LIG    1       24.792 -19.652   4.566  0.00  0.00    +0.034 A 
ATOM      9  C   LIG    1       23.867 -19.040   3.703  0.00  0.00    +0.017 A 
ATOM     10  C   LIG    1       22.503 -19.082   3.979  0.00  0.00    +0.001 A 
ATOM     11  C   LIG    1       22.055 -19.739   5.116  0.00  0.00    +0.002 A 
ATOM     12  C   LIG    1       22.970 -20.361   5.973  0.00  0.00    +0.024 A 
ATOM     13  C   LIG    1       27.367 -20.763   7.905  0.00  0.00    +0.024 A 
ATOM     14  C   LIG    1       24.356 -20.341   5.715  0.00  0.00    +0.048 A 
ENDROOT
BRANCH   1  15
ATOM     15  C   LIG    1       24.893 -22.239   7.223  0.00  0.00    +0.129 C 
BRANCH  15  17
ATOM     16  C   LIG    1       26.166 -24.442   6.834  0.00  0.00    +0.026 C 
ATOM     17  C   LIG    1       25.102 -23.476   6.287  0.00  0.00    +0.071 C 
BRANCH  17  18
ATOM     18  N   LIG    1       23.868 -24.248   5.965  0.00  0.00    -0.304 NA
ATOM     19  C   LIG    1       22.722 -23.824   6.768  0.00  0.00    +0.105 C 
ATOM     20  C   LIG    1       24.023 -25.701   6.024  0.00  0.00    +0.105 C 
ENDBRANCH  17  18
ENDBRANCH  15  17
ENDBRANCH   1  15
TORSDOF 3
ENDMDL
MODEL 2
REMARK VINA RESULT:      -7.3      1.664      4.727
REMARK  Name = *****
REMARK                            x       y       z     vdW  Elec       q    Type
REMARK                         _______ _______ _______ _____ _____    ______ ____
ROOT
ATOM      1  N   LIG    1       25.804 -21.634   5.676  0.00  0.00    -0.297 N 
ATOM      2  C   LIG    1       25.159 -22.843   6.051  0.00  0.00    +0.048 A 
ATOM      3  C   LIG    1       23.768 -22.906   6.255  0.00  0.00    +0.034 A 
ATOM      4  C   LIG    1       23.154 -24.114   6.627  0.00  0.00    +0.017 A 
ATOM      5  C   LIG    1       23.903 -25.281   6.763  0.00  0.00    +0.001 A 
ATOM      6  C   LIG    1       25.265 -25.251   6.515  0.00  0.00    +0.002 A 
ATOM      7  S   LIG    1       22.710 -21.482   6.085  0.00  0.00    -0.086 S 
ATOM      8  C   LIG    1       23.745 -20.391   5.125  0.00  0.00    +0.034 A 
ATOM      9  C   LIG    1       23.105 -19.325   4.470  0.00  0.00    +0.017 A 
ATOM     10  C   LIG    1       23.838 -18.413   3.715  0.00  0.00    +0.001 A 
ATOM     11  C   LIG    1       25.215 -18.560   3.613  0.00  0.00    +0.002 A 
ATOM     12  C   LIG    1       25.859 -19.613   4.272  0.00  0.00    +0.024 A 
ATOM     13  C   LIG    1       25.883 -24.049   6.156  0.00  0.00    +0.024 A 
ATOM     14  C   LIG    1       25.143 -20.546   5.050  0.00  0.00    +0.048 A 
ENDROOT
BRANCH   1  15
ATOM     15  C   LIG    1       27.127 -21.366   6.300  0.00  0.00    +0.129 C 
BRANCH  15  17
ATOM     16  C   LIG    1       25.996 -20.741   8.525  0.00  0.00    +0.026 C 
ATOM     17  C   LIG    1       27.083 -20.367   7.505  0.00  0.00    +0.071 C 
BRANCH  17  18
ATOM     18  N   LIG    1       28.376 -20.178   8.223  0.00  0.00    -0.304 NA
ATOM     19  C   LIG    1       29.093 -18.988   7.771  0.00  0.00    +0.105 C 
ATOM     20  C   LIG    1       29.259 -21.344   8.210  0.00  0.00    +0.105 C 
ENDBRANCH  17  18
ENDBRANCH  15  17
ENDBRANCH   1  15
TORSDOF 3
ENDMDL
MODEL 3
REMARK VINA RESULT:      -5.7      1.790      5.462
REMARK  Name = *****
REMARK                            x       y       z     vdW  Elec       q    Type
REMARK                         _______ _______ _______ _____ _____    ______ ____
ROOT
ATOM      1  N   LIG    1       25.242 -22.674   7.050  0.00  0.00    -0.297 N 
ATOM      2  C   LIG    1       24.364 -21.705   6.496  0.00  0.00    +0.048 A 
ATOM      3  C   LIG    1       23.939 -21.773   5.156  0.00  0.00    +0.034 A 
ATOM      4  C   LIG    1       23.070 -20.800   4.631  0.00  0.00    +0.017 A 
ATOM      5  C   LIG    1       22.581 -19.774   5.436  0.00  0.00    +0.001 A 
ATOM      6  C   LIG    1       22.946 -19.720   6.772  0.00  0.00    +0.002 A 
ATOM      7  S   LIG    1       24.482 -23.055   4.044  0.00  0.00    -0.086 S 
ATOM      8  C   LIG    1       25.068 -24.288   5.192  0.00  0.00    +0.034 A 
ATOM      9  C   LIG    1       25.215 -25.595   4.697  0.00  0.00    +0.017 A 
ATOM     10  C   LIG    1       25.686 -26.616   5.518  0.00  0.00    +0.001 A 
ATOM     11  C   LIG    1       26.015 -26.336   6.837  0.00  0.00    +0.002 A 
ATOM     12  C   LIG    1       25.881 -25.034   7.333  0.00  0.00    +0.024 A 
ATOM     13  C   LIG    1       23.820 -20.678   7.296  0.00  0.00    +0.024 A 
ATOM     14  C   LIG    1       25.415 -23.979   6.522  0.00  0.00    +0.048 A 
ENDROOT
BRANCH   1  15
ATOM     15  C   LIG    1       26.282 -22.170   7.986  0.00  0.00    +0.129 C 
BRANCH  15  17
ATOM     16  C   LIG    1       27.193 -20.569   6.189  0.00  0.00    +0.026 C 
ATOM     17  C   LIG    1       27.554 -21.585   7.285  0.00  0.00    +0.071 C 
BRANCH  17  18
ATOM     18  N   LIG    1       28.561 -20.973   8.199  0.00  0.00    -0.304 NA
ATOM     19  C   LIG    1       28.836 -19.576   7.867  0.00  0.00    +0.105 C 
ATOM     20  C   LIG    1       29.809 -21.724   8.324  0.00  0.00    +0.105 C 
ENDBRANCH  17  18
ENDBRANCH  15  17
ENDBRANCH   1  15
TORSDOF 3
ENDMDL
MODEL 4
REMARK VINA RESULT:      -5.5      1.729      4.223
REMARK  Name = *****
REMARK                            x       y       z     vdW  Elec       q    Type
REMARK                         _______ _______ _______ _____ _____    ______ ____
ROOT
ATOM      1  N   LIG    1       25.893 -21.121   5.532  0.00  0.00    -0.297 N 
ATOM      2  C   LIG    1       27.059 -20.420   5.942  0.00  0.00    +0.048 A 
ATOM      3  C   LIG    1       27.770 -20.783   7.101  0.00  0.00    +0.034 A 
ATOM      4  C   LIG    1       28.920 -20.072   7.486  0.00  0.00    +0.017 A 
ATOM      5  C   LIG    1       29.402 -19.022   6.708  0.00  0.00    +0.001 A 
ATOM      6  C   LIG    1       28.746 -18.684   5.535  0.00  0.00    +0.002 A 
ATOM      7  S   LIG    1       27.259 -22.124   8.157  0.00  0.00    -0.086 S 
ATOM      8  C   LIG    1       26.174 -23.031   7.069  0.00  0.00    +0.034 A 
ATOM      9  C   LIG    1       25.885 -24.359   7.426  0.00  0.00    +0.017 A 
ATOM     10  C   LIG    1       25.031 -25.133   6.645  0.00  0.00    +0.001 A 
ATOM     11  C   LIG    1       24.458 -24.584   5.506  0.00  0.00    +0.002 A 
ATOM     12  C   LIG    1       24.734 -23.259   5.152  0.00  0.00    +0.024 A 
ATOM     13  C   LIG    1       27.594 -19.379   5.154  0.00  0.00    +0.024 A 
ATOM     14  C   LIG    1       25.588 -22.449   5.927  0.00  0.00    +0.048 A 
ENDROOT
BRANCH   1  15
ATOM     15  C   LIG    1       24.785 -20.300   4.977  0.00  0.00    +0.129 C 
BRANCH  15  17
ATOM     16  C   LIG    1       23.438 -20.320   7.169  0.00  0.00    +0.026 C 
ATOM     17  C   LIG    1       23.394 -20.549   5.650  0.00  0.00    +0.071 C 
BRANCH  17  18
ATOM     18  N   LIG    1       22.259 -19.771   5.076  0.00  0.00    -0.304 NA
ATOM     19  C   LIG    1       21.299 -20.623   4.377  0.00  0.00    +0.105 C 
ATOM     20  C   LIG    1       22.655 -18.646   4.230  0.00  0.00    +0.105 C 
ENDBRANCH  17  18
ENDBRANCH  15  17
ENDBRANCH   1  15
TORSDOF 3
ENDMDL
MODEL 5
REMARK VINA RESULT:      -5.3      2.218      5.507
REMARK  Name = *****
REMARK                            x       y       z     vdW  Elec       q    Type
REMARK                         _______ _______ _______ _____ _____    ______ ____
ROOT
ATOM      1  N   LIG    1       26.628 -20.076   5.626  0.00  0.00    -0.297 N 
ATOM      2  C   LIG    1       25.729 -20.826   6.430  0.00  0.00    +0.048 A 
ATOM      3  C   LIG    1       26.188 -21.737   7.399  0.00  0.00    +0.034 A 
ATOM      4  C   LIG    1       25.278 -22.469   8.181  0.00  0.00    +0.017 A 
ATOM      5  C   LIG    1       23.905 -22.278   8.041  0.00  0.00    +0.001 A 
ATOM      6  C   LIG    1       23.435 -21.347   7.129  0.00  0.00    +0.002 A 
ATOM      7  S   LIG    1       27.921 -22.043   7.681  0.00  0.00    -0.086 S 
ATOM      8  C   LIG    1       28.656 -20.601   6.930  0.00  0.00    +0.034 A 
ATOM      9  C   LIG    1       29.980 -20.302   7.294  0.00  0.00    +0.017 A 
ATOM     10  C   LIG    1       30.639 -19.207   6.742  0.00  0.00    +0.001 A 
ATOM     11  C   LIG    1       29.979 -18.406   5.821  0.00  0.00    +0.002 A 
ATOM     12  C   LIG    1       28.664 -18.704   5.446  0.00  0.00    +0.024 A 
ATOM     13  C   LIG    1       24.336 -20.625   6.340  0.00  0.00    +0.024 A 
ATOM     14  C   LIG    1       27.976 -19.811   5.982  0.00  0.00    +0.048 A 
ENDROOT
BRANCH   1  15
ATOM     15  C   LIG    1       26.246 -19.885   4.202  0.00  0.00    +0.129 C 
BRANCH  15  17
ATOM     16  C   LIG    1       25.835 -17.555   3.189  0.00  0.00    +0.026 C 
ATOM     17  C   LIG    1       25.215 -18.732   3.959  0.00  0.00    +0.071 C 
BRANCH  17  18
ATOM     18  N   LIG    1       23.951 -19.140   3.281  0.00  0.00    -0.304 NA
ATOM     19  C   LIG    1       22.763 -18.668   3.990  0.00  0.00    +0.105 C 
ATOM     20  C   LIG    1       23.843 -20.571   2.998  0.00  0.00    +0.105 C 
ENDBRANCH  17  18
ENDBRANCH  15  17
ENDBRANCH   1  15
TORSDOF 3
ENDMDL
MODEL 6
REMARK VINA RESULT:      -5.2      6.507      9.781
REMARK  Name = *****
REMARK                            x       y       z     vdW  Elec       q    Type
REMARK                         _______ _______ _______ _____ _____    ______ ____
ROOT
ATOM      1  N   LIG    1       24.453 -30.097   7.123  0.00  0.00    -0.297 N 
ATOM      2  C   LIG    1       24.433 -30.529   8.476  0.00  0.00    +0.048 A 
ATOM      3  C   LIG    1       25.240 -29.924   9.457  0.00  0.00    +0.034 A 
ATOM      4  C   LIG    1       25.203 -30.372  10.790  0.00  0.00    +0.017 A 
ATOM      5  C   LIG    1       24.338 -31.395  11.173  0.00  0.00    +0.001 A 
ATOM      6  C   LIG    1       23.497 -31.967  10.232  0.00  0.00    +0.002 A 
ATOM      7  S   LIG    1       26.364 -28.593   9.085  0.00  0.00    -0.086 S 
ATOM      8  C   LIG    1       25.717 -28.017   7.525  0.00  0.00    +0.034 A 
ATOM      9  C   LIG    1       26.110 -26.732   7.112  0.00  0.00    +0.017 A 
ATOM     10  C   LIG    1       25.669 -26.211   5.899  0.00  0.00    +0.001 A 
ATOM     11  C   LIG    1       24.836 -26.971   5.090  0.00  0.00    +0.002 A 
ATOM     12  C   LIG    1       24.450 -28.255   5.490  0.00  0.00    +0.024 A 
ATOM     13  C   LIG    1       23.540 -31.535   8.903  0.00  0.00    +0.024 A 
ATOM     14  C   LIG    1       24.888 -28.812   6.709  0.00  0.00    +0.048 A 
ENDROOT
BRANCH   1  15
ATOM     15  C   LIG    1       24.368 -31.159   6.085  0.00  0.00    +0.129 C 
BRANCH  15  17
ATOM     16  C   LIG    1       26.670 -32.232   6.499  0.00  0.00    +0.026 C 
ATOM     17  C   LIG    1       25.745 -31.569   5.465  0.00  0.00    +0.071 C 
BRANCH  17  18
ATOM     18  N   LIG    1       25.666 -32.442   4.258  0.00  0.00    -0.304 NA
ATOM     19  C   LIG    1       24.496 -33.317   4.281  0.00  0.00    +0.105 C 
ATOM     20  C   LIG    1       26.877 -33.214   3.982  0.00  0.00    +0.105 C 
ENDBRANCH  17  18
ENDBRANCH  15  17
ENDBRANCH   1  15
TORSDOF 3
ENDMDL
MODEL 7
REMARK VINA RESULT:      -5.1      6.082      9.911
REMARK  Name = *****
REMARK                            x       y       z     vdW  Elec       q    Type
REMARK                         _______ _______ _______ _____ _____    ______ ____
ROOT
ATOM      1  N   LIG    1       25.493 -29.688   7.383  0.00  0.00    -0.297 N 
ATOM      2  C   LIG    1       25.884 -29.579   8.744  0.00  0.00    +0.048 A 
ATOM      3  C   LIG    1       25.844 -30.684   9.615  0.00  0.00    +0.034 A 
ATOM      4  C   LIG    1       26.235 -30.550  10.959  0.00  0.00    +0.017 A 
ATOM      5  C   LIG    1       26.708 -29.333  11.444  0.00  0.00    +0.001 A 
ATOM      6  C   LIG    1       26.805 -28.247  10.589  0.00  0.00    +0.002 A 
ATOM      7  S   LIG    1       25.280 -32.293   9.095  0.00  0.00    -0.086 S 
ATOM      8  C   LIG    1       25.415 -32.153   7.322  0.00  0.00    +0.034 A 
ATOM      9  C   LIG    1       25.424 -33.354   6.591  0.00  0.00    +0.017 A 
ATOM     10  C   LIG    1       25.506 -33.338   5.201  0.00  0.00    +0.001 A 
ATOM     11  C   LIG    1       25.577 -32.123   4.534  0.00  0.00    +0.002 A 
ATOM     12  C   LIG    1       25.558 -30.924   5.255  0.00  0.00    +0.024 A 
ATOM     13  C   LIG    1       26.405 -28.372   9.254  0.00  0.00    +0.024 A 
ATOM     14  C   LIG    1       25.467 -30.909   6.662  0.00  0.00    +0.048 A 
ENDROOT
BRANCH   1  15
ATOM     15  C   LIG    1       24.735 -28.541   6.816  0.00  0.00    +0.129 C 
BRANCH  15  17
ATOM     16  C   LIG    1       26.165 -27.437   4.984  0.00  0.00    +0.026 C 
ATOM     17  C   LIG    1       25.621 -27.314   6.416  0.00  0.00    +0.071 C 
BRANCH  17  18
ATOM     18  N   LIG    1       24.973 -25.981   6.575  0.00  0.00    -0.304 NA
ATOM     19  C   LIG    1       24.049 -25.679   5.483  0.00  0.00    +0.105 C 
ATOM     20  C   LIG    1       25.901 -24.870   6.781  0.00  0.00    +0.105 C 
ENDBRANCH  17  18
ENDBRANCH  15  17
ENDBRANCH   1  15
TORSDOF 3
ENDMDL
MODEL 8
REMARK VINA RESULT:      -4.9      9.386     10.495
REMARK  Name = *****
REMARK                            x       y       z     vdW  Elec       q    Type
REMARK                         _______ _______ _______ _____ _____    ______ ____
ROOT
ATOM      1  N   LIG    1       24.788 -27.642  12.966  0.00  0.00    -0.297 N 
ATOM      2  C   LIG    1       25.563 -28.483  12.123  0.00  0.00    +0.048 A 
ATOM      3  C   LIG    1       25.047 -29.682  11.599  0.00  0.00    +0.034 A 
ATOM      4  C   LIG    1       25.836 -30.498  10.769  0.00  0.00    +0.017 A 
ATOM      5  C   LIG    1       27.129 -30.117  10.417  0.00  0.00    +0.001 A 
ATOM      6  C   LIG    1       27.636 -28.913  10.880  0.00  0.00    +0.002 A 
ATOM      7  S   LIG    1       23.399 -30.256  11.963  0.00  0.00    -0.086 S 
ATOM      8  C   LIG    1       22.627 -28.754  12.538  0.00  0.00    +0.034 A 
ATOM      9  C   LIG    1       21.222 -28.729  12.551  0.00  0.00    +0.017 A 
ATOM     10  C   LIG    1       20.536 -27.605  13.003  0.00  0.00    +0.001 A 
ATOM     11  C   LIG    1       21.249 -26.500  13.447  0.00  0.00    +0.002 A 
ATOM     12  C   LIG    1       22.649 -26.523  13.446  0.00  0.00    +0.024 A 
ATOM     13  C   LIG    1       26.860 -28.104  11.717  0.00  0.00    +0.024 A 
ATOM     14  C   LIG    1       23.370 -27.650  13.002  0.00  0.00    +0.048 A 
ENDROOT
BRANCH   1  15
ATOM     15  C   LIG    1       25.499 -27.004  14.105  0.00  0.00    +0.129 C 
BRANCH  15  17
ATOM     16  C   LIG    1       25.410 -24.438  14.280  0.00  0.00    +0.026 C 
ATOM     17  C   LIG    1       26.198 -25.649  13.754  0.00  0.00    +0.071 C 
BRANCH  17  18
ATOM     18  N   LIG    1       27.618 -25.530  14.195  0.00  0.00    -0.304 NA
ATOM     19  C   LIG    1       28.046 -26.672  15.000  0.00  0.00    +0.105 C 
ATOM     20  C   LIG    1       27.945 -24.276  14.871  0.00  0.00    +0.105 C 
ENDBRANCH  17  18
ENDBRANCH  15  17
ENDBRANCH   1  15
TORSDOF 3
ENDMDL
MODEL 9
REMARK VINA RESULT:      -4.9      8.995     10.245
REMARK  Name = *****
REMARK                            x       y       z     vdW  Elec       q    Type
REMARK                         _______ _______ _______ _____ _____    ______ ____
ROOT
ATOM      1  N   LIG    1       25.162 -29.219  12.776  0.00  0.00    -0.297 N 
ATOM      2  C   LIG    1       26.384 -29.020  13.471  0.00  0.00    +0.048 A 
ATOM      3  C   LIG    1       26.748 -27.759  13.979  0.00  0.00    +0.034 A 
ATOM      4  C   LIG    1       27.965 -27.587  14.662  0.00  0.00    +0.017 A 
ATOM      5  C   LIG    1       28.816 -28.668  14.884  0.00  0.00    +0.001 A 
ATOM      6  C   LIG    1       28.450 -29.928  14.437  0.00  0.00    +0.002 A 
ATOM      7  S   LIG    1       25.727 -26.314  13.775  0.00  0.00    -0.086 S 
ATOM      8  C   LIG    1       24.151 -27.053  13.384  0.00  0.00    +0.034 A 
ATOM      9  C   LIG    1       23.014 -26.239  13.535  0.00  0.00    +0.017 A 
ATOM     10  C   LIG    1       21.746 -26.728  13.234  0.00  0.00    +0.001 A 
ATOM     11  C   LIG    1       21.606 -28.031  12.776  0.00  0.00    +0.002 A 
ATOM     12  C   LIG    1       22.735 -28.843  12.614  0.00  0.00    +0.024 A 
ATOM     13  C   LIG    1       27.247 -30.102  13.746  0.00  0.00    +0.024 A 
ATOM     14  C   LIG    1       24.032 -28.372  12.903  0.00  0.00    +0.048 A 
ENDROOT
BRANCH   1  15
ATOM     15  C   LIG    1       25.206 -30.131  11.601  0.00  0.00    +0.129 C 
BRANCH  15  17
ATOM     16  C   LIG    1       26.982 -29.219   9.977  0.00  0.00    +0.026 C 
ATOM     17  C   LIG    1       25.479 -29.414  10.237  0.00  0.00    +0.071 C 
BRANCH  17  18
ATOM     18  N   LIG    1       24.862 -30.060   9.043  0.00  0.00    -0.304 NA
ATOM     19  C   LIG    1       25.033 -29.263   7.830  0.00  0.00    +0.105 C 
ATOM     20  C   LIG    1       23.460 -30.442   9.210  0.00  0.00    +0.105 C 
ENDBRANCH  17  18
ENDBRANCH  15  17
ENDBRANCH   1  15
TORSDOF 3
ENDMDL
