MODEL 1
REMARK VINA RESULT:      -7.2      0.000      0.000
REMARK  Name = *****
REMARK                            x       y       z     vdW  Elec       q    Type
REMARK                         _______ _______ _______ _____ _____    ______ ____
ROOT
ATOM      1  C   LIG    1       24.668 -21.331   5.748  0.00  0.00    +0.104 C 
ATOM      2  C   LIG    1       23.347 -20.878   6.483  0.00  0.00    +0.158 C 
ATOM      3  O   LIG    1       22.900 -21.431   7.484  0.00  0.00    -0.295 OA
ATOM      4  C   LIG    1       22.725 -19.568   6.030  0.00  0.00    +0.076 C 
ATOM      5  C   LIG    1       22.602 -19.472   4.522  0.00  0.00    +0.008 C 
ATOM      6  C   LIG    1       23.936 -19.739   3.842  0.00  0.00    +0.003 C 
ATOM      7  C   LIG    1       24.459 -21.127   4.219  0.00  0.00    +0.035 C 
ENDROOT
BRANCH   1   8
ATOM      8  C   LIG    1       25.007 -22.836   5.941  0.00  0.00    -0.002 A 
ATOM      9  C   LIG    1       25.611 -23.393   7.092  0.00  0.00    +0.046 A 
ATOM     10 CL   LIG    1       26.123 -22.460   8.460  0.00  0.00    -0.083 Cl
ATOM     11  C   LIG    1       25.896 -24.768   7.173  0.00  0.00    +0.020 A 
ATOM     12  C   LIG    1       25.646 -25.616   6.101  0.00  0.00    +0.001 A 
ATOM     13  C   LIG    1       25.117 -25.091   4.933  0.00  0.00    +0.001 A 
ATOM     14  C   LIG    1       24.813 -23.727   4.855  0.00  0.00    +0.007 A 
ENDBRANCH   1   8
BRANCH   1  16
ATOM     15  C   LIG    1       26.947 -20.390   5.393  0.00  0.00    +0.102 C 
ATOM     16  N   LIG    1       25.720 -20.375   6.183  0.00  0.00    -0.304 NA
ATOM     17  H   LIG    1       25.331 -19.432   6.159  0.00  0.00    +0.123 HD
ENDBRANCH   1  16
TORSDOF 2
ENDMDL
MODEL 2
REMARK VINA RESULT:      -7.2      2.412      3.693
REMARK  Name = *****
REMARK                            x       y       z     vdW  Elec       q    Type
REMARK                         _______ _______ _______ _____ _____    ______ ____
ROOT
ATOM      1  C   LIG    1       26.338 -21.273   6.850  0.00  0.00    +0.104 C 
ATOM      2  C   LIG    1       26.549 -20.465   5.511  0.00  0.00    +0.158 C 
ATOM      3  O   LIG    1       25.733 -20.442   4.594  0.00  0.00    -0.295 OA
ATOM      4  C   LIG    1       27.734 -19.517   5.462  0.00  0.00    +0.076 C 
ATOM      5  C   LIG    1       29.018 -20.161   5.948  0.00  0.00    +0.008 C 
ATOM      6  C   LIG    1       28.835 -20.782   7.326  0.00  0.00    +0.003 C 
ATOM      7  C   LIG    1       27.721 -21.831   7.295  0.00  0.00    +0.035 C 
ENDROOT
BRANCH   1   8
ATOM      8  C   LIG    1       25.404 -22.507   6.697  0.00  0.00    -0.002 A 
ATOM      9  C   LIG    1       23.992 -22.455   6.634  0.00  0.00    +0.046 A 
ATOM     10 CL   LIG    1       23.073 -20.993   6.776  0.00  0.00    -0.083 Cl
ATOM     11  C   LIG    1       23.224 -23.627   6.510  0.00  0.00    +0.020 A 
ATOM     12  C   LIG    1       23.826 -24.880   6.502  0.00  0.00    +0.001 A 
ATOM     13  C   LIG    1       25.203 -24.970   6.630  0.00  0.00    +0.001 A 
ATOM     14  C   LIG    1       25.972 -23.805   6.735  0.00  0.00    +0.007 A 
ENDBRANCH   1   8
BRANCH   1  16
ATOM     15  C   LIG    1       25.782 -20.776   9.227  0.00  0.00    +0.102 C 
ATOM     16  N   LIG    1       25.916 -20.271   7.864  0.00  0.00    -0.304 NA
ATOM     17  H   LIG    1       26.594 -19.508   7.867  0.00  0.00    +0.123 HD
ENDBRANCH   1  16
TORSDOF 2
ENDMDL
MODEL 3
REMARK VINA RESULT:      -7.0      2.090      3.910
REMARK  Name = *****
REMARK                            x       y       z     vdW  Elec       q    Type
REMARK                         _______ _______ _______ _____ _____    ______ ____
ROOT
ATOM      1  C   LIG    1       25.345 -20.771   5.627  0.00  0.00    +0.104 C 
ATOM      2  C   LIG    1       24.923 -19.827   4.435  0.00  0.00    +0.158 C 
ATOM      3  O   LIG    1       25.724 -19.216   3.734  0.00  0.00    -0.295 OA
ATOM      4  C   LIG    1       23.460 -19.851   4.026  0.00  0.00    +0.076 C 
ATOM      5  C   LIG    1       22.522 -19.729   5.211  0.00  0.00    +0.008 C 
ATOM      6  C   LIG    1       22.838 -20.770   6.274  0.00  0.00    +0.003 C 
ATOM      7  C   LIG    1       24.284 -20.620   6.755  0.00  0.00    +0.035 C 
ENDROOT
BRANCH   1   8
ATOM      8  C   LIG    1       26.712 -20.397   6.268  0.00  0.00    -0.002 A 
ATOM      9  C   LIG    1       27.002 -20.449   7.652  0.00  0.00    +0.046 A 
ATOM     10 CL   LIG    1       25.844 -20.888   8.864  0.00  0.00    -0.083 Cl
ATOM     11  C   LIG    1       28.265 -20.078   8.146  0.00  0.00    +0.020 A 
ATOM     12  C   LIG    1       29.252 -19.593   7.297  0.00  0.00    +0.001 A 
ATOM     13  C   LIG    1       28.979 -19.466   5.945  0.00  0.00    +0.001 A 
ATOM     14  C   LIG    1       27.729 -19.853   5.445  0.00  0.00    +0.007 A 
ENDBRANCH   1   8
BRANCH   1  16
ATOM     15  C   LIG    1       25.307 -23.215   6.105  0.00  0.00    +0.102 C 
ATOM     16  N   LIG    1       25.240 -22.157   5.102  0.00  0.00    -0.304 NA
ATOM     17  H   LIG    1       24.358 -22.246   4.596  0.00  0.00    +0.123 HD
ENDBRANCH   1  16
TORSDOF 2
ENDMDL
MODEL 4
REMARK VINA RESULT:      -6.9      1.950      4.444
REMARK  Name = *****
REMARK                            x       y       z     vdW  Elec       q    Type
REMARK                         _______ _______ _______ _____ _____    ______ ____
ROOT
ATOM      1  C   LIG    1       25.790 -20.965   6.207  0.00  0.00    +0.104 C 
ATOM      2  C   LIG    1       25.879 -20.667   7.754  0.00  0.00    +0.158 C 
ATOM      3  O   LIG    1       24.898 -20.563   8.485  0.00  0.00    -0.295 OA
ATOM      4  C   LIG    1       27.260 -20.714   8.384  0.00  0.00    +0.076 C 
ATOM      5  C   LIG    1       28.290 -19.932   7.590  0.00  0.00    +0.008 C 
ATOM      6  C   LIG    1       28.308 -20.366   6.132  0.00  0.00    +0.003 C 
ATOM      7  C   LIG    1       26.927 -20.172   5.500  0.00  0.00    +0.035 C 
ENDROOT
BRANCH   1   8
ATOM      8  C   LIG    1       24.462 -20.491   5.552  0.00  0.00    -0.002 A 
ATOM      9  C   LIG    1       23.197 -21.091   5.753  0.00  0.00    +0.046 A 
ATOM     10 CL   LIG    1       22.942 -22.501   6.728  0.00  0.00    -0.083 Cl
ATOM     11  C   LIG    1       22.047 -20.603   5.106  0.00  0.00    +0.020 A 
ATOM     12  C   LIG    1       22.127 -19.549   4.204  0.00  0.00    +0.001 A 
ATOM     13  C   LIG    1       23.362 -18.982   3.933  0.00  0.00    +0.001 A 
ATOM     14  C   LIG    1       24.505 -19.452   4.589  0.00  0.00    +0.007 A 
ENDBRANCH   1   8
BRANCH   1  16
ATOM     15  C   LIG    1       26.006 -23.204   7.280  0.00  0.00    +0.102 C 
ATOM     16  N   LIG    1       26.099 -22.412   6.057  0.00  0.00    -0.304 NA
ATOM     17  H   LIG    1       25.463 -22.809   5.365  0.00  0.00    +0.123 HD
ENDBRANCH   1  16
TORSDOF 2
ENDMDL
MODEL 5
REMARK VINA RESULT:      -6.8      1.692      3.800
REMARK  Name = *****
REMARK                            x       y       z     vdW  Elec       q    Type
REMARK                         _______ _______ _______ _____ _____    ______ ____
ROOT
ATOM      1  C   LIG    1       25.085 -21.942   5.877  0.00  0.00    +0.104 C 
ATOM      2  C   LIG    1       23.758 -21.547   6.632  0.00  0.00    +0.158 C 
ATOM      3  O   LIG    1       23.563 -20.444   7.136  0.00  0.00    -0.295 OA
ATOM      4  C   LIG    1       22.600 -22.526   6.543  0.00  0.00    +0.076 C 
ATOM      5  C   LIG    1       23.020 -23.954   6.836  0.00  0.00    +0.008 C 
ATOM      6  C   LIG    1       24.194 -24.372   5.964  0.00  0.00    +0.003 C 
ATOM      7  C   LIG    1       25.385 -23.438   6.189  0.00  0.00    +0.035 C 
ENDROOT
BRANCH   1   8
ATOM      8  C   LIG    1       26.335 -21.145   6.346  0.00  0.00    -0.002 A 
ATOM      9  C   LIG    1       26.799 -21.071   7.681  0.00  0.00    +0.046 A 
ATOM     10 CL   LIG    1       26.001 -21.823   9.022  0.00  0.00    -0.083 Cl
ATOM     11  C   LIG    1       27.933 -20.311   8.017  0.00  0.00    +0.020 A 
ATOM     12  C   LIG    1       28.603 -19.561   7.058  0.00  0.00    +0.001 A 
ATOM     13  C   LIG    1       28.134 -19.557   5.754  0.00  0.00    +0.001 A 
ATOM     14  C   LIG    1       27.017 -20.327   5.411  0.00  0.00    +0.007 A 
ENDBRANCH   1   8
BRANCH   1  16
ATOM     15  C   LIG    1       24.008 -20.667   4.029  0.00  0.00    +0.102 C 
ATOM     16  N   LIG    1       24.769 -21.846   4.428  0.00  0.00    -0.304 NA
ATOM     17  H   LIG    1       25.645 -21.859   3.904  0.00  0.00    +0.123 HD
ENDBRANCH   1  16
TORSDOF 2
ENDMDL
MODEL 6
REMARK VINA RESULT:      -6.6      1.979      4.850
REMARK  Name = *****
REMARK                            x       y       z     vdW  Elec       q    Type
REMARK                         _______ _______ _______ _____ _____    ______ ____
ROOT
ATOM      1  C   LIG    1       24.196 -21.726   6.422  0.00  0.00    +0.104 C 
ATOM      2  C   LIG    1       25.323 -21.381   7.471  0.00  0.00    +0.158 C 
ATOM      3  O   LIG    1       25.574 -20.241   7.851  0.00  0.00    -0.295 OA
ATOM      4  C   LIG    1       25.981 -22.552   8.181  0.00  0.00    +0.076 C 
ATOM      5  C   LIG    1       26.406 -23.650   7.225  0.00  0.00    +0.008 C 
ATOM      6  C   LIG    1       25.248 -24.091   6.342  0.00  0.00    +0.003 C 
ATOM      7  C   LIG    1       24.706 -22.904   5.541  0.00  0.00    +0.035 C 
ENDROOT
BRANCH   1   8
ATOM      8  C   LIG    1       23.875 -20.562   5.442  0.00  0.00    -0.002 A 
ATOM      9  C   LIG    1       24.825 -19.890   4.638  0.00  0.00    +0.046 A 
ATOM     10 CL   LIG    1       26.524 -20.230   4.666  0.00  0.00    -0.083 Cl
ATOM     11  C   LIG    1       24.446 -18.835   3.789  0.00  0.00    +0.020 A 
ATOM     12  C   LIG    1       23.133 -18.381   3.754  0.00  0.00    +0.001 A 
ATOM     13  C   LIG    1       22.190 -18.972   4.579  0.00  0.00    +0.001 A 
ATOM     14  C   LIG    1       22.559 -20.035   5.411  0.00  0.00    +0.007 A 
ENDBRANCH   1   8
BRANCH   1  16
ATOM     15  C   LIG    1       22.383 -23.415   6.677  0.00  0.00    +0.102 C 
ATOM     16  N   LIG    1       23.046 -22.232   7.217  0.00  0.00    -0.304 NA
ATOM     17  H   LIG    1       23.373 -22.446   8.160  0.00  0.00    +0.123 HD
ENDBRANCH   1  16
TORSDOF 2
ENDMDL
MODEL 7
REMARK VINA RESULT:      -6.4      1.921      4.670
REMARK  Name = *****
REMARK                            x       y       z     vdW  Elec       q    Type
REMARK                         _______ _______ _______ _____ _____    ______ ____
ROOT
ATOM      1  C   LIG    1       25.791 -21.042   6.064  0.00  0.00    +0.104 C 
ATOM      2  C   LIG    1       25.510 -22.594   6.077  0.00  0.00    +0.158 C 
ATOM      3  O   LIG    1       24.827 -23.170   5.235  0.00  0.00    -0.295 OA
ATOM      4  C   LIG    1       26.299 -23.426   7.073  0.00  0.00    +0.076 C 
ATOM      5  C   LIG    1       26.287 -22.831   8.469  0.00  0.00    +0.008 C 
ATOM      6  C   LIG    1       26.735 -21.377   8.452  0.00  0.00    +0.003 C 
ATOM      7  C   LIG    1       25.826 -20.549   7.540  0.00  0.00    +0.035 C 
ENDROOT
BRANCH   1   8
ATOM      8  C   LIG    1       24.684 -20.210   5.357  0.00  0.00    -0.002 A 
ATOM      9  C   LIG    1       23.323 -20.177   5.741  0.00  0.00    +0.046 A 
ATOM     10 CL   LIG    1       22.664 -21.116   7.039  0.00  0.00    -0.083 Cl
ATOM     11  C   LIG    1       22.384 -19.405   5.033  0.00  0.00    +0.020 A 
ATOM     12  C   LIG    1       22.753 -18.693   3.898  0.00  0.00    +0.001 A 
ATOM     13  C   LIG    1       24.065 -18.758   3.455  0.00  0.00    +0.001 A 
ATOM     14  C   LIG    1       25.006 -19.510   4.168  0.00  0.00    +0.007 A 
ENDBRANCH   1   8
BRANCH   1  16
ATOM     15  C   LIG    1       27.954 -19.805   6.094  0.00  0.00    +0.102 C 
ATOM     16  N   LIG    1       27.163 -20.885   5.512  0.00  0.00    -0.304 NA
ATOM     17  H   LIG    1       27.667 -21.762   5.643  0.00  0.00    +0.123 HD
ENDBRANCH   1  16
TORSDOF 2
ENDMDL
MODEL 8
REMARK VINA RESULT:      -6.0      1.725      1.925
REMARK  Name = *****
REMARK                            x       y       z     vdW  Elec       q    Type
REMARK                         _______ _______ _______ _____ _____    ______ ____
ROOT
ATOM      1  C   LIG    1       24.209 -21.105   5.510  0.00  0.00    +0.104 C 
ATOM      2  C   LIG    1       22.901 -20.491   4.874  0.00  0.00    +0.158 C 
ATOM      3  O   LIG    1       21.793 -21.013   4.960  0.00  0.00    -0.295 OA
ATOM      4  C   LIG    1       23.008 -19.086   4.308  0.00  0.00    +0.076 C 
ATOM      5  C   LIG    1       24.217 -18.909   3.410  0.00  0.00    +0.008 C 
ATOM      6  C   LIG    1       25.494 -19.344   4.113  0.00  0.00    +0.003 C 
ATOM      7  C   LIG    1       25.394 -20.809   4.545  0.00  0.00    +0.035 C 
ENDROOT
BRANCH   1   8
ATOM      8  C   LIG    1       24.161 -22.651   5.672  0.00  0.00    -0.002 A 
ATOM      9  C   LIG    1       23.377 -23.344   6.624  0.00  0.00    +0.046 A 
ATOM     10 CL   LIG    1       22.380 -22.562   7.807  0.00  0.00    -0.083 Cl
ATOM     11  C   LIG    1       23.407 -24.747   6.710  0.00  0.00    +0.020 A 
ATOM     12  C   LIG    1       24.252 -25.496   5.900  0.00  0.00    +0.001 A 
ATOM     13  C   LIG    1       25.083 -24.844   5.003  0.00  0.00    +0.001 A 
ATOM     14  C   LIG    1       25.042 -23.449   4.901  0.00  0.00    +0.007 A 
ENDBRANCH   1   8
BRANCH   1  16
ATOM     15  C   LIG    1       25.675 -20.674   7.476  0.00  0.00    +0.102 C 
ATOM     16  N   LIG    1       24.451 -20.335   6.758  0.00  0.00    -0.304 NA
ATOM     17  H   LIG    1       24.476 -19.341   6.526  0.00  0.00    +0.123 HD
ENDBRANCH   1  16
TORSDOF 2
ENDMDL
MODEL 9
REMARK VINA RESULT:      -5.9      2.064      4.737
REMARK  Name = *****
REMARK                            x       y       z     vdW  Elec       q    Type
REMARK                         _______ _______ _______ _____ _____    ______ ____
ROOT
ATOM      1  C   LIG    1       25.274 -21.218   6.105  0.00  0.00    +0.104 C 
ATOM      2  C   LIG    1       24.862 -21.461   7.608  0.00  0.00    +0.158 C 
ATOM      3  O   LIG    1       23.700 -21.467   8.003  0.00  0.00    -0.295 OA
ATOM      4  C   LIG    1       25.961 -21.908   8.557  0.00  0.00    +0.076 C 
ATOM      5  C   LIG    1       27.214 -21.062   8.438  0.00  0.00    +0.008 C 
ATOM      6  C   LIG    1       27.695 -20.989   6.996  0.00  0.00    +0.003 C 
ATOM      7  C   LIG    1       26.602 -20.405   6.098  0.00  0.00    +0.035 C 
ENDROOT
BRANCH   1   8
ATOM      8  C   LIG    1       24.246 -20.372   5.302  0.00  0.00    -0.002 A 
ATOM      9  C   LIG    1       24.573 -19.455   4.276  0.00  0.00    +0.046 A 
ATOM     10 CL   LIG    1       26.195 -19.087   3.791  0.00  0.00    -0.083 Cl
ATOM     11  C   LIG    1       23.575 -18.719   3.611  0.00  0.00    +0.020 A 
ATOM     12  C   LIG    1       22.240 -18.829   3.979  0.00  0.00    +0.001 A 
ATOM     13  C   LIG    1       21.893 -19.668   5.025  0.00  0.00    +0.001 A 
ATOM     14  C   LIG    1       22.880 -20.417   5.677  0.00  0.00    +0.007 A 
ENDBRANCH   1   8
BRANCH   1  16
ATOM     15  C   LIG    1       24.553 -23.579   5.772  0.00  0.00    +0.102 C 
ATOM     16  N   LIG    1       25.576 -22.562   5.546  0.00  0.00    -0.304 NA
ATOM     17  H   LIG    1       25.724 -22.470   4.541  0.00  0.00    +0.123 HD
ENDBRANCH   1  16
TORSDOF 2
ENDMDL
