MODEL 1
REMARK VINA RESULT:      -4.5      0.000      0.000
REMARK  Name = *****
REMARK                            x       y       z     vdW  Elec       q    Type
REMARK                         _______ _______ _______ _____ _____    ______ ____
ROOT
ATOM      1  O   LIG    1       23.835 -13.956   4.450  0.00  0.00    -0.267 OA
ATOM      2  C   LIG    1       23.998 -15.139   4.184  0.00  0.00    +0.266 C 
ATOM      3  C   LIG    1       25.266 -15.689   3.697  0.00  0.00    +0.135 C 
ATOM      4  C   LIG    1       25.318 -17.000   3.422  0.00  0.00    +0.111 C 
ATOM      5  N   LIG    1       24.238 -17.855   3.573  0.00  0.00    -0.273 N 
ATOM      6  C   LIG    1       23.047 -17.394   4.128  0.00  0.00    +0.331 C 
ATOM      7  O   LIG    1       22.098 -18.116   4.422  0.00  0.00    -0.246 OA
ATOM      8  N   LIG    1       22.984 -16.044   4.344  0.00  0.00    -0.274 N 
ATOM      9  H   LIG    1       22.119 -15.692   4.727  0.00  0.00    +0.173 HD
ENDROOT
BRANCH   5  10
ATOM     10  C1* LIG    1       24.374 -19.304   3.357  0.00  0.00    +0.226 C 
ATOM     11  O4* LIG    1       23.417 -20.019   4.172  0.00  0.00    -0.348 OA
ATOM     12  C4* LIG    1       24.125 -20.703   5.232  0.00  0.00    +0.175 C 
ATOM     13  C3* LIG    1       25.569 -20.229   5.178  0.00  0.00    +0.150 C 
ATOM     14  C2* LIG    1       25.737 -19.889   3.720  0.00  0.00    +0.088 C 
BRANCH  13  15
ATOM     15  O3* LIG    1       26.492 -21.211   5.614  0.00  0.00    -0.389 OA
ATOM     16  H3* LIG    1       27.152 -21.362   4.914  0.00  0.00    +0.210 HD
ENDBRANCH  13  15
BRANCH  12  17
ATOM     17  C5* LIG    1       23.466 -20.396   6.576  0.00  0.00    +0.190 C 
BRANCH  17  18
ATOM     18  O5* LIG    1       22.777 -21.547   7.060  0.00  0.00    -0.392 OA
ATOM     19  H5* LIG    1       21.833 -21.308   7.110  0.00  0.00    +0.209 HD
ENDBRANCH  17  18
ENDBRANCH  12  17
ENDBRANCH   5  10
BRANCH   3  20
ATOM     20  C   LIG    1       26.445 -14.801   3.549  0.00  0.00    +0.424 C 
ATOM     21  F   LIG    1       26.366 -14.088   2.393  0.00  0.00    -0.166 F 
ATOM     22  F   LIG    1       27.589 -15.535   3.454  0.00  0.00    -0.166 F 
ATOM     23  F   LIG    1       26.649 -13.905   4.541  0.00  0.00    -0.166 F 
ENDBRANCH   3  20
TORSDOF 5
ENDMDL
MODEL 2
REMARK VINA RESULT:      -4.0      2.223      2.994
REMARK  Name = *****
REMARK                            x       y       z     vdW  Elec       q    Type
REMARK                         _______ _______ _______ _____ _____    ______ ____
ROOT
ATOM      1  O   LIG    1       27.342 -13.394   4.495  0.00  0.00    -0.267 OA
ATOM      2  C   LIG    1       27.001 -14.531   4.204  0.00  0.00    +0.266 C 
ATOM      3  C   LIG    1       25.696 -14.860   3.622  0.00  0.00    +0.135 C 
ATOM      4  C   LIG    1       25.430 -16.147   3.362  0.00  0.00    +0.111 C 
ATOM      5  N   LIG    1       26.320 -17.177   3.616  0.00  0.00    -0.273 N 
ATOM      6  C   LIG    1       27.606 -16.900   4.072  0.00  0.00    +0.331 C 
ATOM      7  O   LIG    1       28.494 -17.741   4.187  0.00  0.00    -0.246 OA
ATOM      8  N   LIG    1       27.846 -15.592   4.395  0.00  0.00    -0.274 N 
ATOM      9  H   LIG    1       28.767 -15.378   4.748  0.00  0.00    +0.173 HD
ENDROOT
BRANCH   5  10
ATOM     10  C1* LIG    1       26.022 -18.561   3.217  0.00  0.00    +0.226 C 
ATOM     11  O4* LIG    1       24.625 -18.687   2.867  0.00  0.00    -0.348 OA
ATOM     12  C4* LIG    1       23.954 -19.459   3.891  0.00  0.00    +0.175 C 
ATOM     13  C3* LIG    1       24.951 -19.653   5.023  0.00  0.00    +0.150 C 
ATOM     14  C2* LIG    1       26.269 -19.615   4.293  0.00  0.00    +0.088 C 
BRANCH  13  15
ATOM     15  O3* LIG    1       24.759 -20.867   5.728  0.00  0.00    -0.389 OA
ATOM     16  H3* LIG    1       25.042 -21.610   5.168  0.00  0.00    +0.210 HD
ENDBRANCH  13  15
BRANCH  12  17
ATOM     17  C5* LIG    1       22.695 -18.724   4.351  0.00  0.00    +0.190 C 
BRANCH  17  18
ATOM     18  O5* LIG    1       22.290 -19.200   5.633  0.00  0.00    -0.392 OA
ATOM     19  H5* LIG    1       22.862 -19.961   5.843  0.00  0.00    +0.209 HD
ENDBRANCH  17  18
ENDBRANCH  12  17
ENDBRANCH   5  10
BRANCH   3  20
ATOM     20  C   LIG    1       24.733 -13.774   3.317  0.00  0.00    +0.424 C 
ATOM     21  F   LIG    1       23.458 -14.251   3.314  0.00  0.00    -0.166 F 
ATOM     22  F   LIG    1       24.946 -13.282   2.065  0.00  0.00    -0.166 F 
ATOM     23  F   LIG    1       24.744 -12.710   4.151  0.00  0.00    -0.166 F 
ENDBRANCH   3  20
TORSDOF 5
ENDMDL
MODEL 3
REMARK VINA RESULT:      -3.3      3.426      6.200
REMARK  Name = *****
REMARK                            x       y       z     vdW  Elec       q    Type
REMARK                         _______ _______ _______ _____ _____    ______ ____
ROOT
ATOM      1  O   LIG    1       25.352 -20.439   4.414  0.00  0.00    -0.267 OA
ATOM      2  C   LIG    1       25.196 -19.264   4.112  0.00  0.00    +0.266 C 
ATOM      3  C   LIG    1       23.899 -18.584   4.164  0.00  0.00    +0.135 C 
ATOM      4  C   LIG    1       23.849 -17.297   3.792  0.00  0.00    +0.111 C 
ATOM      5  N   LIG    1       24.955 -16.584   3.361  0.00  0.00    -0.273 N 
ATOM      6  C   LIG    1       26.222 -17.161   3.394  0.00  0.00    +0.331 C 
ATOM      7  O   LIG    1       27.264 -16.553   3.163  0.00  0.00    -0.246 OA
ATOM      8  N   LIG    1       26.253 -18.492   3.713  0.00  0.00    -0.274 N 
ATOM      9  H   LIG    1       27.162 -18.930   3.720  0.00  0.00    +0.173 HD
ENDROOT
BRANCH   5  10
ATOM     10  C1* LIG    1       24.869 -15.146   3.063  0.00  0.00    +0.226 C 
ATOM     11  O4* LIG    1       26.168 -14.640   2.676  0.00  0.00    -0.348 OA
ATOM     12  C4* LIG    1       26.673 -13.793   3.734  0.00  0.00    +0.175 C 
ATOM     13  C3* LIG    1       25.722 -13.939   4.912  0.00  0.00    +0.150 C 
ATOM     14  C2* LIG    1       24.420 -14.266   4.227  0.00  0.00    +0.088 C 
BRANCH  13  15
ATOM     15  O3* LIG    1       25.636 -12.768   5.704  0.00  0.00    -0.389 OA
ATOM     16  H3* LIG    1       25.234 -12.055   5.178  0.00  0.00    +0.210 HD
ENDBRANCH  13  15
BRANCH  12  17
ATOM     17  C5* LIG    1       28.101 -14.207   4.091  0.00  0.00    +0.190 C 
BRANCH  17  18
ATOM     18  O5* LIG    1       29.038 -13.452   3.324  0.00  0.00    -0.392 OA
ATOM     19  H5* LIG    1       29.565 -12.933   3.959  0.00  0.00    +0.209 HD
ENDBRANCH  17  18
ENDBRANCH  12  17
ENDBRANCH   5  10
BRANCH   3  20
ATOM     20  C   LIG    1       22.702 -19.317   4.644  0.00  0.00    +0.424 C 
ATOM     21  F   LIG    1       21.565 -18.641   4.324  0.00  0.00    -0.166 F 
ATOM     22  F   LIG    1       22.708 -19.405   6.003  0.00  0.00    -0.166 F 
ATOM     23  F   LIG    1       22.544 -20.577   4.181  0.00  0.00    -0.166 F 
ENDBRANCH   3  20
TORSDOF 5
ENDMDL
MODEL 4
REMARK VINA RESULT:      -3.3      3.066      6.130
REMARK  Name = *****
REMARK                            x       y       z     vdW  Elec       q    Type
REMARK                         _______ _______ _______ _____ _____    ______ ____
ROOT
ATOM      1  O   LIG    1       23.890 -19.747   3.636  0.00  0.00    -0.267 OA
ATOM      2  C   LIG    1       24.404 -18.638   3.671  0.00  0.00    +0.266 C 
ATOM      3  C   LIG    1       23.686 -17.428   4.083  0.00  0.00    +0.135 C 
ATOM      4  C   LIG    1       24.352 -16.265   4.064  0.00  0.00    +0.111 C 
ATOM      5  N   LIG    1       25.677 -16.150   3.676  0.00  0.00    -0.273 N 
ATOM      6  C   LIG    1       26.424 -17.287   3.375  0.00  0.00    +0.331 C 
ATOM      7  O   LIG    1       27.633 -17.281   3.160  0.00  0.00    -0.246 OA
ATOM      8  N   LIG    1       25.719 -18.459   3.335  0.00  0.00    -0.274 N 
ATOM      9  H   LIG    1       26.242 -19.289   3.098  0.00  0.00    +0.173 HD
ENDROOT
BRANCH   5  10
ATOM     10  C1* LIG    1       26.394 -14.870   3.772  0.00  0.00    +0.226 C 
ATOM     11  O4* LIG    1       25.770 -14.025   4.767  0.00  0.00    -0.348 OA
ATOM     12  C4* LIG    1       25.102 -12.930   4.097  0.00  0.00    +0.175 C 
ATOM     13  C3* LIG    1       25.156 -13.223   2.606  0.00  0.00    +0.150 C 
ATOM     14  C2* LIG    1       26.417 -14.040   2.490  0.00  0.00    +0.088 C 
BRANCH  13  15
ATOM     15  O3* LIG    1       25.197 -12.051   1.812  0.00  0.00    -0.389 OA
ATOM     16  H3* LIG    1       24.295 -11.829   1.523  0.00  0.00    +0.210 HD
ENDBRANCH  13  15
BRANCH  12  17
ATOM     17  C5* LIG    1       23.667 -12.810   4.610  0.00  0.00    +0.190 C 
BRANCH  17  18
ATOM     18  O5* LIG    1       23.413 -11.477   5.051  0.00  0.00    -0.392 OA
ATOM     19  H5* LIG    1       23.728 -10.884   4.344  0.00  0.00    +0.209 HD
ENDBRANCH  17  18
ENDBRANCH  12  17
ENDBRANCH   5  10
BRANCH   3  20
ATOM     20  C   LIG    1       22.275 -17.526   4.527  0.00  0.00    +0.424 C 
ATOM     21  F   LIG    1       21.865 -16.353   5.082  0.00  0.00    -0.166 F 
ATOM     22  F   LIG    1       22.145 -18.463   5.507  0.00  0.00    -0.166 F 
ATOM     23  F   LIG    1       21.366 -17.839   3.577  0.00  0.00    -0.166 F 
ENDBRANCH   3  20
TORSDOF 5
ENDMDL
MODEL 5
REMARK VINA RESULT:      -3.0      1.386      1.696
REMARK  Name = *****
REMARK                            x       y       z     vdW  Elec       q    Type
REMARK                         _______ _______ _______ _____ _____    ______ ____
ROOT
ATOM      1  O   LIG    1       22.083 -15.312   4.725  0.00  0.00    -0.267 OA
ATOM      2  C   LIG    1       22.677 -16.351   4.475  0.00  0.00    +0.266 C 
ATOM      3  C   LIG    1       24.061 -16.394   3.993  0.00  0.00    +0.135 C 
ATOM      4  C   LIG    1       24.600 -17.594   3.735  0.00  0.00    +0.111 C 
ATOM      5  N   LIG    1       23.918 -18.788   3.899  0.00  0.00    -0.273 N 
ATOM      6  C   LIG    1       22.639 -18.799   4.450  0.00  0.00    +0.331 C 
ATOM      7  O   LIG    1       22.027 -19.820   4.756  0.00  0.00    -0.246 OA
ATOM      8  N   LIG    1       22.074 -17.568   4.649  0.00  0.00    -0.274 N 
ATOM      9  H   LIG    1       21.139 -17.560   5.028  0.00  0.00    +0.173 HD
ENDROOT
BRANCH   5  10
ATOM     10  C1* LIG    1       24.586 -20.084   3.703  0.00  0.00    +0.226 C 
ATOM     11  O4* LIG    1       24.089 -21.049   4.658  0.00  0.00    -0.348 OA
ATOM     12  C4* LIG    1       25.128 -21.323   5.628  0.00  0.00    +0.175 C 
ATOM     13  C3* LIG    1       26.252 -20.333   5.365  0.00  0.00    +0.150 C 
ATOM     14  C2* LIG    1       26.101 -20.068   3.889  0.00  0.00    +0.088 C 
BRANCH  13  15
ATOM     15  O3* LIG    1       27.530 -20.846   5.694  0.00  0.00    -0.389 OA
ATOM     16  H3* LIG    1       27.456 -21.799   5.876  0.00  0.00    +0.210 HD
ENDBRANCH  13  15
BRANCH  12  17
ATOM     17  C5* LIG    1       24.562 -21.193   7.042  0.00  0.00    +0.190 C 
BRANCH  17  18
ATOM     18  O5* LIG    1       23.284 -20.561   7.003  0.00  0.00    -0.392 OA
ATOM     19  H5* LIG    1       22.966 -20.629   6.084  0.00  0.00    +0.209 HD
ENDBRANCH  17  18
ENDBRANCH  12  17
ENDBRANCH   5  10
BRANCH   3  20
ATOM     20  C   LIG    1       24.822 -15.132   3.832  0.00  0.00    +0.424 C 
ATOM     21  F   LIG    1       24.674 -14.340   4.928  0.00  0.00    -0.166 F 
ATOM     22  F   LIG    1       24.336 -14.409   2.785  0.00  0.00    -0.166 F 
ATOM     23  F   LIG    1       26.152 -15.255   3.624  0.00  0.00    -0.166 F 
ENDBRANCH   3  20
TORSDOF 5
ENDMDL
MODEL 6
REMARK VINA RESULT:      -2.9      2.927      5.347
REMARK  Name = *****
REMARK                            x       y       z     vdW  Elec       q    Type
REMARK                         _______ _______ _______ _____ _____    ______ ____
ROOT
ATOM      1  O   LIG    1       22.067 -19.182   4.855  0.00  0.00    -0.267 OA
ATOM      2  C   LIG    1       22.822 -18.292   4.491  0.00  0.00    +0.266 C 
ATOM      3  C   LIG    1       24.127 -18.543   3.871  0.00  0.00    +0.135 C 
ATOM      4  C   LIG    1       24.874 -17.484   3.530  0.00  0.00    +0.111 C 
ATOM      5  N   LIG    1       24.479 -16.172   3.734  0.00  0.00    -0.273 N 
ATOM      6  C   LIG    1       23.207 -15.888   4.225  0.00  0.00    +0.331 C 
ATOM      7  O   LIG    1       22.733 -14.758   4.302  0.00  0.00    -0.246 OA
ATOM      8  N   LIG    1       22.478 -16.974   4.630  0.00  0.00    -0.274 N 
ATOM      9  H   LIG    1       21.562 -16.783   5.008  0.00  0.00    +0.173 HD
ENDROOT
BRANCH   5  10
ATOM     10  C1* LIG    1       25.289 -15.045   3.247  0.00  0.00    +0.226 C 
ATOM     11  O4* LIG    1       26.646 -15.480   2.999  0.00  0.00    -0.348 OA
ATOM     12  C4* LIG    1       27.512 -14.905   4.006  0.00  0.00    +0.175 C 
ATOM     13  C3* LIG    1       26.612 -14.239   5.036  0.00  0.00    +0.150 C 
ATOM     14  C2* LIG    1       25.408 -13.867   4.210  0.00  0.00    +0.088 C 
BRANCH  13  15
ATOM     15  O3* LIG    1       27.213 -13.114   5.652  0.00  0.00    -0.389 OA
ATOM     16  H3* LIG    1       27.126 -13.194   6.618  0.00  0.00    +0.210 HD
ENDBRANCH  13  15
BRANCH  12  17
ATOM     17  C5* LIG    1       28.384 -15.998   4.622  0.00  0.00    +0.190 C 
BRANCH  17  18
ATOM     18  O5* LIG    1       28.068 -17.263   4.044  0.00  0.00    -0.392 OA
ATOM     19  H5* LIG    1       27.095 -17.315   4.001  0.00  0.00    +0.209 HD
ENDBRANCH  17  18
ENDBRANCH  12  17
ENDBRANCH   5  10
BRANCH   3  20
ATOM     20  C   LIG    1       24.564 -19.937   3.619  0.00  0.00    +0.424 C 
ATOM     21  F   LIG    1       24.466 -20.683   4.753  0.00  0.00    -0.166 F 
ATOM     22  F   LIG    1       25.880 -19.970   3.269  0.00  0.00    -0.166 F 
ATOM     23  F   LIG    1       23.897 -20.611   2.656  0.00  0.00    -0.166 F 
ENDBRANCH   3  20
TORSDOF 5
ENDMDL
MODEL 7
REMARK VINA RESULT:      -2.8      0.917      1.059
REMARK  Name = *****
REMARK                            x       y       z     vdW  Elec       q    Type
REMARK                         _______ _______ _______ _____ _____    ______ ____
ROOT
ATOM      1  O   LIG    1       23.825 -13.719   4.675  0.00  0.00    -0.267 OA
ATOM      2  C   LIG    1       23.827 -14.914   4.413  0.00  0.00    +0.266 C 
ATOM      3  C   LIG    1       24.983 -15.614   3.845  0.00  0.00    +0.135 C 
ATOM      4  C   LIG    1       24.858 -16.922   3.582  0.00  0.00    +0.111 C 
ATOM      5  N   LIG    1       23.698 -17.641   3.818  0.00  0.00    -0.273 N 
ATOM      6  C   LIG    1       22.612 -17.039   4.449  0.00  0.00    +0.331 C 
ATOM      7  O   LIG    1       21.607 -17.641   4.817  0.00  0.00    -0.246 OA
ATOM      8  N   LIG    1       22.726 -15.690   4.653  0.00  0.00    -0.274 N 
ATOM      9  H   LIG    1       21.938 -15.235   5.091  0.00  0.00    +0.173 HD
ENDROOT
BRANCH   5  10
ATOM     10  C1* LIG    1       23.645 -19.096   3.610  0.00  0.00    +0.226 C 
ATOM     11  O4* LIG    1       23.311 -19.763   4.850  0.00  0.00    -0.348 OA
ATOM     12  C4* LIG    1       24.481 -20.465   5.332  0.00  0.00    +0.175 C 
ATOM     13  C3* LIG    1       25.644 -20.051   4.443  0.00  0.00    +0.150 C 
ATOM     14  C2* LIG    1       24.950 -19.734   3.143  0.00  0.00    +0.088 C 
BRANCH  13  15
ATOM     15  O3* LIG    1       26.621 -21.066   4.300  0.00  0.00    -0.389 OA
ATOM     16  H3* LIG    1       27.370 -20.874   4.891  0.00  0.00    +0.210 HD
ENDBRANCH  13  15
BRANCH  12  17
ATOM     17  C5* LIG    1       24.724 -20.116   6.800  0.00  0.00    +0.190 C 
BRANCH  17  18
ATOM     18  O5* LIG    1       26.125 -20.041   7.061  0.00  0.00    -0.392 OA
ATOM     19  H5* LIG    1       26.578 -20.267   6.228  0.00  0.00    +0.209 HD
ENDBRANCH  17  18
ENDBRANCH  12  17
ENDBRANCH   5  10
BRANCH   3  20
ATOM     20  C   LIG    1       26.246 -14.874   3.606  0.00  0.00    +0.424 C 
ATOM     21  F   LIG    1       26.179 -14.176   2.439  0.00  0.00    -0.166 F 
ATOM     22  F   LIG    1       27.287 -15.739   3.459  0.00  0.00    -0.166 F 
ATOM     23  F   LIG    1       26.615 -13.992   4.561  0.00  0.00    -0.166 F 
ENDBRANCH   3  20
TORSDOF 5
ENDMDL
MODEL 8
REMARK VINA RESULT:      -2.4      2.555      5.409
REMARK  Name = *****
REMARK                            x       y       z     vdW  Elec       q    Type
REMARK                         _______ _______ _______ _____ _____    ______ ____
ROOT
ATOM      1  O   LIG    1       22.769 -19.941   4.808  0.00  0.00    -0.267 OA
ATOM      2  C   LIG    1       23.048 -18.767   4.607  0.00  0.00    +0.266 C 
ATOM      3  C   LIG    1       24.228 -18.336   3.851  0.00  0.00    +0.135 C 
ATOM      4  C   LIG    1       24.439 -17.020   3.712  0.00  0.00    +0.111 C 
ATOM      5  N   LIG    1       23.603 -16.052   4.246  0.00  0.00    -0.273 N 
ATOM      6  C   LIG    1       22.420 -16.417   4.883  0.00  0.00    +0.331 C 
ATOM      7  O   LIG    1       21.563 -15.620   5.257  0.00  0.00    -0.246 OA
ATOM      8  N   LIG    1       22.247 -17.761   5.076  0.00  0.00    -0.274 N 
ATOM      9  H   LIG    1       21.404 -18.040   5.555  0.00  0.00    +0.173 HD
ENDROOT
BRANCH   5  10
ATOM     10  C1* LIG    1       23.820 -14.623   3.978  0.00  0.00    +0.226 C 
ATOM     11  O4* LIG    1       24.785 -14.458   2.912  0.00  0.00    -0.348 OA
ATOM     12  C4* LIG    1       26.014 -13.939   3.471  0.00  0.00    +0.175 C 
ATOM     13  C3* LIG    1       25.860 -13.967   4.984  0.00  0.00    +0.150 C 
ATOM     14  C2* LIG    1       24.370 -13.817   5.153  0.00  0.00    +0.088 C 
BRANCH  13  15
ATOM     15  O3* LIG    1       26.583 -12.937   5.634  0.00  0.00    -0.389 OA
ATOM     16  H3* LIG    1       26.325 -12.909   6.572  0.00  0.00    +0.210 HD
ENDBRANCH  13  15
BRANCH  12  17
ATOM     17  C5* LIG    1       27.195 -14.784   2.996  0.00  0.00    +0.190 C 
BRANCH  17  18
ATOM     18  O5* LIG    1       27.934 -15.271   4.116  0.00  0.00    -0.392 OA
ATOM     19  H5* LIG    1       28.611 -14.598   4.318  0.00  0.00    +0.209 HD
ENDBRANCH  17  18
ENDBRANCH  12  17
ENDBRANCH   5  10
BRANCH   3  20
ATOM     20  C   LIG    1       25.125 -19.351   3.247  0.00  0.00    +0.424 C 
ATOM     21  F   LIG    1       26.041 -18.757   2.435  0.00  0.00    -0.166 F 
ATOM     22  F   LIG    1       24.420 -20.200   2.450  0.00  0.00    -0.166 F 
ATOM     23  F   LIG    1       25.820 -20.126   4.109  0.00  0.00    -0.166 F 
ENDBRANCH   3  20
TORSDOF 5
ENDMDL
MODEL 9
REMARK VINA RESULT:      -2.1      1.806      2.647
REMARK  Name = *****
REMARK                            x       y       z     vdW  Elec       q    Type
REMARK                         _______ _______ _______ _____ _____    ______ ____
ROOT
ATOM      1  O   LIG    1       27.264 -14.652   3.265  0.00  0.00    -0.267 OA
ATOM      2  C   LIG    1       26.303 -15.381   3.468  0.00  0.00    +0.266 C 
ATOM      3  C   LIG    1       24.982 -14.884   3.864  0.00  0.00    +0.135 C 
ATOM      4  C   LIG    1       24.010 -15.782   4.074  0.00  0.00    +0.111 C 
ATOM      5  N   LIG    1       24.191 -17.148   3.939  0.00  0.00    -0.273 N 
ATOM      6  C   LIG    1       25.399 -17.656   3.467  0.00  0.00    +0.331 C 
ATOM      7  O   LIG    1       25.590 -18.837   3.188  0.00  0.00    -0.246 OA
ATOM      8  N   LIG    1       26.403 -16.738   3.317  0.00  0.00    -0.274 N 
ATOM      9  H   LIG    1       27.291 -17.094   2.996  0.00  0.00    +0.173 HD
ENDROOT
BRANCH   5  10
ATOM     10  C1* LIG    1       23.066 -18.086   4.080  0.00  0.00    +0.226 C 
ATOM     11  O4* LIG    1       23.127 -18.744   5.367  0.00  0.00    -0.348 OA
ATOM     12  C4* LIG    1       23.492 -20.130   5.165  0.00  0.00    +0.175 C 
ATOM     13  C3* LIG    1       23.862 -20.282   3.698  0.00  0.00    +0.150 C 
ATOM     14  C2* LIG    1       23.024 -19.210   3.048  0.00  0.00    +0.088 C 
BRANCH  13  15
ATOM     15  O3* LIG    1       23.579 -21.572   3.186  0.00  0.00    -0.389 OA
ATOM     16  H3* LIG    1       22.993 -22.040   3.805  0.00  0.00    +0.210 HD
ENDBRANCH  13  15
BRANCH  12  17
ATOM     17  C5* LIG    1       24.650 -20.499   6.093  0.00  0.00    +0.190 C 
BRANCH  17  18
ATOM     18  O5* LIG    1       25.755 -20.981   5.331  0.00  0.00    -0.392 OA
ATOM     19  H5* LIG    1       26.238 -20.197   5.010  0.00  0.00    +0.209 HD
ENDBRANCH  17  18
ENDBRANCH  12  17
ENDBRANCH   5  10
BRANCH   3  20
ATOM     20  C   LIG    1       24.754 -13.424   3.992  0.00  0.00    +0.424 C 
ATOM     21  F   LIG    1       25.141 -12.777   2.858  0.00  0.00    -0.166 F 
ATOM     22  F   LIG    1       25.520 -12.905   4.992  0.00  0.00    -0.166 F 
ATOM     23  F   LIG    1       23.485 -13.034   4.243  0.00  0.00    -0.166 F 
ENDBRANCH   3  20
TORSDOF 5
ENDMDL
