MODEL 1
REMARK VINA RESULT:      -9.0      0.000      0.000
REMARK  Name = *****
REMARK                            x       y       z     vdW  Elec       q    Type
REMARK                         _______ _______ _______ _____ _____    ______ ____
ROOT
ATOM      1  C   LIG    1       24.628 -19.914   3.458  0.00  0.00    +0.048 C 
ATOM      2  C   LIG    1       24.489 -20.277   4.903  0.00  0.00    -0.008 A 
ATOM      3  C   LIG    1       25.733 -20.270   5.748  0.00  0.00    +0.143 A 
ATOM      4  N   LIG    1       25.593 -20.610   7.091  0.00  0.00    -0.267 N 
ATOM      5  C   LIG    1       26.698 -20.596   7.947  0.00  0.00    +0.269 C 
ATOM      6  C   LIG    1       28.013 -20.290   7.314  0.00  0.00    +0.105 C 
ATOM      7  C   LIG    1       27.976 -19.978   6.010  0.00  0.00    +0.130 C 
ATOM      8  O   LIG    1       26.606 -20.788   9.161  0.00  0.00    -0.267 OA
ATOM      9  C   LIG    1       24.347 -20.933   7.618  0.00  0.00    +0.096 A 
ATOM     10  C   LIG    1       23.240 -20.942   6.867  0.00  0.00    +0.019 A 
ATOM     11  N   LIG    1       26.871 -19.953   5.210  0.00  0.00    -0.236 NA
ATOM     12  C   LIG    1       23.318 -20.605   5.472  0.00  0.00    +0.008 A 
ENDROOT
BRANCH   6  13
ATOM     13  C   LIG    1       29.221 -20.316   8.075  0.00  0.00    +0.211 A 
ATOM     14  N   LIG    1       29.953 -21.407   8.376  0.00  0.00    -0.133 NA
ATOM     15  N   LIG    1       30.913 -20.850   9.128  0.00  0.00    -0.176 N 
ATOM     16  H   LIG    1       31.675 -21.391   9.527  0.00  0.00    +0.214 HD
ATOM     17  N   LIG    1       30.806 -19.535   9.335  0.00  0.00    -0.049 NA
ATOM     18  N   LIG    1       29.719 -19.180   8.667  0.00  0.00    -0.108 NA
ENDBRANCH   6  13
TORSDOF 1
ENDMDL
MODEL 2
REMARK VINA RESULT:      -8.1      1.449      2.510
REMARK  Name = *****
REMARK                            x       y       z     vdW  Elec       q    Type
REMARK                         _______ _______ _______ _____ _____    ______ ____
ROOT
ATOM      1  C   LIG    1       23.330 -22.090   7.293  0.00  0.00    +0.048 C 
ATOM      2  C   LIG    1       24.212 -21.307   6.373  0.00  0.00    -0.008 A 
ATOM      3  C   LIG    1       25.653 -21.129   6.768  0.00  0.00    +0.143 A 
ATOM      4  N   LIG    1       26.464 -20.398   5.905  0.00  0.00    -0.267 N 
ATOM      5  C   LIG    1       27.822 -20.216   6.189  0.00  0.00    +0.269 C 
ATOM      6  C   LIG    1       28.298 -20.767   7.490  0.00  0.00    +0.105 C 
ATOM      7  C   LIG    1       27.391 -21.450   8.203  0.00  0.00    +0.130 C 
ATOM      8  O   LIG    1       28.600 -19.667   5.407  0.00  0.00    -0.267 OA
ATOM      9  C   LIG    1       25.954 -19.865   4.726  0.00  0.00    +0.096 A 
ATOM     10  C   LIG    1       24.673 -20.021   4.374  0.00  0.00    +0.019 A 
ATOM     11  N   LIG    1       26.081 -21.653   7.875  0.00  0.00    -0.236 NA
ATOM     12  C   LIG    1       23.781 -20.761   5.224  0.00  0.00    +0.008 A 
ENDROOT
BRANCH   6  13
ATOM     13  C   LIG    1       29.648 -20.582   7.919  0.00  0.00    +0.211 A 
ATOM     14  N   LIG    1       30.498 -19.628   7.489  0.00  0.00    -0.133 NA
ATOM     15  N   LIG    1       31.599 -19.965   8.177  0.00  0.00    -0.176 N 
ATOM     16  H   LIG    1       32.464 -19.435   8.111  0.00  0.00    +0.214 HD
ATOM     17  N   LIG    1       31.499 -21.049   8.949  0.00  0.00    -0.049 NA
ATOM     18  N   LIG    1       30.249 -21.458   8.789  0.00  0.00    -0.108 NA
ENDBRANCH   6  13
TORSDOF 1
ENDMDL
MODEL 3
REMARK VINA RESULT:      -7.7      2.306      5.688
REMARK  Name = *****
REMARK                            x       y       z     vdW  Elec       q    Type
REMARK                         _______ _______ _______ _____ _____    ______ ____
ROOT
ATOM      1  C   LIG    1       30.945 -20.357   8.707  0.00  0.00    +0.048 C 
ATOM      2  C   LIG    1       30.092 -19.890   7.570  0.00  0.00    -0.008 A 
ATOM      3  C   LIG    1       28.729 -20.510   7.419  0.00  0.00    +0.143 A 
ATOM      4  N   LIG    1       27.944 -20.070   6.357  0.00  0.00    -0.267 N 
ATOM      5  C   LIG    1       26.654 -20.576   6.169  0.00  0.00    +0.269 C 
ATOM      6  C   LIG    1       26.232 -21.657   7.105  0.00  0.00    +0.105 C 
ATOM      7  C   LIG    1       27.104 -21.962   8.078  0.00  0.00    +0.130 C 
ATOM      8  O   LIG    1       25.885 -20.144   5.308  0.00  0.00    -0.267 OA
ATOM      9  C   LIG    1       28.408 -19.092   5.484  0.00  0.00    +0.096 A 
ATOM     10  C   LIG    1       29.620 -18.541   5.617  0.00  0.00    +0.019 A 
ATOM     11  N   LIG    1       28.340 -21.414   8.265  0.00  0.00    -0.236 NA
ATOM     12  C   LIG    1       30.482 -18.955   6.689  0.00  0.00    +0.008 A 
ENDROOT
BRANCH   6  13
ATOM     13  C   LIG    1       24.963 -22.299   6.967  0.00  0.00    +0.211 A 
ATOM     14  N   LIG    1       24.688 -23.363   6.187  0.00  0.00    -0.133 NA
ATOM     15  N   LIG    1       23.372 -23.489   6.413  0.00  0.00    -0.176 N 
ATOM     16  H   LIG    1       22.815 -24.225   5.987  0.00  0.00    +0.214 HD
ATOM     17  N   LIG    1       22.827 -22.580   7.226  0.00  0.00    -0.049 NA
ATOM     18  N   LIG    1       23.840 -21.806   7.585  0.00  0.00    -0.108 NA
ENDBRANCH   6  13
TORSDOF 1
ENDMDL
MODEL 4
REMARK VINA RESULT:      -7.2      2.369      5.491
REMARK  Name = *****
REMARK                            x       y       z     vdW  Elec       q    Type
REMARK                         _______ _______ _______ _____ _____    ______ ____
ROOT
ATOM      1  C   LIG    1       28.829 -18.256   5.047  0.00  0.00    +0.048 C 
ATOM      2  C   LIG    1       28.828 -19.338   6.080  0.00  0.00    -0.008 A 
ATOM      3  C   LIG    1       27.615 -20.224   6.163  0.00  0.00    +0.143 A 
ATOM      4  N   LIG    1       27.624 -21.227   7.128  0.00  0.00    -0.267 N 
ATOM      5  C   LIG    1       26.545 -22.110   7.246  0.00  0.00    +0.269 C 
ATOM      6  C   LIG    1       25.382 -21.844   6.353  0.00  0.00    +0.105 C 
ATOM      7  C   LIG    1       25.534 -20.842   5.475  0.00  0.00    +0.130 C 
ATOM      8  O   LIG    1       26.553 -23.074   8.013  0.00  0.00    -0.267 OA
ATOM      9  C   LIG    1       28.719 -21.398   7.969  0.00  0.00    +0.096 A 
ATOM     10  C   LIG    1       29.798 -20.610   7.896  0.00  0.00    +0.019 A 
ATOM     11  N   LIG    1       26.623 -20.027   5.350  0.00  0.00    -0.236 NA
ATOM     12  C   LIG    1       29.849 -19.553   6.925  0.00  0.00    +0.008 A 
ENDROOT
BRANCH   6  13
ATOM     13  C   LIG    1       24.196 -22.637   6.433  0.00  0.00    +0.211 A 
ATOM     14  N   LIG    1       22.935 -22.177   6.561  0.00  0.00    -0.133 NA
ATOM     15  N   LIG    1       22.265 -23.336   6.633  0.00  0.00    -0.176 N 
ATOM     16  H   LIG    1       21.254 -23.375   6.720  0.00  0.00    +0.214 HD
ATOM     17  N   LIG    1       23.008 -24.445   6.597  0.00  0.00    -0.049 NA
ATOM     18  N   LIG    1       24.252 -24.009   6.473  0.00  0.00    -0.108 NA
ENDBRANCH   6  13
TORSDOF 1
ENDMDL
MODEL 5
REMARK VINA RESULT:      -7.1      4.884      6.557
REMARK  Name = *****
REMARK                            x       y       z     vdW  Elec       q    Type
REMARK                         _______ _______ _______ _____ _____    ______ ____
ROOT
ATOM      1  C   LIG    1       27.571 -21.219   7.522  0.00  0.00    +0.048 C 
ATOM      2  C   LIG    1       26.106 -21.488   7.379  0.00  0.00    -0.008 A 
ATOM      3  C   LIG    1       25.683 -22.893   7.045  0.00  0.00    +0.143 A 
ATOM      4  N   LIG    1       24.318 -23.133   6.913  0.00  0.00    -0.267 N 
ATOM      5  C   LIG    1       23.846 -24.420   6.635  0.00  0.00    +0.269 C 
ATOM      6  C   LIG    1       24.886 -25.463   6.405  0.00  0.00    +0.105 C 
ATOM      7  C   LIG    1       26.157 -25.070   6.576  0.00  0.00    +0.130 C 
ATOM      8  O   LIG    1       22.647 -24.701   6.612  0.00  0.00    -0.267 OA
ATOM      9  C   LIG    1       23.394 -22.109   7.092  0.00  0.00    +0.096 A 
ATOM     10  C   LIG    1       23.769 -20.860   7.387  0.00  0.00    +0.019 A 
ATOM     11  N   LIG    1       26.585 -23.814   6.896  0.00  0.00    -0.236 NA
ATOM     12  C   LIG    1       25.164 -20.545   7.532  0.00  0.00    +0.008 A 
ENDROOT
BRANCH   6  13
ATOM     13  C   LIG    1       24.525 -26.797   6.045  0.00  0.00    +0.211 A 
ATOM     14  N   LIG    1       24.167 -27.224   4.817  0.00  0.00    -0.133 NA
ATOM     15  N   LIG    1       23.898 -28.510   5.082  0.00  0.00    -0.176 N 
ATOM     16  H   LIG    1       23.605 -29.164   4.361  0.00  0.00    +0.214 HD
ATOM     17  N   LIG    1       24.026 -28.886   6.357  0.00  0.00    -0.049 NA
ATOM     18  N   LIG    1       24.425 -27.791   6.987  0.00  0.00    -0.108 NA
ENDBRANCH   6  13
TORSDOF 1
ENDMDL
MODEL 6
REMARK VINA RESULT:      -6.8      4.883      6.676
REMARK  Name = *****
REMARK                            x       y       z     vdW  Elec       q    Type
REMARK                         _______ _______ _______ _____ _____    ______ ____
ROOT
ATOM      1  C   LIG    1       23.205 -20.602   7.397  0.00  0.00    +0.048 C 
ATOM      2  C   LIG    1       24.515 -21.316   7.290  0.00  0.00    -0.008 A 
ATOM      3  C   LIG    1       24.487 -22.778   6.936  0.00  0.00    +0.143 A 
ATOM      4  N   LIG    1       25.712 -23.433   6.838  0.00  0.00    -0.267 N 
ATOM      5  C   LIG    1       25.769 -24.785   6.483  0.00  0.00    +0.269 C 
ATOM      6  C   LIG    1       24.458 -25.473   6.313  0.00  0.00    +0.105 C 
ATOM      7  C   LIG    1       23.370 -24.698   6.436  0.00  0.00    +0.130 C 
ATOM      8  O   LIG    1       26.830 -25.379   6.284  0.00  0.00    -0.267 OA
ATOM      9  C   LIG    1       26.905 -22.751   7.055  0.00  0.00    +0.096 A 
ATOM     10  C   LIG    1       26.930 -21.452   7.371  0.00  0.00    +0.019 A 
ATOM     11  N   LIG    1       23.348 -23.366   6.736  0.00  0.00    -0.236 NA
ATOM     12  C   LIG    1       25.700 -20.719   7.492  0.00  0.00    +0.008 A 
ENDROOT
BRANCH   6  13
ATOM     13  C   LIG    1       24.391 -26.869   6.019  0.00  0.00    +0.211 A 
ATOM     14  N   LIG    1       24.119 -27.420   4.819  0.00  0.00    -0.133 NA
ATOM     15  N   LIG    1       24.140 -28.721   5.145  0.00  0.00    -0.176 N 
ATOM     16  H   LIG    1       23.987 -29.456   4.460  0.00  0.00    +0.214 HD
ATOM     17  N   LIG    1       24.362 -28.999   6.432  0.00  0.00    -0.049 NA
ATOM     18  N   LIG    1       24.520 -27.816   7.006  0.00  0.00    -0.108 NA
ENDBRANCH   6  13
TORSDOF 1
ENDMDL
MODEL 7
REMARK VINA RESULT:      -6.2      2.358      2.941
REMARK  Name = *****
REMARK                            x       y       z     vdW  Elec       q    Type
REMARK                         _______ _______ _______ _____ _____    ______ ____
ROOT
ATOM      1  C   LIG    1       23.961 -25.697   6.130  0.00  0.00    +0.048 C 
ATOM      2  C   LIG    1       23.781 -24.272   6.549  0.00  0.00    -0.008 A 
ATOM      3  C   LIG    1       25.020 -23.450   6.782  0.00  0.00    +0.143 A 
ATOM      4  N   LIG    1       24.842 -22.126   7.171  0.00  0.00    -0.267 N 
ATOM      5  C   LIG    1       25.945 -21.291   7.377  0.00  0.00    +0.269 C 
ATOM      6  C   LIG    1       27.284 -21.931   7.243  0.00  0.00    +0.105 C 
ATOM      7  C   LIG    1       27.284 -23.215   6.856  0.00  0.00    +0.130 C 
ATOM      8  O   LIG    1       25.836 -20.087   7.621  0.00  0.00    -0.267 OA
ATOM      9  C   LIG    1       23.566 -21.594   7.328  0.00  0.00    +0.096 A 
ATOM     10  C   LIG    1       22.464 -22.324   7.123  0.00  0.00    +0.019 A 
ATOM     11  N   LIG    1       26.187 -23.992   6.614  0.00  0.00    -0.236 NA
ATOM     12  C   LIG    1       22.580 -23.699   6.723  0.00  0.00    +0.008 A 
ENDROOT
BRANCH   6  13
ATOM     13  C   LIG    1       28.482 -21.195   7.498  0.00  0.00    +0.211 A 
ATOM     14  N   LIG    1       29.045 -20.279   6.685  0.00  0.00    -0.133 NA
ATOM     15  N   LIG    1       30.139 -19.970   7.396  0.00  0.00    -0.176 N 
ATOM     16  H   LIG    1       30.812 -19.275   7.085  0.00  0.00    +0.214 HD
ATOM     17  N   LIG    1       30.302 -20.638   8.540  0.00  0.00    -0.049 NA
ATOM     18  N   LIG    1       29.245 -21.433   8.616  0.00  0.00    -0.108 NA
ENDBRANCH   6  13
TORSDOF 1
ENDMDL
MODEL 8
REMARK VINA RESULT:      -6.2      8.821     10.063
REMARK  Name = *****
REMARK                            x       y       z     vdW  Elec       q    Type
REMARK                         _______ _______ _______ _____ _____    ______ ____
ROOT
ATOM      1  C   LIG    1       23.679 -33.238   6.942  0.00  0.00    +0.048 C 
ATOM      2  C   LIG    1       24.599 -32.296   7.652  0.00  0.00    -0.008 A 
ATOM      3  C   LIG    1       24.613 -30.861   7.202  0.00  0.00    +0.143 A 
ATOM      4  N   LIG    1       25.473 -29.992   7.869  0.00  0.00    -0.267 N 
ATOM      5  C   LIG    1       25.519 -28.637   7.528  0.00  0.00    +0.269 C 
ATOM      6  C   LIG    1       24.674 -28.223   6.372  0.00  0.00    +0.105 C 
ATOM      7  C   LIG    1       23.898 -29.180   5.842  0.00  0.00    +0.130 C 
ATOM      8  O   LIG    1       26.186 -27.813   8.157  0.00  0.00    -0.267 OA
ATOM      9  C   LIG    1       26.275 -30.445   8.911  0.00  0.00    +0.096 A 
ATOM     10  C   LIG    1       26.265 -31.721   9.310  0.00  0.00    +0.019 A 
ATOM     11  N   LIG    1       23.838 -30.487   6.230  0.00  0.00    -0.236 NA
ATOM     12  C   LIG    1       25.403 -32.669   8.660  0.00  0.00    +0.008 A 
ENDROOT
BRANCH   6  13
ATOM     13  C   LIG    1       24.693 -26.879   5.889  0.00  0.00    +0.211 A 
ATOM     14  N   LIG    1       23.866 -25.883   6.266  0.00  0.00    -0.133 NA
ATOM     15  N   LIG    1       24.304 -24.896   5.471  0.00  0.00    -0.176 N 
ATOM     16  H   LIG    1       23.907 -23.961   5.496  0.00  0.00    +0.214 HD
ATOM     17  N   LIG    1       25.290 -25.216   4.630  0.00  0.00    -0.049 NA
ATOM     18  N   LIG    1       25.547 -26.490   4.885  0.00  0.00    -0.108 NA
ENDBRANCH   6  13
TORSDOF 1
ENDMDL
