MODEL 1
REMARK VINA RESULT:      -3.0      0.000      0.000
REMARK  Name = *****
REMARK                            x       y       z     vdW  Elec       q    Type
REMARK                         _______ _______ _______ _____ _____    ______ ____
ROOT
ATOM      1  C   LIG    1       22.056 -18.286   5.030  0.00  0.00    +0.050 C 
ATOM      2  C   LIG    1       23.436 -18.967   5.130  0.00  0.00    +0.065 C 
ATOM      3  C   LIG    1       23.745 -19.200   3.666  0.00  0.00    +0.140 C 
ATOM      4  O   LIG    1       24.873 -19.402   3.232  0.00  0.00    -0.297 OA
ATOM      5  C   LIG    1       22.519 -19.165   2.791  0.00  0.00    +0.106 C 
ATOM      6  C   LIG    1       21.394 -18.921   3.794  0.00  0.00    +0.129 C 
ENDROOT
BRANCH   6   7
ATOM      7  O   LIG    1       20.777 -20.159   4.135  0.00  0.00    -0.391 OA
ATOM      8  H   LIG    1       20.473 -20.576   3.309  0.00  0.00    +0.210 HD
ENDBRANCH   6   7
BRANCH   1  10
ATOM      9  C   LIG    1       23.363 -16.207   4.479  0.00  0.00    -0.028 C 
ATOM     10  C   LIG    1       22.211 -16.788   4.853  0.00  0.00    -0.024 C 
BRANCH   9  11
ATOM     11  C   LIG    1       23.520 -14.727   4.236  0.00  0.00    +0.061 C 
BRANCH  11  12
ATOM     12  C   LIG    1       24.923 -14.291   3.731  0.00  0.00    +0.067 C 
ATOM     13  C   LIG    1       24.770 -13.573   2.383  0.00  0.00    +0.041 C 
BRANCH  12  14
ATOM     14  O   LIG    1       25.714 -15.468   3.485  0.00  0.00    -0.389 OA
ATOM     15  H   LIG    1       25.151 -16.135   3.055  0.00  0.00    +0.210 HD
ENDBRANCH  12  14
BRANCH  12  16
ATOM     16  C   LIG    1       25.735 -13.438   4.739  0.00  0.00    +0.035 C 
BRANCH  16  17
ATOM     17  C   LIG    1       27.136 -13.956   5.096  0.00  0.00    +0.002 C 
BRANCH  17  19
ATOM     18  C   LIG    1       28.989 -12.956   3.655  0.00  0.00    +0.004 C 
ATOM     19  C   LIG    1       28.197 -12.854   4.954  0.00  0.00    -0.003 C 
ENDBRANCH  17  19
ENDBRANCH  16  17
ENDBRANCH  12  16
ENDBRANCH  11  12
ENDBRANCH   9  11
ENDBRANCH   1  10
BRANCH   2  20
ATOM     20  C   LIG    1       23.468 -20.324   5.848  0.00  0.00    +0.011 C 
BRANCH  20  21
ATOM     21  C   LIG    1       24.638 -20.482   6.828  0.00  0.00    +0.001 C 
BRANCH  21  22
ATOM     22  C   LIG    1       25.868 -21.171   6.212  0.00  0.00    +0.000 C 
BRANCH  22  23
ATOM     23  C   LIG    1       27.131 -21.029   7.062  0.00  0.00    +0.000 C 
BRANCH  23  24
ATOM     24  C   LIG    1       28.413 -21.233   6.238  0.00  0.00    +0.011 C 
BRANCH  24  25
ATOM     25  C   LIG    1       29.474 -20.153   6.482  0.00  0.00    +0.120 C 
BRANCH  25  26
ATOM     26  C   LIG    1       29.128 -18.751   5.980  0.00  0.00    +0.307 C 
ATOM     27  O   LIG    1       29.474 -17.745   6.554  0.00  0.00    -0.251 OA
BRANCH  26  28
ATOM     28  O   LIG    1       28.380 -18.800   4.840  0.00  0.00    -0.468 OA
ATOM     29  C   LIG    1       27.938 -17.544   4.338  0.00  0.00    +0.280 C 
ENDBRANCH  26  28
ENDBRANCH  25  26
ENDBRANCH  24  25
ENDBRANCH  23  24
ENDBRANCH  22  23
ENDBRANCH  21  22
ENDBRANCH  20  21
ENDBRANCH   2  20
TORSDOF 16
ENDMDL
MODEL 2
REMARK VINA RESULT:      -2.9      1.786      5.831
REMARK  Name = *****
REMARK                            x       y       z     vdW  Elec       q    Type
REMARK                         _______ _______ _______ _____ _____    ______ ____
ROOT
ATOM      1  C   LIG    1       24.227 -13.918   3.310  0.00  0.00    +0.050 C 
ATOM      2  C   LIG    1       25.500 -14.002   4.175  0.00  0.00    +0.065 C 
ATOM      3  C   LIG    1       25.239 -12.893   5.173  0.00  0.00    +0.140 C 
ATOM      4  O   LIG    1       25.804 -12.804   6.257  0.00  0.00    -0.297 OA
ATOM      5  C   LIG    1       24.213 -11.898   4.694  0.00  0.00    +0.106 C 
ATOM      6  C   LIG    1       23.850 -12.426   3.308  0.00  0.00    +0.129 C 
ENDROOT
BRANCH   6   7
ATOM      7  O   LIG    1       24.591 -11.721   2.316  0.00  0.00    -0.391 OA
ATOM      8  H   LIG    1       24.058 -10.955   2.037  0.00  0.00    +0.210 HD
ENDBRANCH   6   7
BRANCH   1  10
ATOM      9  C   LIG    1       23.276 -16.042   4.268  0.00  0.00    -0.028 C 
ATOM     10  C   LIG    1       23.116 -14.758   3.911  0.00  0.00    -0.024 C 
BRANCH   9  11
ATOM     11  C   LIG    1       22.203 -16.874   4.925  0.00  0.00    +0.061 C 
BRANCH  11  12
ATOM     12  C   LIG    1       22.159 -18.360   4.474  0.00  0.00    +0.067 C 
ATOM     13  C   LIG    1       20.849 -18.614   3.714  0.00  0.00    +0.041 C 
BRANCH  12  14
ATOM     14  O   LIG    1       22.128 -19.200   5.642  0.00  0.00    -0.389 OA
ATOM     15  H   LIG    1       22.688 -19.978   5.480  0.00  0.00    +0.210 HD
ENDBRANCH  12  14
BRANCH  12  16
ATOM     16  C   LIG    1       23.390 -18.822   3.652  0.00  0.00    +0.035 C 
BRANCH  16  17
ATOM     17  C   LIG    1       23.490 -20.328   3.365  0.00  0.00    +0.002 C 
BRANCH  17  19
ATOM     18  C   LIG    1       25.872 -19.871   4.157  0.00  0.00    +0.004 C 
ATOM     19  C   LIG    1       24.792 -20.922   3.926  0.00  0.00    -0.003 C 
ENDBRANCH  17  19
ENDBRANCH  16  17
ENDBRANCH  12  16
ENDBRANCH  11  12
ENDBRANCH   9  11
ENDBRANCH   1  10
BRANCH   2  20
ATOM     20  C   LIG    1       26.824 -13.699   3.459  0.00  0.00    +0.011 C 
BRANCH  20  21
ATOM     21  C   LIG    1       27.744 -14.918   3.310  0.00  0.00    +0.001 C 
BRANCH  21  22
ATOM     22  C   LIG    1       28.003 -15.659   4.633  0.00  0.00    +0.000 C 
BRANCH  22  23
ATOM     23  C   LIG    1       27.933 -17.181   4.500  0.00  0.00    +0.000 C 
BRANCH  23  24
ATOM     24  C   LIG    1       29.278 -17.855   4.816  0.00  0.00    +0.011 C 
BRANCH  24  25
ATOM     25  C   LIG    1       29.391 -18.346   6.265  0.00  0.00    +0.120 C 
BRANCH  25  26
ATOM     26  C   LIG    1       28.829 -19.740   6.542  0.00  0.00    +0.307 C 
ATOM     27  O   LIG    1       29.473 -20.750   6.380  0.00  0.00    -0.251 OA
BRANCH  26  28
ATOM     28  O   LIG    1       27.534 -19.681   6.967  0.00  0.00    -0.468 OA
ATOM     29  C   LIG    1       26.857 -20.930   7.059  0.00  0.00    +0.280 C 
ENDBRANCH  26  28
ENDBRANCH  25  26
ENDBRANCH  24  25
ENDBRANCH  23  24
ENDBRANCH  22  23
ENDBRANCH  21  22
ENDBRANCH  20  21
ENDBRANCH   2  20
TORSDOF 16
ENDMDL
MODEL 3
REMARK VINA RESULT:      -2.7      1.955      6.995
REMARK  Name = *****
REMARK                            x       y       z     vdW  Elec       q    Type
REMARK                         _______ _______ _______ _____ _____    ______ ____
ROOT
ATOM      1  C   LIG    1       26.938 -14.973   4.081  0.00  0.00    +0.050 C 
ATOM      2  C   LIG    1       25.634 -14.177   3.874  0.00  0.00    +0.065 C 
ATOM      3  C   LIG    1       25.916 -13.509   2.544  0.00  0.00    +0.140 C 
ATOM      4  O   LIG    1       25.045 -13.054   1.812  0.00  0.00    -0.297 OA
ATOM      5  C   LIG    1       27.384 -13.455   2.211  0.00  0.00    +0.106 C 
ATOM      6  C   LIG    1       28.033 -14.108   3.429  0.00  0.00    +0.129 C 
ENDROOT
BRANCH   6   7
ATOM      7  O   LIG    1       28.482 -13.102   4.333  0.00  0.00    -0.391 OA
ATOM      8  H   LIG    1       27.796 -12.989   5.015  0.00  0.00    +0.210 HD
ENDBRANCH   6   7
BRANCH   1  10
ATOM      9  C   LIG    1       26.024 -17.303   3.829  0.00  0.00    -0.028 C 
ATOM     10  C   LIG    1       26.849 -16.330   3.411  0.00  0.00    -0.024 C 
BRANCH   9  11
ATOM     11  C   LIG    1       25.875 -18.636   3.138  0.00  0.00    +0.061 C 
BRANCH  11  12
ATOM     12  C   LIG    1       25.540 -19.827   4.078  0.00  0.00    +0.067 C 
ATOM     13  C   LIG    1       24.713 -20.861   3.301  0.00  0.00    +0.041 C 
BRANCH  12  14
ATOM     14  O   LIG    1       24.706 -19.353   5.150  0.00  0.00    -0.389 OA
ATOM     15  H   LIG    1       23.871 -19.028   4.772  0.00  0.00    +0.210 HD
ENDBRANCH  12  14
BRANCH  12  16
ATOM     16  C   LIG    1       26.772 -20.480   4.755  0.00  0.00    +0.035 C 
BRANCH  16  17
ATOM     17  C   LIG    1       27.055 -20.058   6.205  0.00  0.00    +0.002 C 
BRANCH  17  19
ATOM     18  C   LIG    1       29.112 -18.666   5.616  0.00  0.00    +0.004 C 
ATOM     19  C   LIG    1       28.556 -19.823   6.440  0.00  0.00    -0.003 C 
ENDBRANCH  17  19
ENDBRANCH  16  17
ENDBRANCH  12  16
ENDBRANCH  11  12
ENDBRANCH   9  11
ENDBRANCH   1  10
BRANCH   2  20
ATOM     20  C   LIG    1       25.340 -13.081   4.908  0.00  0.00    +0.011 C 
BRANCH  20  21
ATOM     21  C   LIG    1       23.846 -12.796   5.106  0.00  0.00    +0.001 C 
BRANCH  21  22
ATOM     22  C   LIG    1       23.028 -14.040   5.494  0.00  0.00    +0.000 C 
BRANCH  22  23
ATOM     23  C   LIG    1       23.072 -15.148   4.440  0.00  0.00    +0.000 C 
BRANCH  23  24
ATOM     24  C   LIG    1       22.346 -16.421   4.903  0.00  0.00    +0.011 C 
BRANCH  24  25
ATOM     25  C   LIG    1       22.438 -17.577   3.900  0.00  0.00    +0.120 C 
BRANCH  25  26
ATOM     26  C   LIG    1       21.490 -18.751   4.145  0.00  0.00    +0.307 C 
ATOM     27  O   LIG    1       20.413 -18.847   3.605  0.00  0.00    -0.251 OA
BRANCH  26  28
ATOM     28  O   LIG    1       22.010 -19.633   5.047  0.00  0.00    -0.468 OA
ATOM     29  C   LIG    1       21.724 -21.006   4.802  0.00  0.00    +0.280 C 
ENDBRANCH  26  28
ENDBRANCH  25  26
ENDBRANCH  24  25
ENDBRANCH  23  24
ENDBRANCH  22  23
ENDBRANCH  21  22
ENDBRANCH  20  21
ENDBRANCH   2  20
TORSDOF 16
ENDMDL
MODEL 4
REMARK VINA RESULT:      -2.5      1.584      7.253
REMARK  Name = *****
REMARK                            x       y       z     vdW  Elec       q    Type
REMARK                         _______ _______ _______ _____ _____    ______ ____
ROOT
ATOM      1  C   LIG    1       27.382 -14.751   4.813  0.00  0.00    +0.050 C 
ATOM      2  C   LIG    1       26.098 -14.264   4.113  0.00  0.00    +0.065 C 
ATOM      3  C   LIG    1       26.668 -13.705   2.827  0.00  0.00    +0.140 C 
ATOM      4  O   LIG    1       26.007 -13.519   1.812  0.00  0.00    -0.297 OA
ATOM      5  C   LIG    1       28.139 -13.391   2.922  0.00  0.00    +0.106 C 
ATOM      6  C   LIG    1       28.473 -13.761   4.365  0.00  0.00    +0.129 C 
ENDROOT
BRANCH   6   7
ATOM      7  O   LIG    1       28.453 -12.591   5.178  0.00  0.00    -0.391 OA
ATOM      8  H   LIG    1       29.334 -12.496   5.582  0.00  0.00    +0.210 HD
ENDBRANCH   6   7
BRANCH   1  10
ATOM      9  C   LIG    1       28.556 -16.962   5.070  0.00  0.00    -0.028 C 
ATOM     10  C   LIG    1       27.724 -16.164   4.381  0.00  0.00    -0.024 C 
BRANCH   9  11
ATOM     11  C   LIG    1       28.858 -18.391   4.693  0.00  0.00    +0.061 C 
BRANCH  11  12
ATOM     12  C   LIG    1       28.620 -19.431   5.822  0.00  0.00    +0.067 C 
ATOM     13  C   LIG    1       29.439 -19.026   7.056  0.00  0.00    +0.041 C 
BRANCH  12  14
ATOM     14  O   LIG    1       29.124 -20.708   5.392  0.00  0.00    -0.389 OA
ATOM     15  H   LIG    1       30.095 -20.662   5.361  0.00  0.00    +0.210 HD
ENDBRANCH  12  14
BRANCH  12  16
ATOM     16  C   LIG    1       27.130 -19.662   6.182  0.00  0.00    +0.035 C 
BRANCH  16  17
ATOM     17  C   LIG    1       26.436 -20.840   5.482  0.00  0.00    +0.002 C 
BRANCH  17  19
ATOM     18  C   LIG    1       25.572 -18.903   4.064  0.00  0.00    +0.004 C 
ATOM     19  C   LIG    1       25.798 -20.408   4.153  0.00  0.00    -0.003 C 
ENDBRANCH  17  19
ENDBRANCH  16  17
ENDBRANCH  12  16
ENDBRANCH  11  12
ENDBRANCH   9  11
ENDBRANCH   1  10
BRANCH   2  20
ATOM     20  C   LIG    1       25.327 -13.142   4.823  0.00  0.00    +0.011 C 
BRANCH  20  21
ATOM     21  C   LIG    1       23.802 -13.259   4.697  0.00  0.00    +0.001 C 
BRANCH  21  22
ATOM     22  C   LIG    1       23.339 -14.544   3.989  0.00  0.00    +0.000 C 
BRANCH  22  23
ATOM     23  C   LIG    1       22.822 -15.614   4.952  0.00  0.00    +0.000 C 
BRANCH  23  24
ATOM     24  C   LIG    1       22.478 -16.928   4.232  0.00  0.00    +0.011 C 
BRANCH  24  25
ATOM     25  C   LIG    1       22.150 -18.082   5.187  0.00  0.00    +0.120 C 
BRANCH  25  26
ATOM     26  C   LIG    1       21.816 -19.420   4.528  0.00  0.00    +0.307 C 
ATOM     27  O   LIG    1       21.002 -19.528   3.641  0.00  0.00    -0.251 OA
BRANCH  26  28
ATOM     28  O   LIG    1       22.531 -20.441   5.081  0.00  0.00    -0.468 OA
ATOM     29  C   LIG    1       23.096 -20.177   6.360  0.00  0.00    +0.280 C 
ENDBRANCH  26  28
ENDBRANCH  25  26
ENDBRANCH  24  25
ENDBRANCH  23  24
ENDBRANCH  22  23
ENDBRANCH  21  22
ENDBRANCH  20  21
ENDBRANCH   2  20
TORSDOF 16
ENDMDL
MODEL 5
REMARK VINA RESULT:      -1.6      2.267      7.652
REMARK  Name = *****
REMARK                            x       y       z     vdW  Elec       q    Type
REMARK                         _______ _______ _______ _____ _____    ______ ____
ROOT
ATOM      1  C   LIG    1       26.508 -14.447   4.097  0.00  0.00    +0.050 C 
ATOM      2  C   LIG    1       27.069 -13.519   3.002  0.00  0.00    +0.065 C 
ATOM      3  C   LIG    1       28.439 -13.206   3.566  0.00  0.00    +0.140 C 
ATOM      4  O   LIG    1       29.374 -12.787   2.893  0.00  0.00    -0.297 OA
ATOM      5  C   LIG    1       28.537 -13.459   5.049  0.00  0.00    +0.106 C 
ATOM      6  C   LIG    1       27.130 -13.928   5.407  0.00  0.00    +0.129 C 
ENDROOT
BRANCH   6   7
ATOM      7  O   LIG    1       26.375 -12.835   5.923  0.00  0.00    -0.391 OA
ATOM      8  H   LIG    1       26.885 -12.441   6.653  0.00  0.00    +0.210 HD
ENDBRANCH   6   7
BRANCH   1  10
ATOM      9  C   LIG    1       26.029 -16.859   3.566  0.00  0.00    -0.028 C 
ATOM     10  C   LIG    1       26.913 -15.885   3.838  0.00  0.00    -0.024 C 
BRANCH   9  11
ATOM     11  C   LIG    1       26.416 -18.281   3.242  0.00  0.00    +0.061 C 
BRANCH  11  12
ATOM     12  C   LIG    1       25.535 -19.369   3.917  0.00  0.00    +0.067 C 
ATOM     13  C   LIG    1       24.957 -20.289   2.833  0.00  0.00    +0.041 C 
BRANCH  12  14
ATOM     14  O   LIG    1       24.416 -18.729   4.556  0.00  0.00    -0.389 OA
ATOM     15  H   LIG    1       24.331 -19.082   5.458  0.00  0.00    +0.210 HD
ENDBRANCH  12  14
BRANCH  12  16
ATOM     16  C   LIG    1       26.251 -20.181   5.027  0.00  0.00    +0.035 C 
BRANCH  16  17
ATOM     17  C   LIG    1       25.385 -20.609   6.222  0.00  0.00    +0.002 C 
BRANCH  17  19
ATOM     18  C   LIG    1       23.124 -21.571   6.909  0.00  0.00    +0.004 C 
ATOM     19  C   LIG    1       24.089 -21.293   5.761  0.00  0.00    -0.003 C 
ENDBRANCH  17  19
ENDBRANCH  16  17
ENDBRANCH  12  16
ENDBRANCH  11  12
ENDBRANCH   9  11
ENDBRANCH   1  10
BRANCH   2  20
ATOM     20  C   LIG    1       26.323 -12.193   2.794  0.00  0.00    +0.011 C 
BRANCH  20  21
ATOM     21  C   LIG    1       25.148 -12.286   1.812  0.00  0.00    +0.001 C 
BRANCH  21  22
ATOM     22  C   LIG    1       23.825 -12.709   2.474  0.00  0.00    +0.000 C 
BRANCH  22  23
ATOM     23  C   LIG    1       23.726 -12.302   3.945  0.00  0.00    +0.000 C 
BRANCH  23  24
ATOM     24  C   LIG    1       23.592 -13.517   4.877  0.00  0.00    +0.011 C 
BRANCH  24  25
ATOM     25  C   LIG    1       23.269 -14.822   4.138  0.00  0.00    +0.120 C 
BRANCH  25  26
ATOM     26  C   LIG    1       22.437 -15.841   4.916  0.00  0.00    +0.307 C 
ATOM     27  O   LIG    1       22.225 -15.746   6.102  0.00  0.00    -0.251 OA
BRANCH  26  28
ATOM     28  O   LIG    1       21.998 -16.849   4.107  0.00  0.00    -0.468 OA
ATOM     29  C   LIG    1       22.026 -18.153   4.676  0.00  0.00    +0.280 C 
ENDBRANCH  26  28
ENDBRANCH  25  26
ENDBRANCH  24  25
ENDBRANCH  23  24
ENDBRANCH  22  23
ENDBRANCH  21  22
ENDBRANCH  20  21
ENDBRANCH   2  20
TORSDOF 16
ENDMDL
MODEL 6
REMARK VINA RESULT:      -1.1      2.059      7.486
REMARK  Name = *****
REMARK                            x       y       z     vdW  Elec       q    Type
REMARK                         _______ _______ _______ _____ _____    ______ ____
ROOT
ATOM      1  C   LIG    1       26.056 -14.991   3.865  0.00  0.00    +0.050 C 
ATOM      2  C   LIG    1       26.452 -14.064   2.698  0.00  0.00    +0.065 C 
ATOM      3  C   LIG    1       27.872 -13.709   3.088  0.00  0.00    +0.140 C 
ATOM      4  O   LIG    1       28.706 -13.275   2.301  0.00  0.00    -0.297 OA
ATOM      5  C   LIG    1       28.157 -13.937   4.550  0.00  0.00    +0.106 C 
ATOM      6  C   LIG    1       26.817 -14.437   5.083  0.00  0.00    +0.129 C 
ENDROOT
BRANCH   6   7
ATOM      7  O   LIG    1       26.101 -13.357   5.675  0.00  0.00    -0.391 OA
ATOM      8  H   LIG    1       25.175 -13.640   5.783  0.00  0.00    +0.210 HD
ENDBRANCH   6   7
BRANCH   1  10
ATOM      9  C   LIG    1       25.620 -17.461   3.668  0.00  0.00    -0.028 C 
ATOM     10  C   LIG    1       26.465 -16.422   3.574  0.00  0.00    -0.024 C 
BRANCH   9  11
ATOM     11  C   LIG    1       25.990 -18.882   3.321  0.00  0.00    +0.061 C 
BRANCH  11  12
ATOM     12  C   LIG    1       25.715 -19.922   4.443  0.00  0.00    +0.067 C 
ATOM     13  C   LIG    1       26.970 -20.058   5.318  0.00  0.00    +0.041 C 
BRANCH  12  14
ATOM     14  O   LIG    1       25.493 -21.209   3.838  0.00  0.00    -0.389 OA
ATOM     15  H   LIG    1       26.338 -21.688   3.810  0.00  0.00    +0.210 HD
ENDBRANCH  12  14
BRANCH  12  16
ATOM     16  C   LIG    1       24.457 -19.630   5.298  0.00  0.00    +0.035 C 
BRANCH  16  17
ATOM     17  C   LIG    1       24.309 -20.445   6.592  0.00  0.00    +0.002 C 
BRANCH  17  19
ATOM     18  C   LIG    1       22.286 -21.298   5.292  0.00  0.00    +0.004 C 
ATOM     19  C   LIG    1       23.253 -21.552   6.443  0.00  0.00    -0.003 C 
ENDBRANCH  17  19
ENDBRANCH  16  17
ENDBRANCH  12  16
ENDBRANCH  11  12
ENDBRANCH   9  11
ENDBRANCH   1  10
BRANCH   2  20
ATOM     20  C   LIG    1       25.651 -12.761   2.569  0.00  0.00    +0.011 C 
BRANCH  20  21
ATOM     21  C   LIG    1       24.325 -12.767   3.341  0.00  0.00    +0.001 C 
BRANCH  21  22
ATOM     22  C   LIG    1       23.549 -14.090   3.222  0.00  0.00    +0.000 C 
BRANCH  22  23
ATOM     23  C   LIG    1       23.014 -14.602   4.560  0.00  0.00    +0.000 C 
BRANCH  23  24
ATOM     24  C   LIG    1       23.025 -16.136   4.643  0.00  0.00    +0.011 C 
BRANCH  24  25
ATOM     25  C   LIG    1       21.639 -16.768   4.467  0.00  0.00    +0.120 C 
BRANCH  25  26
ATOM     26  C   LIG    1       21.605 -18.111   3.737  0.00  0.00    +0.307 C 
ATOM     27  O   LIG    1       22.570 -18.577   3.178  0.00  0.00    -0.251 OA
BRANCH  26  28
ATOM     28  O   LIG    1       20.365 -18.678   3.791  0.00  0.00    -0.468 OA
ATOM     29  C   LIG    1       19.454 -18.264   2.779  0.00  0.00    +0.280 C 
ENDBRANCH  26  28
ENDBRANCH  25  26
ENDBRANCH  24  25
ENDBRANCH  23  24
ENDBRANCH  22  23
ENDBRANCH  21  22
ENDBRANCH  20  21
ENDBRANCH   2  20
TORSDOF 16
ENDMDL
