MODEL 1
REMARK VINA RESULT:      -4.2      0.000      0.000
REMARK  Name = *****
REMARK                            x       y       z     vdW  Elec       q    Type
REMARK                         _______ _______ _______ _____ _____    ______ ____
ROOT
ATOM      1  C   LIG    1       23.379 -20.386   5.027  0.00  0.00    +0.176 C 
ATOM      2  C   LIG    1       23.909 -19.859   3.700  0.00  0.00    +0.176 C 
ATOM      3  C   LIG    1       25.228 -19.108   3.911  0.00  0.00    +0.176 C 
ATOM      4  C   LIG    1       26.283 -20.013   4.568  0.00  0.00    +0.176 C 
ATOM      5  C   LIG    1       25.763 -20.584   5.895  0.00  0.00    +0.176 C 
ATOM      6  C   LIG    1       24.400 -21.266   5.750  0.00  0.00    +0.176 C 
ENDROOT
BRANCH   1   7
ATOM      7  O   LIG    1       22.205 -21.178   4.770  0.00  0.00    -0.387 OA
ATOM      8  H   LIG    1       22.524 -22.108   4.738  0.00  0.00    +0.210 HD
ENDBRANCH   1   7
BRANCH   2   9
ATOM      9  O   LIG    1       24.139 -20.955   2.793  0.00  0.00    -0.387 OA
ATOM     10  H   LIG    1       23.693 -20.685   1.966  0.00  0.00    +0.210 HD
ENDBRANCH   2   9
BRANCH   3  11
ATOM     11  O   LIG    1       25.734 -18.646   2.655  0.00  0.00    -0.387 OA
ATOM     12  H   LIG    1       26.550 -18.137   2.863  0.00  0.00    +0.210 HD
ENDBRANCH   3  11
BRANCH   4  13
ATOM     13  O   LIG    1       27.475 -19.269   4.854  0.00  0.00    -0.387 OA
ATOM     14  H   LIG    1       27.262 -18.323   4.776  0.00  0.00    +0.210 HD
ENDBRANCH   4  13
BRANCH   5  15
ATOM     15  O   LIG    1       26.659 -21.569   6.440  0.00  0.00    -0.387 OA
ATOM     16  H   LIG    1       27.541 -21.165   6.513  0.00  0.00    +0.210 HD
ENDBRANCH   5  15
BRANCH   6  17
ATOM     17  O   LIG    1       23.889 -21.571   7.062  0.00  0.00    -0.387 OA
ATOM     18  H   LIG    1       24.569 -22.145   7.472  0.00  0.00    +0.210 HD
ENDBRANCH   6  17
TORSDOF 6
ENDMDL
MODEL 2
REMARK VINA RESULT:      -4.0      1.147      3.341
REMARK  Name = *****
REMARK                            x       y       z     vdW  Elec       q    Type
REMARK                         _______ _______ _______ _____ _____    ______ ____
ROOT
ATOM      1  C   LIG    1       25.168 -19.641   3.477  0.00  0.00    +0.176 C 
ATOM      2  C   LIG    1       23.670 -19.411   3.621  0.00  0.00    +0.176 C 
ATOM      3  C   LIG    1       23.047 -20.484   4.520  0.00  0.00    +0.176 C 
ATOM      4  C   LIG    1       23.706 -20.494   5.910  0.00  0.00    +0.176 C 
ATOM      5  C   LIG    1       25.225 -20.693   5.793  0.00  0.00    +0.176 C 
ATOM      6  C   LIG    1       25.878 -19.698   4.830  0.00  0.00    +0.176 C 
ENDROOT
BRANCH   1   7
ATOM      7  O   LIG    1       25.729 -18.551   2.722  0.00  0.00    -0.387 OA
ATOM      8  H   LIG    1       25.682 -17.772   3.319  0.00  0.00    +0.210 HD
ENDBRANCH   1   7
BRANCH   2   9
ATOM      9  O   LIG    1       23.426 -18.117   4.205  0.00  0.00    -0.387 OA
ATOM     10  H   LIG    1       23.948 -18.119   5.031  0.00  0.00    +0.210 HD
ENDBRANCH   2   9
BRANCH   3  11
ATOM     11  O   LIG    1       21.646 -20.240   4.676  0.00  0.00    -0.387 OA
ATOM     12  H   LIG    1       21.475 -19.369   4.253  0.00  0.00    +0.210 HD
ENDBRANCH   3  11
BRANCH   4  13
ATOM     13  O   LIG    1       23.188 -21.568   6.704  0.00  0.00    -0.387 OA
ATOM     14  H   LIG    1       22.220 -21.469   6.745  0.00  0.00    +0.210 HD
ENDBRANCH   4  13
BRANCH   5  15
ATOM     15  O   LIG    1       25.883 -20.530   7.062  0.00  0.00    -0.387 OA
ATOM     16  H   LIG    1       25.621 -19.668   7.428  0.00  0.00    +0.210 HD
ENDBRANCH   5  15
BRANCH   6  17
ATOM     17  O   LIG    1       27.246 -20.092   4.610  0.00  0.00    -0.387 OA
ATOM     18  H   LIG    1       27.774 -19.284   4.780  0.00  0.00    +0.210 HD
ENDBRANCH   6  17
TORSDOF 6
ENDMDL
MODEL 3
REMARK VINA RESULT:      -3.9      0.800      3.124
REMARK  Name = *****
REMARK                            x       y       z     vdW  Elec       q    Type
REMARK                         _______ _______ _______ _____ _____    ______ ____
ROOT
ATOM      1  C   LIG    1       23.514 -21.234   4.794  0.00  0.00    +0.176 C 
ATOM      2  C   LIG    1       24.283 -21.450   6.091  0.00  0.00    +0.176 C 
ATOM      3  C   LIG    1       25.793 -21.401   5.833  0.00  0.00    +0.176 C 
ATOM      4  C   LIG    1       26.205 -20.059   5.204  0.00  0.00    +0.176 C 
ATOM      5  C   LIG    1       25.422 -19.799   3.909  0.00  0.00    +0.176 C 
ATOM      6  C   LIG    1       23.907 -19.929   4.099  0.00  0.00    +0.176 C 
ENDROOT
BRANCH   1   7
ATOM      7  O   LIG    1       22.109 -21.174   5.098  0.00  0.00    -0.387 OA
ATOM      8  H   LIG    1       21.857 -20.233   4.970  0.00  0.00    +0.210 HD
ENDBRANCH   1   7
BRANCH   2   9
ATOM      9  O   LIG    1       23.941 -20.424   7.042  0.00  0.00    -0.387 OA
ATOM     10  H   LIG    1       23.388 -20.881   7.706  0.00  0.00    +0.210 HD
ENDBRANCH   2   9
BRANCH   3  11
ATOM     11  O   LIG    1       26.506 -21.572   7.062  0.00  0.00    -0.387 OA
ATOM     12  H   LIG    1       27.460 -21.540   6.827  0.00  0.00    +0.210 HD
ENDBRANCH   3  11
BRANCH   4  13
ATOM     13  O   LIG    1       27.599 -20.066   4.873  0.00  0.00    -0.387 OA
ATOM     14  H   LIG    1       27.700 -19.652   3.998  0.00  0.00    +0.210 HD
ENDBRANCH   4  13
BRANCH   5  15
ATOM     15  O   LIG    1       25.659 -18.476   3.398  0.00  0.00    -0.387 OA
ATOM     16  H   LIG    1       25.425 -17.838   4.094  0.00  0.00    +0.210 HD
ENDBRANCH   5  15
BRANCH   6  17
ATOM     17  O   LIG    1       23.271 -19.893   2.807  0.00  0.00    -0.387 OA
ATOM     18  H   LIG    1       22.935 -20.802   2.665  0.00  0.00    +0.210 HD
ENDBRANCH   6  17
TORSDOF 6
ENDMDL
MODEL 4
REMARK VINA RESULT:      -3.7      1.242      3.080
REMARK  Name = *****
REMARK                            x       y       z     vdW  Elec       q    Type
REMARK                         _______ _______ _______ _____ _____    ______ ____
ROOT
ATOM      1  C   LIG    1       23.659 -21.171   5.623  0.00  0.00    +0.176 C 
ATOM      2  C   LIG    1       25.156 -21.005   5.845  0.00  0.00    +0.176 C 
ATOM      3  C   LIG    1       25.829 -20.462   4.580  0.00  0.00    +0.176 C 
ATOM      4  C   LIG    1       25.215 -19.116   4.159  0.00  0.00    +0.176 C 
ATOM      5  C   LIG    1       23.698 -19.246   3.958  0.00  0.00    +0.176 C 
ATOM      6  C   LIG    1       22.994 -19.871   5.166  0.00  0.00    +0.176 C 
ENDROOT
BRANCH   1   7
ATOM      7  O   LIG    1       23.052 -21.572   6.865  0.00  0.00    -0.387 OA
ATOM      8  H   LIG    1       22.946 -20.741   7.380  0.00  0.00    +0.210 HD
ENDBRANCH   1   7
BRANCH   2   9
ATOM      9  O   LIG    1       25.393 -20.085   6.928  0.00  0.00    -0.387 OA
ATOM     10  H   LIG    1       25.031 -19.234   6.610  0.00  0.00    +0.210 HD
ENDBRANCH   2   9
BRANCH   3  11
ATOM     11  O   LIG    1       27.229 -20.279   4.810  0.00  0.00    -0.387 OA
ATOM     12  H   LIG    1       27.309 -19.924   5.724  0.00  0.00    +0.210 HD
ENDBRANCH   3  11
BRANCH   4  13
ATOM     13  O   LIG    1       25.781 -18.672   2.920  0.00  0.00    -0.387 OA
ATOM     14  H   LIG    1       25.980 -17.723   3.006  0.00  0.00    +0.210 HD
ENDBRANCH   4  13
BRANCH   5  15
ATOM     15  O   LIG    1       23.078 -17.967   3.737  0.00  0.00    -0.387 OA
ATOM     16  H   LIG    1       22.389 -18.081   3.059  0.00  0.00    +0.210 HD
ENDBRANCH   5  15
BRANCH   6  17
ATOM     17  O   LIG    1       21.628 -20.160   4.811  0.00  0.00    -0.387 OA
ATOM     18  H   LIG    1       21.480 -19.687   3.965  0.00  0.00    +0.210 HD
ENDBRANCH   6  17
TORSDOF 6
ENDMDL
MODEL 5
REMARK VINA RESULT:      -3.2      5.194      6.754
REMARK  Name = *****
REMARK                            x       y       z     vdW  Elec       q    Type
REMARK                         _______ _______ _______ _____ _____    ______ ____
ROOT
ATOM      1  C   LIG    1       24.922 -13.113   4.029  0.00  0.00    +0.176 C 
ATOM      2  C   LIG    1       26.297 -12.689   3.531  0.00  0.00    +0.176 C 
ATOM      3  C   LIG    1       27.366 -13.685   3.993  0.00  0.00    +0.176 C 
ATOM      4  C   LIG    1       27.051 -15.106   3.496  0.00  0.00    +0.176 C 
ATOM      5  C   LIG    1       25.655 -15.550   3.958  0.00  0.00    +0.176 C 
ATOM      6  C   LIG    1       24.565 -14.536   3.597  0.00  0.00    +0.176 C 
ENDROOT
BRANCH   1   7
ATOM      7  O   LIG    1       23.938 -12.218   3.480  0.00  0.00    -0.387 OA
ATOM      8  H   LIG    1       23.330 -12.014   4.224  0.00  0.00    +0.210 HD
ENDBRANCH   1   7
BRANCH   2   9
ATOM      9  O   LIG    1       26.303 -12.636   2.091  0.00  0.00    -0.387 OA
ATOM     10  H   LIG    1       26.709 -13.482   1.817  0.00  0.00    +0.210 HD
ENDBRANCH   2   9
BRANCH   3  11
ATOM     11  O   LIG    1       28.648 -13.296   3.493  0.00  0.00    -0.387 OA
ATOM     12  H   LIG    1       28.639 -13.507   2.532  0.00  0.00    +0.210 HD
ENDBRANCH   3  11
BRANCH   4  13
ATOM     13  O   LIG    1       27.999 -16.044   4.021  0.00  0.00    -0.387 OA
ATOM     14  H   LIG    1       27.782 -16.194   4.958  0.00  0.00    +0.210 HD
ENDBRANCH   4  13
BRANCH   5  15
ATOM     15  O   LIG    1       25.267 -16.800   3.361  0.00  0.00    -0.387 OA
ATOM     16  H   LIG    1       24.732 -17.289   4.009  0.00  0.00    +0.210 HD
ENDBRANCH   5  15
BRANCH   6  17
ATOM     17  O   LIG    1       23.340 -14.916   4.254  0.00  0.00    -0.387 OA
ATOM     18  H   LIG    1       22.630 -14.695   3.616  0.00  0.00    +0.210 HD
ENDBRANCH   6  17
TORSDOF 6
ENDMDL
MODEL 6
REMARK VINA RESULT:      -3.2      1.084      3.303
REMARK  Name = *****
REMARK                            x       y       z     vdW  Elec       q    Type
REMARK                         _______ _______ _______ _____ _____    ______ ____
ROOT
ATOM      1  C   LIG    1       23.787 -19.946   3.729  0.00  0.00    +0.176 C 
ATOM      2  C   LIG    1       23.013 -20.311   4.989  0.00  0.00    +0.176 C 
ATOM      3  C   LIG    1       23.835 -21.261   5.866  0.00  0.00    +0.176 C 
ATOM      4  C   LIG    1       25.185 -20.634   6.250  0.00  0.00    +0.176 C 
ATOM      5  C   LIG    1       25.975 -20.227   4.997  0.00  0.00    +0.176 C 
ATOM      6  C   LIG    1       25.159 -19.349   4.045  0.00  0.00    +0.176 C 
ENDROOT
BRANCH   1   7
ATOM      7  O   LIG    1       23.031 -18.968   2.993  0.00  0.00    -0.387 OA
ATOM      8  H   LIG    1       23.588 -18.742   2.215  0.00  0.00    +0.210 HD
ENDBRANCH   1   7
BRANCH   2   9
ATOM      9  O   LIG    1       22.717 -19.121   5.745  0.00  0.00    -0.387 OA
ATOM     10  H   LIG    1       21.805 -19.257   6.067  0.00  0.00    +0.210 HD
ENDBRANCH   2   9
BRANCH   3  11
ATOM     11  O   LIG    1       23.114 -21.571   7.062  0.00  0.00    -0.387 OA
ATOM     12  H   LIG    1       23.794 -21.774   7.743  0.00  0.00    +0.210 HD
ENDBRANCH   3  11
BRANCH   4  13
ATOM     13  O   LIG    1       25.986 -21.572   6.981  0.00  0.00    -0.387 OA
ATOM     14  H   LIG    1       26.608 -21.984   6.356  0.00  0.00    +0.210 HD
ENDBRANCH   4  13
BRANCH   5  15
ATOM     15  O   LIG    1       27.159 -19.481   5.331  0.00  0.00    -0.387 OA
ATOM     16  H   LIG    1       26.947 -18.534   5.261  0.00  0.00    +0.210 HD
ENDBRANCH   5  15
BRANCH   6  17
ATOM     17  O   LIG    1       25.886 -19.202   2.809  0.00  0.00    -0.387 OA
ATOM     18  H   LIG    1       25.294 -18.681   2.227  0.00  0.00    +0.210 HD
ENDBRANCH   6  17
TORSDOF 6
ENDMDL
MODEL 7
REMARK VINA RESULT:      -3.1      5.640      7.678
REMARK  Name = *****
REMARK                            x       y       z     vdW  Elec       q    Type
REMARK                         _______ _______ _______ _____ _____    ______ ____
ROOT
ATOM      1  C   LIG    1       28.221 -13.923   3.977  0.00  0.00    +0.176 C 
ATOM      2  C   LIG    1       27.411 -14.783   3.017  0.00  0.00    +0.176 C 
ATOM      3  C   LIG    1       26.142 -15.300   3.701  0.00  0.00    +0.176 C 
ATOM      4  C   LIG    1       25.274 -14.138   4.214  0.00  0.00    +0.176 C 
ATOM      5  C   LIG    1       26.076 -13.235   5.163  0.00  0.00    +0.176 C 
ATOM      6  C   LIG    1       27.401 -12.767   4.552  0.00  0.00    +0.176 C 
ENDROOT
BRANCH   1   7
ATOM      7  O   LIG    1       29.340 -13.366   3.263  0.00  0.00    -0.387 OA
ATOM      8  H   LIG    1       28.957 -12.981   2.443  0.00  0.00    +0.210 HD
ENDBRANCH   1   7
BRANCH   2   9
ATOM      9  O   LIG    1       27.032 -14.007   1.863  0.00  0.00    -0.387 OA
ATOM     10  H   LIG    1       26.531 -14.631   1.302  0.00  0.00    +0.210 HD
ENDBRANCH   2   9
BRANCH   3  11
ATOM     11  O   LIG    1       25.371 -16.079   2.781  0.00  0.00    -0.387 OA
ATOM     12  H   LIG    1       25.716 -15.860   1.886  0.00  0.00    +0.210 HD
ENDBRANCH   3  11
BRANCH   4  13
ATOM     13  O   LIG    1       24.145 -14.637   4.943  0.00  0.00    -0.387 OA
ATOM     14  H   LIG    1       23.870 -13.948   5.573  0.00  0.00    +0.210 HD
ENDBRANCH   4  13
BRANCH   5  15
ATOM     15  O   LIG    1       25.345 -12.048   5.516  0.00  0.00    -0.387 OA
ATOM     16  H   LIG    1       25.950 -11.289   5.444  0.00  0.00    +0.210 HD
ENDBRANCH   5  15
BRANCH   6  17
ATOM     17  O   LIG    1       28.182 -12.120   5.575  0.00  0.00    -0.387 OA
ATOM     18  H   LIG    1       28.335 -11.211   5.241  0.00  0.00    +0.210 HD
ENDBRANCH   6  17
TORSDOF 6
ENDMDL
MODEL 8
REMARK VINA RESULT:      -2.9      6.582      7.897
REMARK  Name = *****
REMARK                            x       y       z     vdW  Elec       q    Type
REMARK                         _______ _______ _______ _____ _____    ______ ____
ROOT
ATOM      1  C   LIG    1       26.117 -14.173   2.747  0.00  0.00    +0.176 C 
ATOM      2  C   LIG    1       25.293 -13.006   2.220  0.00  0.00    +0.176 C 
ATOM      3  C   LIG    1       24.224 -12.601   3.240  0.00  0.00    +0.176 C 
ATOM      4  C   LIG    1       24.860 -12.220   4.588  0.00  0.00    +0.176 C 
ATOM      5  C   LIG    1       25.724 -13.368   5.129  0.00  0.00    +0.176 C 
ATOM      6  C   LIG    1       26.748 -13.869   4.107  0.00  0.00    +0.176 C 
ENDROOT
BRANCH   1   7
ATOM      7  O   LIG    1       27.177 -14.446   1.812  0.00  0.00    -0.387 OA
ATOM      8  H   LIG    1       26.848 -15.188   1.258  0.00  0.00    +0.210 HD
ENDBRANCH   1   7
BRANCH   2   9
ATOM      9  O   LIG    1       26.149 -11.874   1.969  0.00  0.00    -0.387 OA
ATOM     10  H   LIG    1       26.960 -12.262   1.586  0.00  0.00    +0.210 HD
ENDBRANCH   2   9
BRANCH   3  11
ATOM     11  O   LIG    1       23.478 -11.483   2.750  0.00  0.00    -0.387 OA
ATOM     12  H   LIG    1       23.998 -11.119   1.999  0.00  0.00    +0.210 HD
ENDBRANCH   3  11
BRANCH   4  13
ATOM     13  O   LIG    1       23.846 -11.944   5.562  0.00  0.00    -0.387 OA
ATOM     14  H   LIG    1       23.195 -12.667   5.528  0.00  0.00    +0.210 HD
ENDBRANCH   4  13
BRANCH   5  15
ATOM     15  O   LIG    1       26.467 -12.974   6.296  0.00  0.00    -0.387 OA
ATOM     16  H   LIG    1       27.263 -12.500   5.999  0.00  0.00    +0.210 HD
ENDBRANCH   5  15
BRANCH   6  17
ATOM     17  O   LIG    1       27.354 -15.076   4.607  0.00  0.00    -0.387 OA
ATOM     18  H   LIG    1       27.353 -14.976   5.582  0.00  0.00    +0.210 HD
ENDBRANCH   6  17
TORSDOF 6
ENDMDL
MODEL 9
REMARK VINA RESULT:      -2.8      6.124      7.543
REMARK  Name = *****
REMARK                            x       y       z     vdW  Elec       q    Type
REMARK                         _______ _______ _______ _____ _____    ______ ____
ROOT
ATOM      1  C   LIG    1       24.970 -13.219   2.634  0.00  0.00    +0.176 C 
ATOM      2  C   LIG    1       25.923 -14.388   2.845  0.00  0.00    +0.176 C 
ATOM      3  C   LIG    1       27.085 -13.975   3.754  0.00  0.00    +0.176 C 
ATOM      4  C   LIG    1       26.574 -13.470   5.114  0.00  0.00    +0.176 C 
ATOM      5  C   LIG    1       25.585 -12.309   4.930  0.00  0.00    +0.176 C 
ATOM      6  C   LIG    1       24.453 -12.647   3.955  0.00  0.00    +0.176 C 
ENDROOT
BRANCH   1   7
ATOM      7  O   LIG    1       23.839 -13.681   1.872  0.00  0.00    -0.387 OA
ATOM      8  H   LIG    1       24.164 -14.467   1.379  0.00  0.00    +0.210 HD
ENDBRANCH   1   7
BRANCH   2   9
ATOM      9  O   LIG    1       25.222 -15.488   3.459  0.00  0.00    -0.387 OA
ATOM     10  H   LIG    1       25.373 -16.241   2.855  0.00  0.00    +0.210 HD
ENDBRANCH   2   9
BRANCH   3  11
ATOM     11  O   LIG    1       27.956 -15.088   3.974  0.00  0.00    -0.387 OA
ATOM     12  H   LIG    1       27.384 -15.888   3.949  0.00  0.00    +0.210 HD
ENDBRANCH   3  11
BRANCH   4  13
ATOM     13  O   LIG    1       27.662 -12.989   5.914  0.00  0.00    -0.387 OA
ATOM     14  H   LIG    1       28.234 -12.446   5.343  0.00  0.00    +0.210 HD
ENDBRANCH   4  13
BRANCH   5  15
ATOM     15  O   LIG    1       24.960 -11.938   6.171  0.00  0.00    -0.387 OA
ATOM     16  H   LIG    1       25.540 -11.297   6.619  0.00  0.00    +0.210 HD
ENDBRANCH   5  15
BRANCH   6  17
ATOM     17  O   LIG    1       23.709 -11.447   3.670  0.00  0.00    -0.387 OA
ATOM     18  H   LIG    1       23.405 -11.551   2.745  0.00  0.00    +0.210 HD
ENDBRANCH   6  17
TORSDOF 6
ENDMDL
