MODEL 1
REMARK VINA RESULT:      33.6      0.000      0.000
REMARK  Name = *****
REMARK                            x       y       z     vdW  Elec       q    Type
REMARK                         _______ _______ _______ _____ _____    ______ ____
ROOT
ATOM      1  C   LIG    1       21.256 -16.478   5.674  0.00  0.00    +0.034 A 
ATOM      2  C   LIG    1       22.464 -15.815   5.439  0.00  0.00    +0.031 A 
ATOM      3  C   LIG    1       22.610 -14.453   5.734  0.00  0.00    -0.023 A 
ATOM      4  C   LIG    1       21.528 -13.727   6.234  0.00  0.00    +0.008 A 
ATOM      5  C   LIG    1       20.322 -14.370   6.471  0.00  0.00    +0.002 A 
ATOM      6  C   LIG    1       20.186 -15.739   6.191  0.00  0.00    +0.023 A 
ENDROOT
BRANCH   1   8
ATOM      7  C   LIG    1       21.124 -18.452   4.119  0.00  0.00    +0.218 C 
ATOM      8  N   LIG    1       21.217 -17.863   5.344  0.00  0.00    -0.285 N 
ATOM      9  H   LIG    1       21.242 -18.488   6.157  0.00  0.00    +0.155 HD
ATOM     10  O   LIG    1       20.945 -17.829   3.058  0.00  0.00    -0.275 OA
BRANCH   7  11
ATOM     11  C   LIG    1       21.220 -20.004   4.062  0.00  0.00    +0.114 C 
BRANCH  11  12
ATOM     12  C   LIG    1       22.608 -20.684   4.328  0.00  0.00    +0.075 C 
BRANCH  12  14
ATOM     13  C   LIG    1       23.257 -20.984   6.895  0.00  0.00    +0.005 C 
ATOM     14  C   LIG    1       22.627 -21.569   5.630  0.00  0.00    +0.015 C 
ENDBRANCH  12  14
BRANCH  12  15
ATOM     15  C   LIG    1       23.686 -19.596   4.506  0.00  0.00    +0.311 C 
ATOM     16  O   LIG    1       24.671 -19.729   5.198  0.00  0.00    -0.250 OA
BRANCH  15  17
ATOM     17  O   LIG    1       23.484 -18.454   3.811  0.00  0.00    -0.480 OA
ATOM     18  H   LIG    1       22.805 -18.473   3.117  0.00  0.00    +0.295 HD
ENDBRANCH  15  17
ENDBRANCH  12  15
BRANCH  12  19
ATOM     19  C   LIG    1       22.959 -21.572   3.095  0.00  0.00    +0.015 C 
ATOM     20  C   LIG    1       23.994 -21.000   2.124  0.00  0.00    +0.005 C 
ENDBRANCH  12  19
ENDBRANCH  11  12
ENDBRANCH   7  11
ENDBRANCH   1   8
BRANCH   3  21
ATOM     21  C   LIG    1       23.852 -13.728   5.504  0.00  0.00    +0.010 C 
ATOM     22  C   LIG    1       25.002 -13.961   6.152  0.00  0.00    +0.035 C 
BRANCH  22  23
ATOM     23  C   LIG    1       26.152 -13.165   5.909  0.00  0.00    +0.101 A 
ATOM     24  S   LIG    1       26.535 -11.804   6.922  0.00  0.00    -0.076 S 
ATOM     25  C   LIG    1       27.887 -11.458   5.953  0.00  0.00    +0.070 A 
ATOM     26  C   LIG    1       27.998 -12.401   4.960  0.00  0.00    +0.052 A 
ATOM     27  N   LIG    1       27.036 -13.389   4.958  0.00  0.00    -0.244 NA
BRANCH  26  28
ATOM     28  C   LIG    1       29.110 -12.357   3.931  0.00  0.00    +0.038 C 
ATOM     29  C   LIG    1       29.075 -13.554   2.937  0.00  0.00    +0.010 C 
ATOM     30  C   LIG    1       29.460 -12.561   1.827  0.00  0.00    +0.001 C 
ATOM     31  C   LIG    1       28.824 -11.461   2.694  0.00  0.00    +0.010 C 
ENDBRANCH  26  28
ENDBRANCH  22  23
ENDBRANCH   3  21
TORSDOF 10
ENDMDL
