MODEL 1
REMARK VINA RESULT:      -6.0      0.000      0.000
REMARK  Name = *****
REMARK                            x       y       z     vdW  Elec       q    Type
REMARK                         _______ _______ _______ _____ _____    ______ ____
ROOT
ATOM      1  C   LIG    1       26.047 -26.364   6.360  0.00  0.00    +0.169 C 
ATOM      2  C   LIG    1       26.256 -26.975   4.911  0.00  0.00    +0.084 C 
ATOM      3  C   LIG    1       25.360 -28.225   4.655  0.00  0.00    +0.042 C 
ATOM      4  C   LIG    1       24.267 -28.347   5.726  0.00  0.00    +0.084 C 
ATOM      5  C   LIG    1       24.968 -28.606   7.097  0.00  0.00    +0.169 C 
ATOM      6  C   LIG    1       26.124 -27.575   7.320  0.00  0.00    +0.175 C 
ENDROOT
BRANCH   2   7
ATOM      7  N   LIG    1       27.663 -27.327   4.623  0.00  0.00    -0.325 NA
ATOM      8  H   LIG    1       28.282 -26.819   5.260  0.00  0.00    +0.118 HD
ATOM      9  H   LIG    1       27.941 -27.011   3.694  0.00  0.00    +0.118 HD
ENDBRANCH   2   7
BRANCH   4  10
ATOM     10  N   LIG    1       23.238 -29.321   5.355  0.00  0.00    -0.325 NA
ATOM     11  H   LIG    1       23.612 -29.944   4.636  0.00  0.00    +0.118 HD
ATOM     12  H   LIG    1       23.000 -29.908   6.160  0.00  0.00    +0.118 HD
ENDBRANCH   4  10
BRANCH   6  13
ATOM     13  O   LIG    1       26.227 -27.189   8.692  0.00  0.00    -0.387 OA
ATOM     14  H   LIG    1       25.998 -26.245   8.739  0.00  0.00    +0.210 HD
ENDBRANCH   6  13
BRANCH   1  15
ATOM     15  O   LIG    1       24.799 -25.623   6.359  0.00  0.00    -0.342 OA
BRANCH  15  18
ATOM     16  C   LIG    1       26.148 -22.717   6.706  0.00  0.00    +0.138 C 
ATOM     17  O   LIG    1       25.813 -23.813   7.606  0.00  0.00    -0.345 OA
ATOM     18  C   LIG    1       24.609 -24.557   7.310  0.00  0.00    +0.268 C 
ATOM     19  C   LIG    1       23.537 -23.536   6.773  0.00  0.00    +0.107 C 
ATOM     20  C   LIG    1       24.003 -23.004   5.406  0.00  0.00    +0.026 C 
ATOM     21  C   LIG    1       25.532 -22.955   5.320  0.00  0.00    +0.035 C 
BRANCH  19  22
ATOM     22  N   LIG    1       22.106 -23.848   6.758  0.00  0.00    -0.323 NA
ATOM     23  H   LIG    1       21.907 -24.672   6.239  0.00  0.00    +0.119 HD
ATOM     24  H   LIG    1       21.561 -23.067   6.372  0.00  0.00    +0.119 HD
ENDBRANCH  19  22
BRANCH  16  25
ATOM     25  C   LIG    1       25.792 -21.275   7.283  0.00  0.00    +0.079 C 
ATOM     26  C   LIG    1       25.750 -20.225   6.160  0.00  0.00    +0.026 C 
BRANCH  25  28
ATOM     27  C   LIG    1       27.957 -20.288   7.870  0.00  0.00    +0.101 C 
ATOM     28  N   LIG    1       26.715 -20.881   8.368  0.00  0.00    -0.314 NA
ATOM     29  H   LIG    1       26.229 -20.193   8.949  0.00  0.00    +0.122 HD
ENDBRANCH  25  28
ENDBRANCH  16  25
ENDBRANCH  15  18
ENDBRANCH   1  15
BRANCH   5  30
ATOM     30  O   LIG    1       25.614 -29.901   7.151  0.00  0.00    -0.341 OA
BRANCH  30  31
ATOM     31  C   LIG    1       24.901 -30.951   7.834  0.00  0.00    +0.281 C 
ATOM     32  C   LIG    1       25.913 -31.533   8.855  0.00  0.00    +0.190 C 
ATOM     33  C   LIG    1       25.972 -30.529  10.031  0.00  0.00    +0.121 C 
ATOM     34  C   LIG    1       24.537 -30.505  10.689  0.00  0.00    +0.104 C 
ATOM     35  C   LIG    1       24.199 -29.109  11.217  0.00  0.00    +0.045 C 
ATOM     36  C   LIG    1       23.445 -30.961   9.695  0.00  0.00    +0.199 C 
ATOM     37  O   LIG    1       23.697 -30.443   8.396  0.00  0.00    -0.346 OA
BRANCH  33  38
ATOM     38  N   LIG    1       27.014 -30.759  11.076  0.00  0.00    -0.311 NA
ATOM     39  H   LIG    1       26.533 -30.886  11.969  0.00  0.00    +0.122 HD
ATOM     40  C   LIG    1       27.894 -29.598  11.237  0.00  0.00    +0.101 C 
ENDBRANCH  33  38
BRANCH  32  41
ATOM     41  O   LIG    1       27.155 -31.746   8.165  0.00  0.00    -0.385 OA
ATOM     42  H   LIG    1       27.422 -30.864   7.842  0.00  0.00    +0.210 HD
ENDBRANCH  32  41
BRANCH  34  43
ATOM     43  O   LIG    1       24.499 -31.399  11.815  0.00  0.00    -0.385 OA
ATOM     44  H   LIG    1       24.360 -30.822  12.597  0.00  0.00    +0.210 HD
ENDBRANCH  34  43
ENDBRANCH  30  31
ENDBRANCH   5  30
TORSDOF 13
ENDMDL
MODEL 2
REMARK VINA RESULT:      -5.4      2.382      4.670
REMARK  Name = *****
REMARK                            x       y       z     vdW  Elec       q    Type
REMARK                         _______ _______ _______ _____ _____    ______ ____
ROOT
ATOM      1  C   LIG    1       26.144 -30.460   8.469  0.00  0.00    +0.169 C 
ATOM      2  C   LIG    1       26.571 -31.944   8.102  0.00  0.00    +0.084 C 
ATOM      3  C   LIG    1       25.350 -32.846   7.748  0.00  0.00    +0.042 C 
ATOM      4  C   LIG    1       24.091 -32.001   7.514  0.00  0.00    +0.084 C 
ATOM      5  C   LIG    1       23.723 -31.306   8.862  0.00  0.00    +0.169 C 
ATOM      6  C   LIG    1       24.985 -30.617   9.480  0.00  0.00    +0.175 C 
ENDROOT
BRANCH   2   7
ATOM      7  N   LIG    1       27.363 -32.603   9.163  0.00  0.00    -0.325 NA
ATOM      8  H   LIG    1       27.670 -33.524   8.842  0.00  0.00    +0.118 HD
ATOM      9  H   LIG    1       26.790 -32.799   9.984  0.00  0.00    +0.118 HD
ENDBRANCH   2   7
BRANCH   4  10
ATOM     10  N   LIG    1       23.013 -32.776   6.894  0.00  0.00    -0.325 NA
ATOM     11  H   LIG    1       23.145 -32.781   5.881  0.00  0.00    +0.118 HD
ATOM     12  H   LIG    1       23.058 -33.751   7.203  0.00  0.00    +0.118 HD
ENDBRANCH   4  10
BRANCH   6  13
ATOM     13  O   LIG    1       24.647 -29.389  10.130  0.00  0.00    -0.387 OA
ATOM     14  H   LIG    1       25.431 -28.816  10.078  0.00  0.00    +0.210 HD
ENDBRANCH   6  13
BRANCH   1  15
ATOM     15  O   LIG    1       25.831 -29.766   7.234  0.00  0.00    -0.342 OA
BRANCH  15  18
ATOM     16  C   LIG    1       26.175 -26.633   6.559  0.00  0.00    +0.138 C 
ATOM     17  O   LIG    1       25.546 -27.394   7.629  0.00  0.00    -0.345 OA
ATOM     18  C   LIG    1       24.923 -28.648   7.263  0.00  0.00    +0.268 C 
ATOM     19  C   LIG    1       24.257 -28.453   5.848  0.00  0.00    +0.107 C 
ATOM     20  C   LIG    1       25.368 -28.258   4.801  0.00  0.00    +0.026 C 
ATOM     21  C   LIG    1       26.592 -27.565   5.412  0.00  0.00    +0.035 C 
BRANCH  19  22
ATOM     22  N   LIG    1       23.215 -29.354   5.350  0.00  0.00    -0.323 NA
ATOM     23  H   LIG    1       22.343 -29.207   5.805  0.00  0.00    +0.119 HD
ATOM     24  H   LIG    1       23.492 -30.337   5.461  0.00  0.00    +0.119 HD
ENDBRANCH  19  22
BRANCH  16  25
ATOM     25  C   LIG    1       25.305 -25.401   6.044  0.00  0.00    +0.079 C 
ATOM     26  C   LIG    1       25.921 -24.064   6.492  0.00  0.00    +0.026 C 
BRANCH  25  28
ATOM     27  C   LIG    1       23.254 -24.224   6.688  0.00  0.00    +0.101 C 
ATOM     28  N   LIG    1       23.893 -25.521   6.463  0.00  0.00    -0.314 NA
ATOM     29  H   LIG    1       23.393 -26.012   5.717  0.00  0.00    +0.122 HD
ENDBRANCH  25  28
ENDBRANCH  16  25
ENDBRANCH  15  18
ENDBRANCH   1  15
BRANCH   5  30
ATOM     30  O   LIG    1       23.289 -32.252   9.870  0.00  0.00    -0.341 OA
BRANCH  30  31
ATOM     31  C   LIG    1       21.900 -32.198  10.251  0.00  0.00    +0.281 C 
ATOM     32  C   LIG    1       21.871 -32.622  11.743  0.00  0.00    +0.190 C 
ATOM     33  C   LIG    1       22.351 -31.394  12.554  0.00  0.00    +0.121 C 
ATOM     34  C   LIG    1       21.291 -30.247  12.326  0.00  0.00    +0.104 C 
ATOM     35  C   LIG    1       21.963 -28.873  12.317  0.00  0.00    +0.045 C 
ATOM     36  C   LIG    1       20.506 -30.448  11.010  0.00  0.00    +0.199 C 
ATOM     37  O   LIG    1       21.364 -30.909   9.976  0.00  0.00    -0.346 OA
BRANCH  33  38
ATOM     38  N   LIG    1       22.592 -31.591  14.015  0.00  0.00    -0.311 NA
ATOM     39  H   LIG    1       22.011 -30.915  14.517  0.00  0.00    +0.122 HD
ATOM     40  C   LIG    1       23.981 -31.305  14.385  0.00  0.00    +0.101 C 
ENDBRANCH  33  38
BRANCH  32  41
ATOM     41  O   LIG    1       22.677 -33.802  11.877  0.00  0.00    -0.385 OA
ATOM     42  H   LIG    1       22.043 -34.544  11.902  0.00  0.00    +0.210 HD
ENDBRANCH  32  41
BRANCH  34  43
ATOM     43  O   LIG    1       20.338 -30.240  13.403  0.00  0.00    -0.385 OA
ATOM     44  H   LIG    1       19.576 -29.718  13.069  0.00  0.00    +0.210 HD
ENDBRANCH  34  43
ENDBRANCH  30  31
ENDBRANCH   5  30
TORSDOF 13
ENDMDL
MODEL 3
REMARK VINA RESULT:      -5.1      1.309      2.131
REMARK  Name = *****
REMARK                            x       y       z     vdW  Elec       q    Type
REMARK                         _______ _______ _______ _____ _____    ______ ____
ROOT
ATOM      1  C   LIG    1       26.458 -26.265   6.495  0.00  0.00    +0.169 C 
ATOM      2  C   LIG    1       26.666 -26.811   5.020  0.00  0.00    +0.084 C 
ATOM      3  C   LIG    1       25.596 -27.873   4.620  0.00  0.00    +0.042 C 
ATOM      4  C   LIG    1       24.425 -27.875   5.612  0.00  0.00    +0.084 C 
ATOM      5  C   LIG    1       24.974 -28.333   7.000  0.00  0.00    +0.169 C 
ATOM      6  C   LIG    1       26.266 -27.529   7.366  0.00  0.00    +0.175 C 
ENDROOT
BRANCH   2   7
ATOM      7  N   LIG    1       28.013 -27.378   4.792  0.00  0.00    -0.325 NA
ATOM      8  H   LIG    1       27.930 -28.287   4.332  0.00  0.00    +0.118 HD
ATOM      9  H   LIG    1       28.483 -27.581   5.674  0.00  0.00    +0.118 HD
ENDBRANCH   2   7
BRANCH   4  10
ATOM     10  N   LIG    1       23.278 -28.635   5.109  0.00  0.00    -0.325 NA
ATOM     11  H   LIG    1       23.301 -29.575   5.508  0.00  0.00    +0.118 HD
ATOM     12  H   LIG    1       22.405 -28.202   5.421  0.00  0.00    +0.118 HD
ENDBRANCH   4  10
BRANCH   6  13
ATOM     13  O   LIG    1       26.333 -27.252   8.767  0.00  0.00    -0.387 OA
ATOM     14  H   LIG    1       26.822 -27.985   9.177  0.00  0.00    +0.210 HD
ENDBRANCH   6  13
BRANCH   1  15
ATOM     15  O   LIG    1       25.353 -25.324   6.474  0.00  0.00    -0.342 OA
BRANCH  15  18
ATOM     16  C   LIG    1       23.225 -23.085   5.556  0.00  0.00    +0.138 C 
ATOM     17  O   LIG    1       24.303 -23.813   4.901  0.00  0.00    -0.345 OA
ATOM     18  C   LIG    1       25.470 -24.114   5.700  0.00  0.00    +0.268 C 
ATOM     19  C   LIG    1       25.725 -22.885   6.652  0.00  0.00    +0.107 C 
ATOM     20  C   LIG    1       24.575 -22.802   7.671  0.00  0.00    +0.026 C 
ATOM     21  C   LIG    1       23.263 -23.322   7.072  0.00  0.00    +0.035 C 
BRANCH  19  22
ATOM     22  N   LIG    1       27.020 -22.659   7.299  0.00  0.00    -0.323 NA
ATOM     23  H   LIG    1       27.528 -23.505   7.426  0.00  0.00    +0.119 HD
ATOM     24  H   LIG    1       26.904 -22.197   8.209  0.00  0.00    +0.119 HD
ENDBRANCH  19  22
BRANCH  16  25
ATOM     25  C   LIG    1       23.177 -21.535   5.191  0.00  0.00    +0.079 C 
ATOM     26  C   LIG    1       21.726 -21.050   5.026  0.00  0.00    +0.026 C 
BRANCH  25  28
ATOM     27  C   LIG    1       25.054 -20.259   4.266  0.00  0.00    +0.101 C 
ATOM     28  N   LIG    1       23.995 -21.232   3.997  0.00  0.00    -0.314 NA
ATOM     29  H   LIG    1       24.421 -22.109   3.688  0.00  0.00    +0.122 HD
ENDBRANCH  25  28
ENDBRANCH  16  25
ENDBRANCH  15  18
ENDBRANCH   1  15
BRANCH   5  30
ATOM     30  O   LIG    1       25.391 -29.720   6.997  0.00  0.00    -0.341 OA
BRANCH  30  31
ATOM     31  C   LIG    1       24.553 -30.649   7.712  0.00  0.00    +0.281 C 
ATOM     32  C   LIG    1       25.521 -31.465   8.607  0.00  0.00    +0.190 C 
ATOM     33  C   LIG    1       25.880 -30.554   9.805  0.00  0.00    +0.121 C 
ATOM     34  C   LIG    1       24.544 -30.291  10.602  0.00  0.00    +0.104 C 
ATOM     35  C   LIG    1       24.532 -28.886  11.208  0.00  0.00    +0.045 C 
ATOM     36  C   LIG    1       23.298 -30.478   9.707  0.00  0.00    +0.199 C 
ATOM     37  O   LIG    1       23.527 -29.950   8.407  0.00  0.00    -0.346 OA
BRANCH  33  38
ATOM     38  N   LIG    1       26.948 -31.032  10.733  0.00  0.00    -0.311 NA
ATOM     39  H   LIG    1       26.497 -31.306  11.608  0.00  0.00    +0.122 HD
ATOM     40  C   LIG    1       27.900 -29.968  11.069  0.00  0.00    +0.101 C 
ENDBRANCH  33  38
BRANCH  32  41
ATOM     41  O   LIG    1       26.629 -31.875   7.791  0.00  0.00    -0.385 OA
ATOM     42  H   LIG    1       26.507 -31.409   6.941  0.00  0.00    +0.210 HD
ENDBRANCH  32  41
BRANCH  34  43
ATOM     43  O   LIG    1       24.434 -31.219  11.696  0.00  0.00    -0.385 OA
ATOM     44  H   LIG    1       25.354 -31.353  12.012  0.00  0.00    +0.210 HD
ENDBRANCH  34  43
ENDBRANCH  30  31
ENDBRANCH   5  30
TORSDOF 13
ENDMDL
MODEL 4
REMARK VINA RESULT:      -4.8      4.826      8.621
REMARK  Name = *****
REMARK                            x       y       z     vdW  Elec       q    Type
REMARK                         _______ _______ _______ _____ _____    ______ ____
ROOT
ATOM      1  C   LIG    1       23.130 -29.703  11.291  0.00  0.00    +0.169 C 
ATOM      2  C   LIG    1       23.598 -28.968  12.617  0.00  0.00    +0.084 C 
ATOM      3  C   LIG    1       23.535 -29.896  13.868  0.00  0.00    +0.042 C 
ATOM      4  C   LIG    1       23.365 -31.364  13.456  0.00  0.00    +0.084 C 
ATOM      5  C   LIG    1       21.977 -31.508  12.756  0.00  0.00    +0.169 C 
ATOM      6  C   LIG    1       21.800 -30.398  11.667  0.00  0.00    +0.175 C 
ENDROOT
BRANCH   2   7
ATOM      7  N   LIG    1       22.837 -27.731  12.898  0.00  0.00    -0.325 NA
ATOM      8  H   LIG    1       22.537 -27.727  13.876  0.00  0.00    +0.118 HD
ATOM      9  H   LIG    1       21.968 -27.702  12.366  0.00  0.00    +0.118 HD
ENDBRANCH   2   7
BRANCH   4  10
ATOM     10  N   LIG    1       23.601 -32.281  14.573  0.00  0.00    -0.325 NA
ATOM     11  H   LIG    1       24.305 -31.878  15.193  0.00  0.00    +0.118 HD
ATOM     12  H   LIG    1       22.747 -32.390  15.127  0.00  0.00    +0.118 HD
ENDBRANCH   4  10
BRANCH   6  13
ATOM     13  O   LIG    1       21.089 -30.888  10.528  0.00  0.00    -0.387 OA
ATOM     14  H   LIG    1       21.691 -30.819   9.768  0.00  0.00    +0.210 HD
ENDBRANCH   6  13
BRANCH   1  15
ATOM     15  O   LIG    1       24.208 -30.571  10.855  0.00  0.00    -0.342 OA
BRANCH  15  18
ATOM     16  C   LIG    1       24.272 -29.698   7.753  0.00  0.00    +0.138 C 
ATOM     17  O   LIG    1       23.424 -30.560   8.565  0.00  0.00    -0.345 OA
ATOM     18  C   LIG    1       24.069 -31.306   9.623  0.00  0.00    +0.268 C 
ATOM     19  C   LIG    1       25.485 -31.752   9.096  0.00  0.00    +0.107 C 
ATOM     20  C   LIG    1       26.364 -30.501   8.918  0.00  0.00    +0.026 C 
ATOM     21  C   LIG    1       25.520 -29.278   8.543  0.00  0.00    +0.035 C 
BRANCH  19  22
ATOM     22  N   LIG    1       26.238 -32.842   9.722  0.00  0.00    -0.323 NA
ATOM     23  H   LIG    1       27.124 -32.981   9.291  0.00  0.00    +0.119 HD
ATOM     24  H   LIG    1       25.708 -33.722   9.694  0.00  0.00    +0.119 HD
ENDBRANCH  19  22
BRANCH  16  25
ATOM     25  C   LIG    1       24.641 -30.309   6.329  0.00  0.00    +0.079 C 
ATOM     26  C   LIG    1       25.141 -29.215   5.370  0.00  0.00    +0.026 C 
BRANCH  25  28
ATOM     27  C   LIG    1       23.735 -32.512   5.751  0.00  0.00    +0.101 C 
ATOM     28  N   LIG    1       23.509 -31.066   5.753  0.00  0.00    -0.314 NA
ATOM     29  H   LIG    1       22.683 -30.860   6.321  0.00  0.00    +0.122 HD
ENDBRANCH  25  28
ENDBRANCH  16  25
ENDBRANCH  15  18
ENDBRANCH   1  15
BRANCH   5  30
ATOM     30  O   LIG    1       20.874 -31.304  13.673  0.00  0.00    -0.341 OA
BRANCH  30  31
ATOM     31  C   LIG    1       19.879 -32.345  13.728  0.00  0.00    +0.281 C 
ATOM     32  C   LIG    1       18.623 -31.676  14.347  0.00  0.00    +0.190 C 
ATOM     33  C   LIG    1       17.976 -30.837  13.219  0.00  0.00    +0.121 C 
ATOM     34  C   LIG    1       17.518 -31.848  12.097  0.00  0.00    +0.104 C 
ATOM     35  C   LIG    1       17.655 -31.224  10.707  0.00  0.00    +0.045 C 
ATOM     36  C   LIG    1       18.320 -33.167  12.154  0.00  0.00    +0.199 C 
ATOM     37  O   LIG    1       19.689 -32.913  12.438  0.00  0.00    -0.346 OA
BRANCH  33  38
ATOM     38  N   LIG    1       16.844 -29.939  13.597  0.00  0.00    -0.311 NA
ATOM     39  H   LIG    1       16.338 -29.702  12.741  0.00  0.00    +0.122 HD
ATOM     40  C   LIG    1       17.315 -28.673  14.168  0.00  0.00    +0.101 C 
ENDBRANCH  33  38
BRANCH  32  41
ATOM     41  O   LIG    1       19.048 -30.933  15.500  0.00  0.00    -0.385 OA
ATOM     42  H   LIG    1       18.240 -30.499  15.837  0.00  0.00    +0.210 HD
ENDBRANCH  32  41
BRANCH  34  43
ATOM     43  O   LIG    1       16.129 -32.178  12.272  0.00  0.00    -0.385 OA
ATOM     44  H   LIG    1       15.646 -31.602  11.640  0.00  0.00    +0.210 HD
ENDBRANCH  34  43
ENDBRANCH  30  31
ENDBRANCH   5  30
TORSDOF 13
ENDMDL
MODEL 5
REMARK VINA RESULT:      -4.8      2.070      2.870
REMARK  Name = *****
REMARK                            x       y       z     vdW  Elec       q    Type
REMARK                         _______ _______ _______ _____ _____    ______ ____
ROOT
ATOM      1  C   LIG    1       26.620 -26.119   6.831  0.00  0.00    +0.169 C 
ATOM      2  C   LIG    1       26.902 -26.436   5.302  0.00  0.00    +0.084 C 
ATOM      3  C   LIG    1       25.756 -27.263   4.643  0.00  0.00    +0.042 C 
ATOM      4  C   LIG    1       24.504 -27.272   5.529  0.00  0.00    +0.084 C 
ATOM      5  C   LIG    1       24.858 -28.024   6.851  0.00  0.00    +0.169 C 
ATOM      6  C   LIG    1       26.195 -27.473   7.448  0.00  0.00    +0.175 C 
ENDROOT
BRANCH   2   7
ATOM      7  N   LIG    1       28.187 -27.133   5.077  0.00  0.00    -0.325 NA
ATOM      8  H   LIG    1       28.104 -27.756   4.271  0.00  0.00    +0.118 HD
ATOM      9  H   LIG    1       28.413 -27.752   5.855  0.00  0.00    +0.118 HD
ENDBRANCH   2   7
BRANCH   4  10
ATOM     10  N   LIG    1       23.328 -27.778   4.817  0.00  0.00    -0.325 NA
ATOM     11  H   LIG    1       22.839 -26.993   4.381  0.00  0.00    +0.118 HD
ATOM     12  H   LIG    1       23.615 -28.404   4.061  0.00  0.00    +0.118 HD
ENDBRANCH   4  10
BRANCH   6  13
ATOM     13  O   LIG    1       26.161 -27.444   8.877  0.00  0.00    -0.387 OA
ATOM     14  H   LIG    1       25.794 -28.296   9.169  0.00  0.00    +0.210 HD
ENDBRANCH   6  13
BRANCH   1  15
ATOM     15  O   LIG    1       25.643 -25.049   6.895  0.00  0.00    -0.342 OA
BRANCH  15  18
ATOM     16  C   LIG    1       23.614 -22.855   5.686  0.00  0.00    +0.138 C 
ATOM     17  O   LIG    1       24.753 -23.602   5.169  0.00  0.00    -0.345 OA
ATOM     18  C   LIG    1       25.835 -23.868   6.092  0.00  0.00    +0.268 C 
ATOM     19  C   LIG    1       25.993 -22.603   7.017  0.00  0.00    +0.107 C 
ATOM     20  C   LIG    1       24.747 -22.487   7.913  0.00  0.00    +0.026 C 
ATOM     21  C   LIG    1       23.502 -23.035   7.206  0.00  0.00    +0.035 C 
BRANCH  19  22
ATOM     22  N   LIG    1       27.217 -22.347   7.780  0.00  0.00    -0.323 NA
ATOM     23  H   LIG    1       27.070 -21.695   8.516  0.00  0.00    +0.119 HD
ATOM     24  H   LIG    1       27.968 -22.001   7.170  0.00  0.00    +0.119 HD
ENDBRANCH  19  22
BRANCH  16  25
ATOM     25  C   LIG    1       23.601 -21.320   5.260  0.00  0.00    +0.079 C 
ATOM     26  C   LIG    1       22.165 -20.826   5.014  0.00  0.00    +0.026 C 
BRANCH  25  28
ATOM     27  C   LIG    1       25.478 -20.039   4.340  0.00  0.00    +0.101 C 
ATOM     28  N   LIG    1       24.473 -21.074   4.091  0.00  0.00    -0.314 NA
ATOM     29  H   LIG    1       24.948 -21.953   3.874  0.00  0.00    +0.122 HD
ENDBRANCH  25  28
ENDBRANCH  16  25
ENDBRANCH  15  18
ENDBRANCH   1  15
BRANCH   5  30
ATOM     30  O   LIG    1       25.105 -29.435   6.634  0.00  0.00    -0.341 OA
BRANCH  30  31
ATOM     31  C   LIG    1       24.038 -30.339   6.981  0.00  0.00    +0.281 C 
ATOM     32  C   LIG    1       24.487 -31.724   6.446  0.00  0.00    +0.190 C 
ATOM     33  C   LIG    1       25.539 -32.257   7.448  0.00  0.00    +0.121 C 
ATOM     34  C   LIG    1       24.801 -32.456   8.829  0.00  0.00    +0.104 C 
ATOM     35  C   LIG    1       25.739 -32.160  10.001  0.00  0.00    +0.045 C 
ATOM     36  C   LIG    1       23.541 -31.567   8.938  0.00  0.00    +0.199 C 
ATOM     37  O   LIG    1       23.781 -30.283   8.379  0.00  0.00    -0.346 OA
BRANCH  33  38
ATOM     38  N   LIG    1       26.272 -33.503   7.072  0.00  0.00    -0.311 NA
ATOM     39  H   LIG    1       26.325 -34.094   7.905  0.00  0.00    +0.122 HD
ATOM     40  C   LIG    1       27.654 -33.225   6.669  0.00  0.00    +0.101 C 
ENDBRANCH  33  38
BRANCH  32  41
ATOM     41  O   LIG    1       24.956 -31.541   5.101  0.00  0.00    -0.385 OA
ATOM     42  H   LIG    1       24.238 -31.880   4.532  0.00  0.00    +0.210 HD
ENDBRANCH  32  41
BRANCH  34  43
ATOM     43  O   LIG    1       24.379 -33.824   8.967  0.00  0.00    -0.385 OA
ATOM     44  H   LIG    1       23.446 -33.777   9.271  0.00  0.00    +0.210 HD
ENDBRANCH  34  43
ENDBRANCH  30  31
ENDBRANCH   5  30
TORSDOF 13
ENDMDL
MODEL 6
REMARK VINA RESULT:      -4.7      5.209      8.891
REMARK  Name = *****
REMARK                            x       y       z     vdW  Elec       q    Type
REMARK                         _______ _______ _______ _____ _____    ______ ____
ROOT
ATOM      1  C   LIG    1       22.170 -31.271  12.415  0.00  0.00    +0.169 C 
ATOM      2  C   LIG    1       23.520 -31.874  12.990  0.00  0.00    +0.084 C 
ATOM      3  C   LIG    1       24.779 -31.100  12.493  0.00  0.00    +0.042 C 
ATOM      4  C   LIG    1       24.385 -29.761  11.855  0.00  0.00    +0.084 C 
ATOM      5  C   LIG    1       23.548 -30.068  10.574  0.00  0.00    +0.169 C 
ATOM      6  C   LIG    1       22.421 -31.105  10.897  0.00  0.00    +0.175 C 
ENDROOT
BRANCH   2   7
ATOM      7  N   LIG    1       23.692 -33.312  12.691  0.00  0.00    -0.325 NA
ATOM      8  H   LIG    1       23.256 -33.531  11.792  0.00  0.00    +0.118 HD
ATOM      9  H   LIG    1       23.192 -33.892  13.364  0.00  0.00    +0.118 HD
ENDBRANCH   2   7
BRANCH   4  10
ATOM     10  N   LIG    1       25.542 -28.886  11.652  0.00  0.00    -0.325 NA
ATOM     11  H   LIG    1       25.849 -28.958  10.680  0.00  0.00    +0.118 HD
ATOM     12  H   LIG    1       25.277 -27.909  11.806  0.00  0.00    +0.118 HD
ENDBRANCH   4  10
BRANCH   6  13
ATOM     13  O   LIG    1       21.225 -30.827  10.165  0.00  0.00    -0.387 OA
ATOM     14  H   LIG    1       20.904 -29.960  10.465  0.00  0.00    +0.210 HD
ENDBRANCH   6  13
BRANCH   1  15
ATOM     15  O   LIG    1       21.869 -30.059  13.153  0.00  0.00    -0.342 OA
BRANCH  15  18
ATOM     16  C   LIG    1       18.784 -30.637  13.885  0.00  0.00    +0.138 C 
ATOM     17  O   LIG    1       19.498 -30.213  12.689  0.00  0.00    -0.345 OA
ATOM     18  C   LIG    1       20.644 -29.351  12.881  0.00  0.00    +0.268 C 
ATOM     19  C   LIG    1       20.308 -28.370  14.067  0.00  0.00    +0.107 C 
ATOM     20  C   LIG    1       20.219 -29.183  15.370  0.00  0.00    +0.026 C 
ATOM     21  C   LIG    1       19.717 -30.607  15.104  0.00  0.00    +0.035 C 
BRANCH  19  22
ATOM     22  N   LIG    1       21.045 -27.121  14.273  0.00  0.00    -0.323 NA
ATOM     23  H   LIG    1       20.517 -26.456  14.791  0.00  0.00    +0.119 HD
ATOM     24  H   LIG    1       21.326 -26.704  13.377  0.00  0.00    +0.119 HD
ENDBRANCH  19  22
BRANCH  16  25
ATOM     25  C   LIG    1       17.430 -29.839  14.147  0.00  0.00    +0.079 C 
ATOM     26  C   LIG    1       16.762 -30.298  15.454  0.00  0.00    +0.026 C 
BRANCH  25  28
ATOM     27  C   LIG    1       16.234 -31.328  12.609  0.00  0.00    +0.101 C 
ATOM     28  N   LIG    1       16.508 -29.943  12.995  0.00  0.00    -0.314 NA
ATOM     29  H   LIG    1       15.630 -29.494  13.264  0.00  0.00    +0.122 HD
ENDBRANCH  25  28
ENDBRANCH  16  25
ENDBRANCH  15  18
ENDBRANCH   1  15
BRANCH   5  30
ATOM     30  O   LIG    1       24.339 -30.696   9.536  0.00  0.00    -0.341 OA
BRANCH  30  31
ATOM     31  C   LIG    1       24.580 -29.918   8.347  0.00  0.00    +0.281 C 
ATOM     32  C   LIG    1       26.035 -30.253   7.928  0.00  0.00    +0.190 C 
ATOM     33  C   LIG    1       25.984 -31.644   7.252  0.00  0.00    +0.121 C 
ATOM     34  C   LIG    1       25.099 -31.495   5.954  0.00  0.00    +0.104 C 
ATOM     35  C   LIG    1       24.303 -32.773   5.682  0.00  0.00    +0.045 C 
ATOM     36  C   LIG    1       24.131 -30.295   6.058  0.00  0.00    +0.199 C 
ATOM     37  O   LIG    1       23.587 -30.197   7.367  0.00  0.00    -0.346 OA
BRANCH  33  38
ATOM     38  N   LIG    1       27.289 -32.290   6.915  0.00  0.00    -0.311 NA
ATOM     39  H   LIG    1       27.237 -32.599   5.942  0.00  0.00    +0.122 HD
ATOM     40  C   LIG    1       27.532 -33.488   7.723  0.00  0.00    +0.101 C 
ENDBRANCH  33  38
BRANCH  32  41
ATOM     41  O   LIG    1       26.857 -30.169   9.102  0.00  0.00    -0.385 OA
ATOM     42  H   LIG    1       26.538 -29.380   9.583  0.00  0.00    +0.210 HD
ENDBRANCH  32  41
BRANCH  34  43
ATOM     43  O   LIG    1       25.941 -31.275   4.809  0.00  0.00    -0.385 OA
ATOM     44  H   LIG    1       25.477 -31.710   4.061  0.00  0.00    +0.210 HD
ENDBRANCH  34  43
ENDBRANCH  30  31
ENDBRANCH   5  30
TORSDOF 13
ENDMDL
MODEL 7
REMARK VINA RESULT:      -4.4      4.968      8.541
REMARK  Name = *****
REMARK                            x       y       z     vdW  Elec       q    Type
REMARK                         _______ _______ _______ _____ _____    ______ ____
ROOT
ATOM      1  C   LIG    1       23.146 -32.078  13.249  0.00  0.00    +0.169 C 
ATOM      2  C   LIG    1       24.238 -32.408  14.351  0.00  0.00    +0.084 C 
ATOM      3  C   LIG    1       25.501 -31.502  14.230  0.00  0.00    +0.042 C 
ATOM      4  C   LIG    1       25.234 -30.306  13.305  0.00  0.00    +0.084 C 
ATOM      5  C   LIG    1       24.976 -30.860  11.869  0.00  0.00    +0.169 C 
ATOM      6  C   LIG    1       23.928 -32.022  11.915  0.00  0.00    +0.175 C 
ENDROOT
BRANCH   2   7
ATOM      7  N   LIG    1       24.663 -33.825  14.346  0.00  0.00    -0.325 NA
ATOM      8  H   LIG    1       24.163 -34.331  13.612  0.00  0.00    +0.118 HD
ATOM      9  H   LIG    1       24.391 -34.295  15.209  0.00  0.00    +0.118 HD
ENDBRANCH   2   7
BRANCH   4  10
ATOM     10  N   LIG    1       26.282 -29.287  13.404  0.00  0.00    -0.325 NA
ATOM     11  H   LIG    1       26.698 -29.147  12.482  0.00  0.00    +0.118 HD
ATOM     12  H   LIG    1       25.877 -28.391  13.686  0.00  0.00    +0.118 HD
ENDBRANCH   4  10
BRANCH   6  13
ATOM     13  O   LIG    1       23.071 -32.003  10.771  0.00  0.00    -0.387 OA
ATOM     14  H   LIG    1       22.651 -31.126  10.746  0.00  0.00    +0.210 HD
ENDBRANCH   6  13
BRANCH   1  15
ATOM     15  O   LIG    1       22.462 -30.861  13.645  0.00  0.00    -0.342 OA
BRANCH  15  18
ATOM     16  C   LIG    1       20.270 -28.769  14.742  0.00  0.00    +0.138 C 
ATOM     17  O   LIG    1       20.370 -30.220  14.681  0.00  0.00    -0.345 OA
ATOM     18  C   LIG    1       21.028 -30.784  13.523  0.00  0.00    +0.268 C 
ATOM     19  C   LIG    1       20.637 -29.903  12.277  0.00  0.00    +0.107 C 
ATOM     20  C   LIG    1       21.271 -28.510  12.438  0.00  0.00    +0.026 C 
ATOM     21  C   LIG    1       21.390 -28.120  13.915  0.00  0.00    +0.035 C 
BRANCH  19  22
ATOM     22  N   LIG    1       20.779 -30.392  10.904  0.00  0.00    -0.323 NA
ATOM     23  H   LIG    1       21.398 -29.828  10.367  0.00  0.00    +0.119 HD
ATOM     24  H   LIG    1       19.869 -30.438  10.431  0.00  0.00    +0.119 HD
ENDBRANCH  19  22
BRANCH  16  25
ATOM     25  C   LIG    1       18.832 -28.203  14.352  0.00  0.00    +0.079 C 
ATOM     26  C   LIG    1       18.720 -26.704  14.679  0.00  0.00    +0.026 C 
BRANCH  25  28
ATOM     27  C   LIG    1       16.939 -29.725  14.021  0.00  0.00    +0.101 C 
ATOM     28  N   LIG    1       17.751 -28.985  14.989  0.00  0.00    -0.314 NA
ATOM     29  H   LIG    1       18.191 -29.650  15.630  0.00  0.00    +0.122 HD
ENDBRANCH  25  28
ENDBRANCH  16  25
ENDBRANCH  15  18
ENDBRANCH   1  15
BRANCH   5  30
ATOM     30  O   LIG    1       26.161 -31.456  11.286  0.00  0.00    -0.341 OA
BRANCH  30  31
ATOM     31  C   LIG    1       26.875 -30.661  10.320  0.00  0.00    +0.281 C 
ATOM     32  C   LIG    1       27.009 -31.565   9.067  0.00  0.00    +0.190 C 
ATOM     33  C   LIG    1       25.630 -31.544   8.366  0.00  0.00    +0.121 C 
ATOM     34  C   LIG    1       25.371 -30.059   7.900  0.00  0.00    +0.104 C 
ATOM     35  C   LIG    1       23.883 -29.710   7.980  0.00  0.00    +0.045 C 
ATOM     36  C   LIG    1       26.186 -29.047   8.737  0.00  0.00    +0.199 C 
ATOM     37  O   LIG    1       26.203 -29.425  10.107  0.00  0.00    -0.346 OA
BRANCH  33  38
ATOM     38  N   LIG    1       25.429 -32.485   7.223  0.00  0.00    -0.311 NA
ATOM     39  H   LIG    1       25.078 -31.940   6.432  0.00  0.00    +0.122 HD
ATOM     40  C   LIG    1       24.409 -33.497   7.518  0.00  0.00    +0.101 C 
ENDBRANCH  33  38
BRANCH  32  41
ATOM     41  O   LIG    1       27.457 -32.856   9.507  0.00  0.00    -0.385 OA
ATOM     42  H   LIG    1       28.422 -32.859   9.354  0.00  0.00    +0.210 HD
ENDBRANCH  32  41
BRANCH  34  43
ATOM     43  O   LIG    1       25.764 -29.900   6.526  0.00  0.00    -0.385 OA
ATOM     44  H   LIG    1       26.676 -29.538   6.559  0.00  0.00    +0.210 HD
ENDBRANCH  34  43
ENDBRANCH  30  31
ENDBRANCH   5  30
TORSDOF 13
ENDMDL
MODEL 8
REMARK VINA RESULT:      -4.3      5.007      7.685
REMARK  Name = *****
REMARK                            x       y       z     vdW  Elec       q    Type
REMARK                         _______ _______ _______ _____ _____    ______ ____
ROOT
ATOM      1  C   LIG    1       25.155 -31.605   9.601  0.00  0.00    +0.169 C 
ATOM      2  C   LIG    1       24.271 -32.834  10.078  0.00  0.00    +0.084 C 
ATOM      3  C   LIG    1       23.007 -32.387  10.875  0.00  0.00    +0.042 C 
ATOM      4  C   LIG    1       22.756 -30.883  10.708  0.00  0.00    +0.084 C 
ATOM      5  C   LIG    1       23.953 -30.121  11.359  0.00  0.00    +0.169 C 
ATOM      6  C   LIG    1       25.311 -30.715  10.856  0.00  0.00    +0.175 C 
ENDROOT
BRANCH   2   7
ATOM      7  N   LIG    1       25.025 -33.816  10.887  0.00  0.00    -0.325 NA
ATOM      8  H   LIG    1       25.960 -33.452  11.087  0.00  0.00    +0.118 HD
ATOM      9  H   LIG    1       25.194 -34.675  10.363  0.00  0.00    +0.118 HD
ENDBRANCH   2   7
BRANCH   4  10
ATOM     10  N   LIG    1       21.429 -30.489  11.188  0.00  0.00    -0.325 NA
ATOM     11  H   LIG    1       20.719 -30.889  10.571  0.00  0.00    +0.118 HD
ATOM     12  H   LIG    1       21.261 -30.876  12.120  0.00  0.00    +0.118 HD
ENDBRANCH   4  10
BRANCH   6  13
ATOM     13  O   LIG    1       26.301 -29.696  10.693  0.00  0.00    -0.387 OA
ATOM     14  H   LIG    1       27.060 -30.108  10.245  0.00  0.00    +0.210 HD
ENDBRANCH   6  13
BRANCH   1  15
ATOM     15  O   LIG    1       24.497 -30.997   8.459  0.00  0.00    -0.342 OA
BRANCH  15  18
ATOM     16  C   LIG    1       25.923 -32.950   6.328  0.00  0.00    +0.138 C 
ATOM     17  O   LIG    1       26.301 -31.724   7.017  0.00  0.00    -0.345 OA
ATOM     18  C   LIG    1       25.252 -30.756   7.255  0.00  0.00    +0.268 C 
ATOM     19  C   LIG    1       24.296 -30.773   6.003  0.00  0.00    +0.107 C 
ATOM     20  C   LIG    1       23.565 -32.126   5.957  0.00  0.00    +0.026 C 
ATOM     21  C   LIG    1       24.432 -33.246   6.543  0.00  0.00    +0.035 C 
BRANCH  19  22
ATOM     22  N   LIG    1       23.379 -29.668   5.712  0.00  0.00    -0.323 NA
ATOM     23  H   LIG    1       23.850 -28.793   5.662  0.00  0.00    +0.119 HD
ATOM     24  H   LIG    1       22.635 -29.609   6.417  0.00  0.00    +0.119 HD
ENDBRANCH  19  22
BRANCH  16  25
ATOM     25  C   LIG    1       26.325 -32.976   4.787  0.00  0.00    +0.079 C 
ATOM     26  C   LIG    1       25.333 -33.823   3.971  0.00  0.00    +0.026 C 
BRANCH  25  28
ATOM     27  C   LIG    1       28.378 -33.783   5.855  0.00  0.00    +0.101 C 
ATOM     28  N   LIG    1       27.719 -33.431   4.597  0.00  0.00    -0.314 NA
ATOM     29  H   LIG    1       27.692 -34.257   3.994  0.00  0.00    +0.122 HD
ENDBRANCH  25  28
ENDBRANCH  16  25
ENDBRANCH  15  18
ENDBRANCH   1  15
BRANCH   5  30
ATOM     30  O   LIG    1       23.991 -30.281  12.798  0.00  0.00    -0.341 OA
BRANCH  30  31
ATOM     31  C   LIG    1       23.710 -29.108  13.586  0.00  0.00    +0.281 C 
ATOM     32  C   LIG    1       24.732 -29.145  14.752  0.00  0.00    +0.190 C 
ATOM     33  C   LIG    1       26.083 -28.674  14.162  0.00  0.00    +0.121 C 
ATOM     34  C   LIG    1       25.888 -27.177  13.700  0.00  0.00    +0.104 C 
ATOM     35  C   LIG    1       26.720 -26.875  12.452  0.00  0.00    +0.045 C 
ATOM     36  C   LIG    1       24.403 -26.854  13.422  0.00  0.00    +0.199 C 
ATOM     37  O   LIG    1       23.763 -27.943  12.770  0.00  0.00    -0.346 OA
BRANCH  33  38
ATOM     38  N   LIG    1       27.290 -28.790  15.036  0.00  0.00    -0.311 NA
ATOM     39  H   LIG    1       27.706 -27.860  15.112  0.00  0.00    +0.122 HD
ATOM     40  C   LIG    1       28.313 -29.658  14.445  0.00  0.00    +0.101 C 
ENDBRANCH  33  38
BRANCH  32  41
ATOM     41  O   LIG    1       24.728 -30.475  15.293  0.00  0.00    -0.385 OA
ATOM     42  H   LIG    1       24.370 -30.382  16.198  0.00  0.00    +0.210 HD
ENDBRANCH  32  41
BRANCH  34  43
ATOM     43  O   LIG    1       26.341 -26.283  14.731  0.00  0.00    -0.385 OA
ATOM     44  H   LIG    1       26.414 -25.405  14.296  0.00  0.00    +0.210 HD
ENDBRANCH  34  43
ENDBRANCH  30  31
ENDBRANCH   5  30
TORSDOF 13
ENDMDL
MODEL 9
REMARK VINA RESULT:      -4.3      2.690      4.133
REMARK  Name = *****
REMARK                            x       y       z     vdW  Elec       q    Type
REMARK                         _______ _______ _______ _____ _____    ______ ____
ROOT
ATOM      1  C   LIG    1       24.345 -23.131   6.394  0.00  0.00    +0.169 C 
ATOM      2  C   LIG    1       25.875 -23.411   6.706  0.00  0.00    +0.084 C 
ATOM      3  C   LIG    1       26.378 -24.746   6.079  0.00  0.00    +0.042 C 
ATOM      4  C   LIG    1       25.377 -25.280   5.045  0.00  0.00    +0.084 C 
ATOM      5  C   LIG    1       24.058 -25.640   5.797  0.00  0.00    +0.169 C 
ATOM      6  C   LIG    1       23.620 -24.458   6.724  0.00  0.00    +0.175 C 
ENDROOT
BRANCH   2   7
ATOM      7  N   LIG    1       26.184 -23.415   8.153  0.00  0.00    -0.325 NA
ATOM      8  H   LIG    1       25.637 -22.690   8.624  0.00  0.00    +0.118 HD
ATOM      9  H   LIG    1       27.155 -23.153   8.325  0.00  0.00    +0.118 HD
ENDBRANCH   2   7
BRANCH   4  10
ATOM     10  N   LIG    1       25.947 -26.355   4.229  0.00  0.00    -0.325 NA
ATOM     11  H   LIG    1       26.714 -25.978   3.669  0.00  0.00    +0.118 HD
ATOM     12  H   LIG    1       26.348 -27.080   4.830  0.00  0.00    +0.118 HD
ENDBRANCH   4  10
BRANCH   6  13
ATOM     13  O   LIG    1       22.198 -24.317   6.761  0.00  0.00    -0.387 OA
ATOM     14  H   LIG    1       21.822 -25.189   6.553  0.00  0.00    +0.210 HD
ENDBRANCH   6  13
BRANCH   1  15
ATOM     15  O   LIG    1       24.245 -22.668   5.022  0.00  0.00    -0.342 OA
BRANCH  15  18
ATOM     16  C   LIG    1       22.950 -20.063   3.635  0.00  0.00    +0.138 C 
ATOM     17  O   LIG    1       24.192 -20.805   3.477  0.00  0.00    -0.345 OA
ATOM     18  C   LIG    1       24.774 -21.373   4.673  0.00  0.00    +0.268 C 
ATOM     19  C   LIG    1       24.532 -20.354   5.850  0.00  0.00    +0.107 C 
ATOM     20  C   LIG    1       23.024 -20.292   6.149  0.00  0.00    +0.026 C 
ATOM     21  C   LIG    1       22.196 -20.542   4.884  0.00  0.00    +0.035 C 
BRANCH  19  22
ATOM     22  N   LIG    1       25.315 -20.398   7.088  0.00  0.00    -0.323 NA
ATOM     23  H   LIG    1       24.892 -20.975   7.778  0.00  0.00    +0.119 HD
ATOM     24  H   LIG    1       25.449 -19.455   7.474  0.00  0.00    +0.119 HD
ENDBRANCH  19  22
BRANCH  16  25
ATOM     25  C   LIG    1       23.135 -18.480   3.616  0.00  0.00    +0.079 C 
ATOM     26  C   LIG    1       24.622 -18.096   3.705  0.00  0.00    +0.026 C 
BRANCH  25  28
ATOM     27  C   LIG    1       22.480 -16.371   4.680  0.00  0.00    +0.101 C 
ATOM     28  N   LIG    1       22.336 -17.828   4.676  0.00  0.00    -0.314 NA
ATOM     29  H   LIG    1       21.355 -18.064   4.509  0.00  0.00    +0.122 HD
ENDBRANCH  25  28
ENDBRANCH  16  25
ENDBRANCH  15  18
ENDBRANCH   1  15
BRANCH   5  30
ATOM     30  O   LIG    1       24.223 -26.767   6.692  0.00  0.00    -0.341 OA
BRANCH  30  31
ATOM     31  C   LIG    1       24.586 -28.024   6.087  0.00  0.00    +0.281 C 
ATOM     32  C   LIG    1       25.883 -28.467   6.814  0.00  0.00    +0.190 C 
ATOM     33  C   LIG    1       25.442 -29.023   8.190  0.00  0.00    +0.121 C 
ATOM     34  C   LIG    1       24.553 -30.296   7.909  0.00  0.00    +0.104 C 
ATOM     35  C   LIG    1       23.444 -30.433   8.955  0.00  0.00    +0.045 C 
ATOM     36  C   LIG    1       23.928 -30.257   6.496  0.00  0.00    +0.199 C 
ATOM     37  O   LIG    1       23.502 -28.941   6.170  0.00  0.00    -0.346 OA
BRANCH  33  38
ATOM     38  N   LIG    1       26.519 -29.354   9.171  0.00  0.00    -0.311 NA
ATOM     39  H   LIG    1       26.285 -30.254   9.595  0.00  0.00    +0.122 HD
ATOM     40  C   LIG    1       26.581 -28.379  10.265  0.00  0.00    +0.101 C 
ENDBRANCH  33  38
BRANCH  32  41
ATOM     41  O   LIG    1       26.764 -27.334   6.862  0.00  0.00    -0.385 OA
ATOM     42  H   LIG    1       27.013 -27.164   5.933  0.00  0.00    +0.210 HD
ENDBRANCH  32  41
BRANCH  34  43
ATOM     43  O   LIG    1       25.357 -31.485   7.994  0.00  0.00    -0.385 OA
ATOM     44  H   LIG    1       25.595 -31.702   7.067  0.00  0.00    +0.210 HD
ENDBRANCH  34  43
ENDBRANCH  30  31
ENDBRANCH   5  30
TORSDOF 13
ENDMDL
