MODEL 1
REMARK VINA RESULT:      66.7      0.000      0.000
REMARK  Name = *****
REMARK                            x       y       z     vdW  Elec       q    Type
REMARK                         _______ _______ _______ _____ _____    ______ ____
ROOT
ATOM      1  C   LIG    1       26.350 -13.443   5.766  0.00  0.00    +0.007 C 
ENDROOT
BRANCH   1   2
ATOM      2  C   LIG    1       25.458 -12.205   5.591  0.00  0.00    +0.041 C 
BRANCH   2   3
ATOM      3  C   LIG    1       24.887 -11.973   4.188  0.00  0.00    +0.232 C 
BRANCH   3   4
ATOM      4  O   LIG    1       23.550 -11.451   4.357  0.00  0.00    -0.465 OA
BRANCH   4   5
ATOM      5  C   LIG    1       22.604 -11.751   3.477  0.00  0.00    +0.312 C 
ATOM      6  O   LIG    1       21.343 -11.668   3.674  0.00  0.00    -0.251 OA
BRANCH   5   7
ATOM      7  C   LIG    1       23.209 -12.473   2.294  0.00  0.00    +0.171 C 
BRANCH   7   8
ATOM      8  C   LIG    1       22.636 -13.878   2.131  0.00  0.00    +0.145 C 
BRANCH   8   9
ATOM      9  N   LIG    1       23.659 -15.014   2.454  0.00  0.00    +0.247 N 
ATOM     10  C   LIG    1       24.964 -14.520   1.819  0.00  0.00    +0.193 C 
ATOM     11  C   LIG    1       23.208 -16.480   1.968  0.00  0.00    +0.102 C 
ATOM     12  C   LIG    1       22.021 -17.027   2.755  0.00  0.00    +0.008 A 
ATOM     13  C   LIG    1       21.923 -16.759   4.112  0.00  0.00    -0.030 A 
ATOM     14  C   LIG    1       21.044 -17.517   4.892  0.00  0.00    +0.053 A 
ATOM     15  C   LIG    1       20.157 -18.465   4.354  0.00  0.00    +0.162 A 
ATOM     16  C   LIG    1       20.181 -18.678   2.969  0.00  0.00    +0.162 A 
ATOM     17  C   LIG    1       22.676 -15.636   4.764  0.00  0.00    +0.086 C 
ATOM     18  C   LIG    1       21.126 -17.969   2.197  0.00  0.00    +0.059 A 
ATOM     19  C   LIG    1       23.877 -15.094   3.987  0.00  0.00    +0.138 C 
BRANCH  15  20
ATOM     20  O   LIG    1       19.356 -19.212   5.171  0.00  0.00    -0.491 OA
ATOM     21  C   LIG    1       19.557 -20.633   5.180  0.00  0.00    +0.277 C 
ENDBRANCH  15  20
BRANCH  16  22
ATOM     22  O   LIG    1       19.478 -19.594   2.229  0.00  0.00    -0.491 OA
ATOM     23  C   LIG    1       19.721 -20.984   2.425  0.00  0.00    +0.277 C 
ENDBRANCH  16  22
BRANCH  11  24
ATOM     24  C   LIG    1       24.380 -17.526   2.107  0.00  0.00    +0.095 C 
BRANCH  24  25
ATOM     25  C   LIG    1       24.199 -18.522   3.239  0.00  0.00    -0.038 A 
ATOM     26  C   LIG    1       23.210 -19.523   3.206  0.00  0.00    +0.053 A 
ATOM     27  C   LIG    1       23.096 -20.495   4.226  0.00  0.00    +0.162 A 
ATOM     28  C   LIG    1       24.017 -20.478   5.286  0.00  0.00    +0.162 A 
ATOM     29  C   LIG    1       24.995 -19.473   5.301  0.00  0.00    +0.050 A 
ATOM     30  C   LIG    1       25.059 -18.484   4.327  0.00  0.00    +0.007 A 
BRANCH  28  31
ATOM     31  O   LIG    1       23.965 -21.408   6.294  0.00  0.00    -0.491 OA
ATOM     32  C   LIG    1       25.162 -21.571   7.057  0.00  0.00    +0.277 C 
ENDBRANCH  28  31
BRANCH  27  33
ATOM     33  O   LIG    1       21.988 -21.287   4.070  0.00  0.00    -0.491 OA
ATOM     34  C   LIG    1       20.932 -20.850   3.228  0.00  0.00    +0.277 C 
ENDBRANCH  27  33
ENDBRANCH  24  25
ENDBRANCH  11  24
ENDBRANCH   8   9
ENDBRANCH   7   8
ENDBRANCH   5   7
ENDBRANCH   4   5
ENDBRANCH   3   4
ENDBRANCH   2   3
ENDBRANCH   1   2
BRANCH   1  35
ATOM     35  C   LIG    1       27.370 -13.456   6.906  0.00  0.00    +0.041 C 
BRANCH  35  36
ATOM     36  C   LIG    1       28.839 -13.590   6.538  0.00  0.00    +0.232 C 
BRANCH  36  37
ATOM     37  O   LIG    1       29.004 -14.030   5.198  0.00  0.00    -0.465 OA
BRANCH  37  38
ATOM     38  C   LIG    1       29.189 -12.990   4.338  0.00  0.00    +0.312 C 
ATOM     39  O   LIG    1       29.324 -11.834   4.630  0.00  0.00    -0.251 OA
BRANCH  38  40
ATOM     40  C   LIG    1       29.002 -13.494   2.930  0.00  0.00    +0.171 C 
BRANCH  40  41
ATOM     41  C   LIG    1       27.678 -14.238   2.695  0.00  0.00    +0.145 C 
BRANCH  41  43
ATOM     42  C   LIG    1       27.275 -15.095   5.098  0.00  0.00    +0.102 C 
ATOM     43  N   LIG    1       26.656 -14.268   3.891  0.00  0.00    +0.247 N 
ATOM     44  C   LIG    1       26.433 -12.860   4.398  0.00  0.00    +0.193 C 
ATOM     45  C   LIG    1       25.301 -14.881   3.481  0.00  0.00    +0.138 C 
ATOM     46  C   LIG    1       25.305 -16.400   3.251  0.00  0.00    +0.086 C 
ATOM     47  C   LIG    1       26.334 -17.195   4.005  0.00  0.00    -0.030 A 
ATOM     48  C   LIG    1       26.381 -18.596   3.868  0.00  0.00    +0.053 A 
ATOM     49  C   LIG    1       27.425 -19.353   4.433  0.00  0.00    +0.162 A 
ATOM     50  C   LIG    1       28.435 -18.698   5.148  0.00  0.00    +0.162 A 
ATOM     51  C   LIG    1       28.403 -17.310   5.244  0.00  0.00    +0.059 A 
ATOM     52  C   LIG    1       27.331 -16.560   4.748  0.00  0.00    +0.008 A 
BRANCH  50  53
ATOM     53  O   LIG    1       29.420 -19.439   5.727  0.00  0.00    -0.491 OA
ATOM     54  C   LIG    1       29.107 -20.737   6.204  0.00  0.00    +0.277 C 
ENDBRANCH  50  53
BRANCH  49  55
ATOM     55  O   LIG    1       27.323 -20.705   4.238  0.00  0.00    -0.491 OA
ATOM     56  C   LIG    1       26.322 -21.186   3.339  0.00  0.00    +0.277 C 
ENDBRANCH  49  55
BRANCH  42  57
ATOM     57  C   LIG    1       26.542 -14.808   6.476  0.00  0.00    +0.095 C 
BRANCH  57  61
ATOM     58  C   LIG    1       22.150 -15.022   6.388  0.00  0.00    +0.162 A 
ATOM     59  C   LIG    1       22.784 -13.770   6.443  0.00  0.00    +0.162 A 
ATOM     60  C   LIG    1       24.211 -13.724   6.552  0.00  0.00    +0.053 A 
ATOM     61  C   LIG    1       25.023 -14.873   6.563  0.00  0.00    -0.038 A 
ATOM     62  C   LIG    1       24.362 -16.088   6.482  0.00  0.00    +0.007 A 
ATOM     63  C   LIG    1       22.970 -16.159   6.436  0.00  0.00    +0.050 A 
BRANCH  58  65
ATOM     64  C   LIG    1       19.778 -14.603   5.950  0.00  0.00    +0.277 C 
ATOM     65  O   LIG    1       20.842 -15.416   6.414  0.00  0.00    -0.491 OA
ENDBRANCH  58  65
BRANCH  59  66
ATOM     66  O   LIG    1       22.296 -12.489   6.445  0.00  0.00    -0.491 OA
ATOM     67  C   LIG    1       23.069 -11.447   6.996  0.00  0.00    +0.277 C 
ENDBRANCH  59  66
ENDBRANCH  57  61
ENDBRANCH  42  57
ENDBRANCH  41  43
ENDBRANCH  40  41
ENDBRANCH  38  40
ENDBRANCH  37  38
ENDBRANCH  36  37
ENDBRANCH  35  36
ENDBRANCH   1  35
TORSDOF 26
ENDMDL
