MODEL 1
REMARK VINA RESULT:      -6.4      0.000      0.000
REMARK  Name = *****
REMARK                            x       y       z     vdW  Elec       q    Type
REMARK                         _______ _______ _______ _____ _____    ______ ____
ROOT
ATOM      1  C   LIG    1       24.902 -23.260   6.117  0.00  0.00    +0.059 C 
ATOM      2  C   LIG    1       24.580 -21.859   6.593  0.00  0.00    +0.037 C 
ATOM      3  C   LIG    1       23.660 -23.012   6.915  0.00  0.00    +0.029 C 
ENDROOT
BRANCH   2   4
ATOM      4  C   LIG    1       24.154 -20.763   5.642  0.00  0.00    -0.043 A 
ATOM      5  C   LIG    1       22.855 -20.229   5.690  0.00  0.00    +0.004 A 
ATOM      6  C   LIG    1       22.437 -19.239   4.796  0.00  0.00    +0.000 A 
ATOM      7  C   LIG    1       23.312 -18.766   3.824  0.00  0.00    +0.000 A 
ATOM      8  C   LIG    1       24.600 -19.286   3.744  0.00  0.00    +0.000 A 
ATOM      9  C   LIG    1       25.011 -20.276   4.640  0.00  0.00    +0.004 A 
ENDBRANCH   2   4
BRANCH   1  10
ATOM     10  N   LIG    1       24.741 -23.666   4.722  0.00  0.00    -0.327 NA
ATOM     11  H   LIG    1       23.947 -23.195   4.292  0.00  0.00    +0.118 HD
ATOM     12  H   LIG    1       25.562 -23.425   4.169  0.00  0.00    +0.118 HD
ENDBRANCH   1  10
TORSDOF 2
ENDMDL
MODEL 2
REMARK VINA RESULT:      -6.4      2.210      4.595
REMARK  Name = *****
REMARK                            x       y       z     vdW  Elec       q    Type
REMARK                         _______ _______ _______ _____ _____    ______ ____
ROOT
ATOM      1  C   LIG    1       22.841 -21.052   6.072  0.00  0.00    +0.059 C 
ATOM      2  C   LIG    1       23.243 -22.016   7.169  0.00  0.00    +0.037 C 
ATOM      3  C   LIG    1       23.896 -20.658   7.058  0.00  0.00    +0.029 C 
ENDROOT
BRANCH   2   4
ATOM      4  C   LIG    1       24.022 -23.281   6.884  0.00  0.00    -0.043 A 
ATOM      5  C   LIG    1       23.365 -24.465   6.509  0.00  0.00    +0.004 A 
ATOM      6  C   LIG    1       24.069 -25.649   6.273  0.00  0.00    +0.000 A 
ATOM      7  C   LIG    1       25.452 -25.676   6.418  0.00  0.00    +0.000 A 
ATOM      8  C   LIG    1       26.127 -24.522   6.802  0.00  0.00    +0.000 A 
ATOM      9  C   LIG    1       25.418 -23.341   7.036  0.00  0.00    +0.004 A 
ENDBRANCH   2   4
BRANCH   1  10
ATOM     10  N   LIG    1       23.250 -21.238   4.681  0.00  0.00    -0.327 NA
ATOM     11  H   LIG    1       23.997 -20.595   4.429  0.00  0.00    +0.118 HD
ATOM     12  H   LIG    1       23.605 -22.180   4.523  0.00  0.00    +0.118 HD
ENDBRANCH   1  10
TORSDOF 2
ENDMDL
MODEL 3
REMARK VINA RESULT:      -6.4      2.198      4.745
REMARK  Name = *****
REMARK                            x       y       z     vdW  Elec       q    Type
REMARK                         _______ _______ _______ _____ _____    ______ ____
ROOT
ATOM      1  C   LIG    1       22.851 -21.037   6.058  0.00  0.00    +0.059 C 
ATOM      2  C   LIG    1       23.195 -21.983   7.190  0.00  0.00    +0.037 C 
ATOM      3  C   LIG    1       23.875 -20.639   7.075  0.00  0.00    +0.029 C 
ENDROOT
BRANCH   2   4
ATOM      4  C   LIG    1       23.961 -23.266   6.961  0.00  0.00    -0.043 A 
ATOM      5  C   LIG    1       25.355 -23.318   7.138  0.00  0.00    +0.004 A 
ATOM      6  C   LIG    1       26.079 -24.489   6.899  0.00  0.00    +0.000 A 
ATOM      7  C   LIG    1       25.424 -25.637   6.468  0.00  0.00    +0.000 A 
ATOM      8  C   LIG    1       24.047 -25.611   6.271  0.00  0.00    +0.000 A 
ATOM      9  C   LIG    1       23.328 -24.437   6.511  0.00  0.00    +0.004 A 
ENDBRANCH   2   4
BRANCH   1  10
ATOM     10  N   LIG    1       23.308 -21.260   4.688  0.00  0.00    -0.327 NA
ATOM     11  H   LIG    1       22.643 -20.887   4.013  0.00  0.00    +0.118 HD
ATOM     12  H   LIG    1       24.197 -20.793   4.514  0.00  0.00    +0.118 HD
ENDBRANCH   1  10
TORSDOF 2
ENDMDL
MODEL 4
REMARK VINA RESULT:      -6.3      2.944      4.118
REMARK  Name = *****
REMARK                            x       y       z     vdW  Elec       q    Type
REMARK                         _______ _______ _______ _____ _____    ______ ____
ROOT
ATOM      1  C   LIG    1       27.925 -20.057   6.644  0.00  0.00    +0.059 C 
ATOM      2  C   LIG    1       27.105 -20.721   7.730  0.00  0.00    +0.037 C 
ATOM      3  C   LIG    1       28.457 -21.270   7.341  0.00  0.00    +0.029 C 
ENDROOT
BRANCH   2   4
ATOM      4  C   LIG    1       25.836 -21.487   7.425  0.00  0.00    -0.043 A 
ATOM      5  C   LIG    1       24.584 -20.850   7.450  0.00  0.00    +0.004 A 
ATOM      6  C   LIG    1       23.401 -21.552   7.202  0.00  0.00    +0.000 A 
ATOM      7  C   LIG    1       23.445 -22.916   6.932  0.00  0.00    +0.000 A 
ATOM      8  C   LIG    1       24.670 -23.575   6.915  0.00  0.00    +0.000 A 
ATOM      9  C   LIG    1       25.849 -22.868   7.164  0.00  0.00    +0.004 A 
ENDBRANCH   2   4
BRANCH   1  10
ATOM     10  N   LIG    1       27.591 -20.182   5.226  0.00  0.00    -0.327 NA
ATOM     11  H   LIG    1       27.747 -21.132   4.895  0.00  0.00    +0.118 HD
ATOM     12  H   LIG    1       26.609 -19.968   5.057  0.00  0.00    +0.118 HD
ENDBRANCH   1  10
TORSDOF 2
ENDMDL
MODEL 5
REMARK VINA RESULT:      -6.3      1.694      1.868
REMARK  Name = *****
REMARK                            x       y       z     vdW  Elec       q    Type
REMARK                         _______ _______ _______ _____ _____    ______ ____
ROOT
ATOM      1  C   LIG    1       25.099 -21.958   7.993  0.00  0.00    +0.059 C 
ATOM      2  C   LIG    1       24.465 -22.185   6.636  0.00  0.00    +0.037 C 
ATOM      3  C   LIG    1       25.907 -22.558   6.885  0.00  0.00    +0.029 C 
ENDROOT
BRANCH   2   4
ATOM      4  C   LIG    1       24.103 -21.041   5.715  0.00  0.00    -0.043 A 
ATOM      5  C   LIG    1       22.870 -20.379   5.834  0.00  0.00    +0.004 A 
ATOM      6  C   LIG    1       22.510 -19.342   4.969  0.00  0.00    +0.000 A 
ATOM      7  C   LIG    1       23.377 -18.949   3.955  0.00  0.00    +0.000 A 
ATOM      8  C   LIG    1       24.599 -19.597   3.805  0.00  0.00    +0.000 A 
ATOM      9  C   LIG    1       24.953 -20.633   4.673  0.00  0.00    +0.004 A 
ENDBRANCH   2   4
BRANCH   1  10
ATOM     10  N   LIG    1       25.478 -20.627   8.464  0.00  0.00    -0.327 NA
ATOM     11  H   LIG    1       24.882 -19.910   8.056  0.00  0.00    +0.118 HD
ATOM     12  H   LIG    1       25.381 -20.552   9.476  0.00  0.00    +0.118 HD
ENDBRANCH   1  10
TORSDOF 2
ENDMDL
MODEL 6
REMARK VINA RESULT:      -6.2      1.705      2.409
REMARK  Name = *****
REMARK                            x       y       z     vdW  Elec       q    Type
REMARK                         _______ _______ _______ _____ _____    ______ ____
ROOT
ATOM      1  C   LIG    1       25.058 -21.891   8.050  0.00  0.00    +0.059 C 
ATOM      2  C   LIG    1       24.369 -22.177   6.731  0.00  0.00    +0.037 C 
ATOM      3  C   LIG    1       25.800 -22.604   6.962  0.00  0.00    +0.029 C 
ENDROOT
BRANCH   2   4
ATOM      4  C   LIG    1       24.033 -21.081   5.745  0.00  0.00    -0.043 A 
ATOM      5  C   LIG    1       24.937 -20.717   4.732  0.00  0.00    +0.004 A 
ATOM      6  C   LIG    1       24.653 -19.684   3.834  0.00  0.00    +0.000 A 
ATOM      7  C   LIG    1       23.456 -18.984   3.936  0.00  0.00    +0.000 A 
ATOM      8  C   LIG    1       22.548 -19.313   4.937  0.00  0.00    +0.000 A 
ATOM      9  C   LIG    1       22.838 -20.346   5.832  0.00  0.00    +0.004 A 
ENDBRANCH   2   4
BRANCH   1  10
ATOM     10  N   LIG    1       25.516 -20.553   8.418  0.00  0.00    -0.327 NA
ATOM     11  H   LIG    1       26.456 -20.581   8.807  0.00  0.00    +0.118 HD
ATOM     12  H   LIG    1       25.552 -19.938   7.606  0.00  0.00    +0.118 HD
ENDBRANCH   1  10
TORSDOF 2
ENDMDL
MODEL 7
REMARK VINA RESULT:      -6.2      8.731      9.553
REMARK  Name = *****
REMARK                            x       y       z     vdW  Elec       q    Type
REMARK                         _______ _______ _______ _____ _____    ______ ____
ROOT
ATOM      1  C   LIG    1       30.884 -20.234   8.456  0.00  0.00    +0.059 C 
ATOM      2  C   LIG    1       30.439 -18.790   8.557  0.00  0.00    +0.037 C 
ATOM      3  C   LIG    1       31.165 -19.288   7.330  0.00  0.00    +0.029 C 
ENDROOT
BRANCH   2   4
ATOM      4  C   LIG    1       31.094 -17.811   9.506  0.00  0.00    -0.043 A 
ATOM      5  C   LIG    1       32.200 -17.044   9.103  0.00  0.00    +0.004 A 
ATOM      6  C   LIG    1       32.835 -16.159   9.980  0.00  0.00    +0.000 A 
ATOM      7  C   LIG    1       32.379 -16.028  11.287  0.00  0.00    +0.000 A 
ATOM      8  C   LIG    1       31.293 -16.785  11.717  0.00  0.00    +0.000 A 
ATOM      9  C   LIG    1       30.664 -17.669  10.837  0.00  0.00    +0.004 A 
ENDBRANCH   2   4
BRANCH   1  10
ATOM     10  N   LIG    1       32.026 -20.754   9.205  0.00  0.00    -0.327 NA
ATOM     11  H   LIG    1       32.452 -21.543   8.724  0.00  0.00    +0.118 HD
ATOM     12  H   LIG    1       32.752 -20.046   9.311  0.00  0.00    +0.118 HD
ENDBRANCH   1  10
TORSDOF 2
ENDMDL
MODEL 8
REMARK VINA RESULT:      -6.2      2.111      3.494
REMARK  Name = *****
REMARK                            x       y       z     vdW  Elec       q    Type
REMARK                         _______ _______ _______ _____ _____    ______ ____
ROOT
ATOM      1  C   LIG    1       22.924 -22.422   6.646  0.00  0.00    +0.059 C 
ATOM      2  C   LIG    1       23.464 -21.055   7.013  0.00  0.00    +0.037 C 
ATOM      3  C   LIG    1       22.724 -21.268   5.713  0.00  0.00    +0.029 C 
ENDROOT
BRANCH   2   4
ATOM      4  C   LIG    1       24.946 -20.752   7.026  0.00  0.00    -0.043 A 
ATOM      5  C   LIG    1       25.647 -20.521   5.829  0.00  0.00    +0.004 A 
ATOM      6  C   LIG    1       27.022 -20.272   5.824  0.00  0.00    +0.000 A 
ATOM      7  C   LIG    1       27.731 -20.257   7.021  0.00  0.00    +0.000 A 
ATOM      8  C   LIG    1       27.065 -20.495   8.219  0.00  0.00    +0.000 A 
ATOM      9  C   LIG    1       25.691 -20.745   8.218  0.00  0.00    +0.004 A 
ENDBRANCH   2   4
BRANCH   1  10
ATOM     10  N   LIG    1       23.792 -23.510   6.201  0.00  0.00    -0.327 NA
ATOM     11  H   LIG    1       23.810 -23.573   5.185  0.00  0.00    +0.118 HD
ATOM     12  H   LIG    1       24.753 -23.364   6.504  0.00  0.00    +0.118 HD
ENDBRANCH   1  10
TORSDOF 2
ENDMDL
MODEL 9
REMARK VINA RESULT:      -6.2      2.995      4.494
REMARK  Name = *****
REMARK                            x       y       z     vdW  Elec       q    Type
REMARK                         _______ _______ _______ _____ _____    ______ ____
ROOT
ATOM      1  C   LIG    1       26.820 -20.293   6.587  0.00  0.00    +0.059 C 
ATOM      2  C   LIG    1       26.223 -21.207   7.637  0.00  0.00    +0.037 C 
ATOM      3  C   LIG    1       27.708 -21.214   7.364  0.00  0.00    +0.029 C 
ENDROOT
BRANCH   2   4
ATOM      4  C   LIG    1       25.358 -22.393   7.274  0.00  0.00    -0.043 A 
ATOM      5  C   LIG    1       25.931 -23.642   6.977  0.00  0.00    +0.004 A 
ATOM      6  C   LIG    1       25.146 -24.737   6.609  0.00  0.00    +0.000 A 
ATOM      7  C   LIG    1       23.764 -24.605   6.521  0.00  0.00    +0.000 A 
ATOM      8  C   LIG    1       23.170 -23.377   6.796  0.00  0.00    +0.000 A 
ATOM      9  C   LIG    1       23.961 -22.285   7.163  0.00  0.00    +0.004 A 
ENDBRANCH   2   4
BRANCH   1  10
ATOM     10  N   LIG    1       26.670 -20.546   5.155  0.00  0.00    -0.327 NA
ATOM     11  H   LIG    1       25.855 -20.063   4.781  0.00  0.00    +0.118 HD
ATOM     12  H   LIG    1       27.477 -20.210   4.633  0.00  0.00    +0.118 HD
ENDBRANCH   1  10
TORSDOF 2
ENDMDL
