MODEL 1
REMARK VINA RESULT:       6.7      0.000      0.000
REMARK  Name = *****
REMARK                            x       y       z     vdW  Elec       q    Type
REMARK                         _______ _______ _______ _____ _____    ______ ____
ROOT
ATOM      1  C   LIG    1       26.619 -13.767   3.046  0.00  0.00    +0.164 A 
ATOM      2  C   LIG    1       27.838 -13.729   3.742  0.00  0.00    +0.162 A 
ATOM      3  C   LIG    1       28.384 -14.921   4.245  0.00  0.00    +0.062 A 
ATOM      4  C   LIG    1       27.699 -16.151   4.097  0.00  0.00    +0.044 A 
ATOM      5  C   LIG    1       26.486 -16.164   3.429  0.00  0.00    +0.082 A 
ATOM      6  N   LIG    1       25.762 -17.257   3.251  0.00  0.00    -0.214 NA
ATOM      7  C   LIG    1       26.200 -18.414   3.746  0.00  0.00    +0.220 A 
ATOM      8  N   LIG    1       27.362 -18.519   4.403  0.00  0.00    -0.199 NA
ATOM      9  C   LIG    1       28.097 -17.407   4.565  0.00  0.00    +0.129 A 
ATOM     10  C   LIG    1       25.972 -14.997   2.905  0.00  0.00    +0.078 A 
ENDROOT
BRANCH   7  11
ATOM     11  N   LIG    1       25.399 -19.538   3.548  0.00  0.00    -0.297 N 
ATOM     12  C   LIG    1       25.254 -20.395   4.754  0.00  0.00    +0.127 C 
ATOM     13  C   LIG    1       24.179 -19.816   5.704  0.00  0.00    +0.127 C 
ATOM     14  N   LIG    1       22.921 -19.666   4.958  0.00  0.00    -0.296 N 
ATOM     15  C   LIG    1       22.006 -20.713   5.028  0.00  0.00    +0.244 C 
ATOM     16  O   LIG    1       22.085 -21.571   5.925  0.00  0.00    -0.273 OA
ATOM     17  C   LIG    1       23.052 -18.754   3.808  0.00  0.00    +0.127 C 
ATOM     18  C   LIG    1       24.137 -19.269   2.835  0.00  0.00    +0.127 C 
BRANCH  15  19
ATOM     19  C   LIG    1       20.930 -20.816   3.920  0.00  0.00    +0.204 C 
ATOM     20  O   LIG    1       21.152 -19.878   2.858  0.00  0.00    -0.367 OA
ATOM     21  C   LIG    1       20.184 -18.824   2.971  0.00  0.00    +0.161 C 
ATOM     22  C   LIG    1       19.458 -19.027   4.283  0.00  0.00    +0.031 C 
ATOM     23  C   LIG    1       19.525 -20.527   4.430  0.00  0.00    +0.043 C 
ENDBRANCH  15  19
ENDBRANCH   7  11
BRANCH   9  24
ATOM     24  N   LIG    1       29.302 -17.593   5.250  0.00  0.00    -0.343 N 
ATOM     25  H   LIG    1       29.137 -17.932   6.191  0.00  0.00    +0.144 HD
ATOM     26  H   LIG    1       29.773 -16.690   5.260  0.00  0.00    +0.144 HD
ENDBRANCH   9  24
BRANCH   1  28
ATOM     27  C   LIG    1       24.746 -12.631   2.096  0.00  0.00    +0.277 C 
ATOM     28  O   LIG    1       26.107 -12.609   2.521  0.00  0.00    -0.491 OA
ENDBRANCH   1  28
BRANCH   2  29
ATOM     29  O   LIG    1       28.619 -12.629   3.979  0.00  0.00    -0.491 OA
ATOM     30  C   LIG    1       28.663 -12.166   5.324  0.00  0.00    +0.277 C 
ENDBRANCH   2  29
TORSDOF 5
ENDMDL
