MODEL 1
REMARK VINA RESULT:      -9.8      0.000      0.000
REMARK  Name = *****
REMARK                            x       y       z     vdW  Elec       q    Type
REMARK                         _______ _______ _______ _____ _____    ______ ____
ROOT
ATOM      1  C   LIG    1       25.687 -21.760   6.647  0.00  0.00    +0.050 C 
ATOM      2  C   LIG    1       25.127 -23.160   6.418  0.00  0.00    -0.037 A 
ATOM      3  C   LIG    1       23.776 -23.462   6.714  0.00  0.00    -0.043 A 
ATOM      4  C   LIG    1       23.341 -24.795   6.578  0.00  0.00    +0.004 A 
ATOM      5  C   LIG    1       24.182 -25.795   6.085  0.00  0.00    +0.000 A 
ATOM      6  C   LIG    1       25.472 -25.473   5.696  0.00  0.00    +0.000 A 
ATOM      7  C   LIG    1       22.701 -22.451   7.091  0.00  0.00    +0.040 C 
ATOM      8  C   LIG    1       22.956 -20.933   7.076  0.00  0.00    +0.040 C 
ATOM      9  C   LIG    1       23.691 -20.431   5.856  0.00  0.00    -0.043 A 
ATOM     10  C   LIG    1       23.042 -19.616   4.920  0.00  0.00    +0.004 A 
ATOM     11  C   LIG    1       23.704 -19.205   3.765  0.00  0.00    +0.000 A 
ATOM     12  C   LIG    1       25.019 -19.606   3.532  0.00  0.00    +0.000 A 
ATOM     13  C   LIG    1       25.682 -20.404   4.464  0.00  0.00    +0.004 A 
ATOM     14  C   LIG    1       25.929 -24.169   5.847  0.00  0.00    +0.004 A 
ATOM     15  C   LIG    1       25.038 -20.812   5.641  0.00  0.00    -0.037 A 
ENDROOT
BRANCH   1  16
ATOM     16  C   LIG    1       27.236 -21.619   6.793  0.00  0.00    +0.017 C 
BRANCH  16  18
ATOM     17  C   LIG    1       26.555 -20.303   8.894  0.00  0.00    +0.009 C 
ATOM     18  C   LIG    1       27.722 -20.863   8.063  0.00  0.00    +0.001 C 
BRANCH  18  19
ATOM     19  C   LIG    1       28.681 -19.694   7.715  0.00  0.00    +0.087 C 
BRANCH  19  20
ATOM     20  N   LIG    1       29.805 -19.452   8.641  0.00  0.00    -0.308 NA
ATOM     21  C   LIG    1       30.401 -18.126   8.474  0.00  0.00    +0.104 C 
ATOM     22  C   LIG    1       30.836 -20.476   8.436  0.00  0.00    +0.104 C 
ENDBRANCH  19  20
ENDBRANCH  18  19
ENDBRANCH  16  18
ENDBRANCH   1  16
TORSDOF 4
ENDMDL
MODEL 2
REMARK VINA RESULT:      -9.4      0.600      1.143
REMARK  Name = *****
REMARK                            x       y       z     vdW  Elec       q    Type
REMARK                         _______ _______ _______ _____ _____    ______ ____
ROOT
ATOM      1  C   LIG    1       25.747 -21.650   6.667  0.00  0.00    +0.050 C 
ATOM      2  C   LIG    1       25.188 -23.056   6.473  0.00  0.00    -0.037 A 
ATOM      3  C   LIG    1       23.843 -23.356   6.795  0.00  0.00    -0.043 A 
ATOM      4  C   LIG    1       23.410 -24.693   6.690  0.00  0.00    +0.004 A 
ATOM      5  C   LIG    1       24.247 -25.699   6.203  0.00  0.00    +0.000 A 
ATOM      6  C   LIG    1       25.529 -25.381   5.788  0.00  0.00    +0.000 A 
ATOM      7  C   LIG    1       22.770 -22.342   7.170  0.00  0.00    +0.040 C 
ATOM      8  C   LIG    1       23.020 -20.824   7.123  0.00  0.00    +0.040 C 
ATOM      9  C   LIG    1       23.735 -20.342   5.883  0.00  0.00    -0.043 A 
ATOM     10  C   LIG    1       23.068 -19.547   4.941  0.00  0.00    +0.004 A 
ATOM     11  C   LIG    1       23.711 -19.155   3.769  0.00  0.00    +0.000 A 
ATOM     12  C   LIG    1       25.024 -19.556   3.524  0.00  0.00    +0.000 A 
ATOM     13  C   LIG    1       25.704 -20.335   4.460  0.00  0.00    +0.004 A 
ATOM     14  C   LIG    1       25.984 -24.073   5.908  0.00  0.00    +0.004 A 
ATOM     15  C   LIG    1       25.079 -20.723   5.654  0.00  0.00    -0.037 A 
ENDROOT
BRANCH   1  16
ATOM     16  C   LIG    1       27.297 -21.502   6.786  0.00  0.00    +0.017 C 
BRANCH  16  18
ATOM     17  C   LIG    1       28.683 -19.563   5.822  0.00  0.00    +0.009 C 
ATOM     18  C   LIG    1       27.816 -20.050   6.995  0.00  0.00    +0.001 C 
BRANCH  18  19
ATOM     19  C   LIG    1       28.637 -19.906   8.304  0.00  0.00    +0.087 C 
BRANCH  19  20
ATOM     20  N   LIG    1       30.027 -19.427   8.172  0.00  0.00    -0.308 NA
ATOM     21  C   LIG    1       31.012 -20.423   8.597  0.00  0.00    +0.104 C 
ATOM     22  C   LIG    1       30.201 -18.205   8.966  0.00  0.00    +0.104 C 
ENDBRANCH  19  20
ENDBRANCH  18  19
ENDBRANCH  16  18
ENDBRANCH   1  16
TORSDOF 4
ENDMDL
MODEL 3
REMARK VINA RESULT:      -7.6      2.504      5.393
REMARK  Name = *****
REMARK                            x       y       z     vdW  Elec       q    Type
REMARK                         _______ _______ _______ _____ _____    ______ ____
ROOT
ATOM      1  C   LIG    1       24.615 -21.864   5.725  0.00  0.00    +0.050 C 
ATOM      2  C   LIG    1       25.535 -21.246   6.773  0.00  0.00    -0.037 A 
ATOM      3  C   LIG    1       26.627 -20.429   6.394  0.00  0.00    -0.043 A 
ATOM      4  C   LIG    1       27.502 -19.968   7.398  0.00  0.00    +0.004 A 
ATOM      5  C   LIG    1       27.268 -20.229   8.750  0.00  0.00    +0.000 A 
ATOM      6  C   LIG    1       26.140 -20.937   9.125  0.00  0.00    +0.000 A 
ATOM      7  C   LIG    1       26.908 -19.918   4.987  0.00  0.00    +0.040 C 
ATOM      8  C   LIG    1       25.937 -20.151   3.816  0.00  0.00    +0.040 C 
ATOM      9  C   LIG    1       24.484 -19.899   4.145  0.00  0.00    -0.043 A 
ATOM     10  C   LIG    1       23.802 -18.819   3.571  0.00  0.00    +0.004 A 
ATOM     11  C   LIG    1       22.480 -18.554   3.922  0.00  0.00    +0.000 A 
ATOM     12  C   LIG    1       21.829 -19.361   4.854  0.00  0.00    +0.000 A 
ATOM     13  C   LIG    1       22.492 -20.449   5.422  0.00  0.00    +0.004 A 
ATOM     14  C   LIG    1       25.279 -21.424   8.148  0.00  0.00    +0.004 A 
ATOM     15  C   LIG    1       23.816 -20.743   5.065  0.00  0.00    -0.037 A 
ENDROOT
BRANCH   1  16
ATOM     16  C   LIG    1       23.784 -23.117   6.147  0.00  0.00    +0.017 C 
BRANCH  16  18
ATOM     17  C   LIG    1       25.906 -24.221   7.088  0.00  0.00    +0.009 C 
ATOM     18  C   LIG    1       24.596 -24.434   6.312  0.00  0.00    +0.001 C 
BRANCH  18  19
ATOM     19  C   LIG    1       24.937 -25.083   4.943  0.00  0.00    +0.087 C 
BRANCH  19  20
ATOM     20  N   LIG    1       24.960 -26.558   4.891  0.00  0.00    -0.308 NA
ATOM     21  C   LIG    1       24.278 -27.176   6.030  0.00  0.00    +0.104 C 
ATOM     22  C   LIG    1       26.351 -27.025   4.848  0.00  0.00    +0.104 C 
ENDBRANCH  19  20
ENDBRANCH  18  19
ENDBRANCH  16  18
ENDBRANCH   1  16
TORSDOF 4
ENDMDL
MODEL 4
REMARK VINA RESULT:      -7.4      2.256      5.679
REMARK  Name = *****
REMARK                            x       y       z     vdW  Elec       q    Type
REMARK                         _______ _______ _______ _____ _____    ______ ____
ROOT
ATOM      1  C   LIG    1       25.937 -21.735   6.143  0.00  0.00    +0.050 C 
ATOM      2  C   LIG    1       27.049 -20.785   6.575  0.00  0.00    -0.037 A 
ATOM      3  C   LIG    1       27.625 -19.872   5.659  0.00  0.00    -0.043 A 
ATOM      4  C   LIG    1       28.717 -19.090   6.087  0.00  0.00    +0.004 A 
ATOM      5  C   LIG    1       29.181 -19.137   7.403  0.00  0.00    +0.000 A 
ATOM      6  C   LIG    1       28.545 -19.952   8.324  0.00  0.00    +0.000 A 
ATOM      7  C   LIG    1       27.117 -19.584   4.252  0.00  0.00    +0.040 C 
ATOM      8  C   LIG    1       25.813 -20.192   3.707  0.00  0.00    +0.040 C 
ATOM      9  C   LIG    1       24.647 -20.144   4.666  0.00  0.00    -0.043 A 
ATOM     10  C   LIG    1       23.543 -19.323   4.402  0.00  0.00    +0.004 A 
ATOM     11  C   LIG    1       22.497 -19.234   5.318  0.00  0.00    +0.000 A 
ATOM     12  C   LIG    1       22.545 -19.960   6.507  0.00  0.00    +0.000 A 
ATOM     13  C   LIG    1       23.631 -20.792   6.775  0.00  0.00    +0.004 A 
ATOM     14  C   LIG    1       27.485 -20.752   7.915  0.00  0.00    +0.004 A 
ATOM     15  C   LIG    1       24.684 -20.910   5.856  0.00  0.00    -0.037 A 
ENDROOT
BRANCH   1  16
ATOM     16  C   LIG    1       25.709 -23.016   7.006  0.00  0.00    +0.017 C 
BRANCH  16  18
ATOM     17  C   LIG    1       23.631 -24.461   6.558  0.00  0.00    +0.009 C 
ATOM     18  C   LIG    1       25.119 -24.238   6.245  0.00  0.00    +0.001 C 
BRANCH  18  19
ATOM     19  C   LIG    1       25.888 -25.549   6.563  0.00  0.00    +0.087 C 
BRANCH  19  20
ATOM     20  N   LIG    1       25.330 -26.801   6.014  0.00  0.00    -0.308 NA
ATOM     21  C   LIG    1       25.393 -27.913   6.965  0.00  0.00    +0.104 C 
ATOM     22  C   LIG    1       26.057 -27.167   4.793  0.00  0.00    +0.104 C 
ENDBRANCH  19  20
ENDBRANCH  18  19
ENDBRANCH  16  18
ENDBRANCH   1  16
TORSDOF 4
ENDMDL
MODEL 5
REMARK VINA RESULT:      -7.4      2.338      5.533
REMARK  Name = *****
REMARK                            x       y       z     vdW  Elec       q    Type
REMARK                         _______ _______ _______ _____ _____    ______ ____
ROOT
ATOM      1  C   LIG    1       24.630 -22.272   5.785  0.00  0.00    +0.050 C 
ATOM      2  C   LIG    1       24.045 -21.097   5.009  0.00  0.00    -0.037 A 
ATOM      3  C   LIG    1       23.217 -20.142   5.648  0.00  0.00    -0.043 A 
ATOM      4  C   LIG    1       22.623 -19.135   4.861  0.00  0.00    +0.004 A 
ATOM      5  C   LIG    1       22.898 -19.012   3.498  0.00  0.00    +0.000 A 
ATOM      6  C   LIG    1       23.793 -19.882   2.899  0.00  0.00    +0.000 A 
ATOM      7  C   LIG    1       22.966 -20.044   7.147  0.00  0.00    +0.040 C 
ATOM      8  C   LIG    1       23.704 -20.930   8.166  0.00  0.00    +0.040 C 
ATOM      9  C   LIG    1       25.190 -21.059   7.927  0.00  0.00    -0.043 A 
ATOM     10  C   LIG    1       26.105 -20.491   8.823  0.00  0.00    +0.004 A 
ATOM     11  C   LIG    1       27.473 -20.558   8.568  0.00  0.00    +0.000 A 
ATOM     12  C   LIG    1       27.940 -21.189   7.416  0.00  0.00    +0.000 A 
ATOM     13  C   LIG    1       27.040 -21.772   6.524  0.00  0.00    +0.004 A 
ATOM     14  C   LIG    1       24.368 -20.899   3.651  0.00  0.00    +0.004 A 
ATOM     15  C   LIG    1       25.660 -21.731   6.774  0.00  0.00    -0.037 A 
ENDROOT
BRANCH   1  16
ATOM     16  C   LIG    1       25.085 -23.521   4.964  0.00  0.00    +0.017 C 
BRANCH  16  18
ATOM     17  C   LIG    1       23.539 -24.854   6.526  0.00  0.00    +0.009 C 
ATOM     18  C   LIG    1       24.780 -24.898   5.619  0.00  0.00    +0.001 C 
BRANCH  18  19
ATOM     19  C   LIG    1       25.978 -25.426   6.454  0.00  0.00    +0.087 C 
BRANCH  19  20
ATOM     20  N   LIG    1       26.411 -26.814   6.199  0.00  0.00    -0.308 NA
ATOM     21  C   LIG    1       26.177 -27.235   4.816  0.00  0.00    +0.104 C 
ATOM     22  C   LIG    1       25.702 -27.722   7.108  0.00  0.00    +0.104 C 
ENDBRANCH  19  20
ENDBRANCH  18  19
ENDBRANCH  16  18
ENDBRANCH   1  16
TORSDOF 4
ENDMDL
MODEL 6
REMARK VINA RESULT:      -7.2      2.341      5.674
REMARK  Name = *****
REMARK                            x       y       z     vdW  Elec       q    Type
REMARK                         _______ _______ _______ _____ _____    ______ ____
ROOT
ATOM      1  C   LIG    1       24.834 -21.188   5.241  0.00  0.00    +0.050 C 
ATOM      2  C   LIG    1       25.933 -20.799   6.224  0.00  0.00    -0.037 A 
ATOM      3  C   LIG    1       25.683 -20.759   7.617  0.00  0.00    -0.043 A 
ATOM      4  C   LIG    1       26.706 -20.295   8.469  0.00  0.00    +0.004 A 
ATOM      5  C   LIG    1       27.970 -19.959   7.982  0.00  0.00    +0.000 A 
ATOM      6  C   LIG    1       28.244 -20.103   6.632  0.00  0.00    +0.000 A 
ATOM      7  C   LIG    1       24.421 -21.257   8.309  0.00  0.00    +0.040 C 
ATOM      8  C   LIG    1       23.298 -21.985   7.550  0.00  0.00    +0.040 C 
ATOM      9  C   LIG    1       23.776 -23.045   6.585  0.00  0.00    -0.043 A 
ATOM     10  C   LIG    1       23.521 -24.400   6.834  0.00  0.00    +0.004 A 
ATOM     11  C   LIG    1       24.016 -25.379   5.975  0.00  0.00    +0.000 A 
ATOM     12  C   LIG    1       24.773 -25.015   4.862  0.00  0.00    +0.000 A 
ATOM     13  C   LIG    1       25.020 -23.669   4.595  0.00  0.00    +0.004 A 
ATOM     14  C   LIG    1       27.241 -20.532   5.771  0.00  0.00    +0.004 A 
ATOM     15  C   LIG    1       24.515 -22.669   5.438  0.00  0.00    -0.037 A 
ENDROOT
BRANCH   1  16
ATOM     16  C   LIG    1       25.004 -20.735   3.756  0.00  0.00    +0.017 C 
BRANCH  16  18
ATOM     17  C   LIG    1       25.362 -18.213   3.404  0.00  0.00    +0.009 C 
ATOM     18  C   LIG    1       24.349 -19.370   3.395  0.00  0.00    +0.001 C 
BRANCH  18  19
ATOM     19  C   LIG    1       23.185 -19.009   4.357  0.00  0.00    +0.087 C 
BRANCH  19  20
ATOM     20  N   LIG    1       22.247 -17.962   3.908  0.00  0.00    -0.308 NA
ATOM     21  C   LIG    1       22.157 -16.842   4.847  0.00  0.00    +0.104 C 
ATOM     22  C   LIG    1       20.913 -18.546   3.723  0.00  0.00    +0.104 C 
ENDBRANCH  19  20
ENDBRANCH  18  19
ENDBRANCH  16  18
ENDBRANCH   1  16
TORSDOF 4
ENDMDL
