MODEL 1
REMARK VINA RESULT:      -9.9      0.000      0.000
REMARK  Name = *****
REMARK                            x       y       z     vdW  Elec       q    Type
REMARK                         _______ _______ _______ _____ _____    ______ ____
ROOT
ATOM      1  C   LIG    1       24.617 -21.017   5.722  0.00  0.00    +0.021 C 
ATOM      2  C   LIG    1       25.042 -20.475   4.323  0.00  0.00    +0.016 C 
ATOM      3  C   LIG    1       23.909 -20.537   3.286  0.00  0.00    +0.001 C 
ATOM      4  C   LIG    1       22.712 -19.712   3.735  0.00  0.00    +0.000 C 
ATOM      5  C   LIG    1       22.185 -20.186   5.081  0.00  0.00    +0.001 C 
ATOM      6  C   LIG    1       23.292 -20.252   6.124  0.00  0.00    +0.016 C 
ENDROOT
BRANCH   1  10
ATOM      7  C   LIG    1       23.940 -25.435   5.642  0.00  0.00    +0.122 A 
ATOM      8  C   LIG    1       23.358 -24.615   6.599  0.00  0.00    +0.046 A 
ATOM      9  C   LIG    1       23.598 -23.228   6.635  0.00  0.00    +0.008 A 
ATOM     10  C   LIG    1       24.370 -22.574   5.665  0.00  0.00    -0.037 A 
ATOM     11  C   LIG    1       24.925 -23.414   4.673  0.00  0.00    +0.008 A 
ATOM     12  C   LIG    1       24.714 -24.812   4.664  0.00  0.00    +0.046 A 
BRANCH   7  13
ATOM     13  O   LIG    1       23.823 -26.799   5.556  0.00  0.00    -0.475 OA
BRANCH  13  14
ATOM     14  C   LIG    1       24.816 -27.711   6.064  0.00  0.00    +0.203 C 
ATOM     15  C   LIG    1       25.676 -27.038   7.156  0.00  0.00    +0.068 C 
BRANCH  14  17
ATOM     16  C   LIG    1       27.143 -27.256   4.939  0.00  0.00    +0.008 C 
ATOM     17  C   LIG    1       25.802 -27.979   4.878  0.00  0.00    +0.056 C 
ENDBRANCH  14  17
BRANCH  14  18
ATOM     18  C   LIG    1       24.244 -29.082   6.597  0.00  0.00    +0.349 C 
ATOM     19  O   LIG    1       24.559 -29.614   7.613  0.00  0.00    -0.246 OA
BRANCH  18  20
ATOM     20  O   LIG    1       23.349 -29.692   5.773  0.00  0.00    -0.478 OA
ATOM     21  H   LIG    1       23.551 -30.591   5.478  0.00  0.00    +0.295 HD
ENDBRANCH  18  20
ENDBRANCH  14  18
ENDBRANCH  13  14
ENDBRANCH   7  13
ENDBRANCH   1  10
BRANCH   1  22
ATOM     22  C   LIG    1       25.725 -20.635   6.777  0.00  0.00    -0.033 A 
ATOM     23  C   LIG    1       27.072 -20.465   6.396  0.00  0.00    +0.050 A 
ATOM     24  C   LIG    1       28.122 -20.321   7.312  0.00  0.00    +0.122 A 
ATOM     25  C   LIG    1       27.797 -20.319   8.679  0.00  0.00    +0.045 A 
ATOM     26  C   LIG    1       26.460 -20.360   9.089  0.00  0.00    +0.004 A 
ATOM     27  C   LIG    1       25.441 -20.473   8.144  0.00  0.00    +0.005 A 
BRANCH  24  28
ATOM     28  O   LIG    1       29.461 -20.247   6.995  0.00  0.00    -0.475 OA
BRANCH  28  29
ATOM     29  C   LIG    1       30.489 -19.815   7.924  0.00  0.00    +0.203 C 
ATOM     30  C   LIG    1       31.628 -19.106   7.155  0.00  0.00    +0.068 C 
BRANCH  29  31
ATOM     31  C   LIG    1       31.087 -20.859   8.887  0.00  0.00    +0.349 C 
ATOM     32  O   LIG    1       30.496 -21.903   9.222  0.00  0.00    -0.246 OA
BRANCH  31  33
ATOM     33  O   LIG    1       32.321 -20.576   9.348  0.00  0.00    -0.478 OA
ATOM     34  H   LIG    1       32.312 -20.033  10.168  0.00  0.00    +0.295 HD
ENDBRANCH  31  33
ENDBRANCH  29  31
BRANCH  29  35
ATOM     35  C   LIG    1       29.815 -18.744   8.851  0.00  0.00    +0.056 C 
ATOM     36  C   LIG    1       30.608 -17.445   9.048  0.00  0.00    +0.008 C 
ENDBRANCH  29  35
ENDBRANCH  28  29
ENDBRANCH  24  28
ENDBRANCH   1  22
TORSDOF 12
ENDMDL
MODEL 2
REMARK VINA RESULT:      -9.7      1.212      8.079
REMARK  Name = *****
REMARK                            x       y       z     vdW  Elec       q    Type
REMARK                         _______ _______ _______ _____ _____    ______ ____
ROOT
ATOM      1  C   LIG    1       24.535 -21.229   5.529  0.00  0.00    +0.021 C 
ATOM      2  C   LIG    1       23.268 -20.392   5.887  0.00  0.00    +0.016 C 
ATOM      3  C   LIG    1       23.332 -18.951   5.357  0.00  0.00    +0.001 C 
ATOM      4  C   LIG    1       23.461 -18.932   3.841  0.00  0.00    +0.000 C 
ATOM      5  C   LIG    1       24.697 -19.690   3.380  0.00  0.00    +0.001 C 
ATOM      6  C   LIG    1       24.744 -21.094   3.967  0.00  0.00    +0.016 C 
ENDROOT
BRANCH   1  10
ATOM      7  C   LIG    1       28.156 -19.765   7.702  0.00  0.00    +0.122 A 
ATOM      8  C   LIG    1       28.071 -19.754   6.317  0.00  0.00    +0.046 A 
ATOM      9  C   LIG    1       26.938 -20.243   5.638  0.00  0.00    +0.008 A 
ATOM     10  C   LIG    1       25.795 -20.695   6.313  0.00  0.00    -0.037 A 
ATOM     11  C   LIG    1       25.880 -20.664   7.723  0.00  0.00    +0.008 A 
ATOM     12  C   LIG    1       27.035 -20.210   8.401  0.00  0.00    +0.046 A 
BRANCH   7  13
ATOM     13  O   LIG    1       29.233 -19.373   8.457  0.00  0.00    -0.475 OA
BRANCH  13  14
ATOM     14  C   LIG    1       30.595 -19.457   7.994  0.00  0.00    +0.203 C 
ATOM     15  C   LIG    1       30.691 -19.100   6.495  0.00  0.00    +0.068 C 
BRANCH  14  17
ATOM     16  C   LIG    1       30.605 -21.696   9.363  0.00  0.00    +0.008 C 
ATOM     17  C   LIG    1       30.986 -20.971   8.078  0.00  0.00    +0.056 C 
ENDBRANCH  14  17
BRANCH  14  18
ATOM     18  C   LIG    1       31.628 -18.597   8.820  0.00  0.00    +0.349 C 
ATOM     19  O   LIG    1       31.856 -18.719   9.982  0.00  0.00    -0.246 OA
BRANCH  18  20
ATOM     20  O   LIG    1       32.258 -17.619   8.115  0.00  0.00    -0.478 OA
ATOM     21  H   LIG    1       32.781 -17.885   7.346  0.00  0.00    +0.295 HD
ENDBRANCH  18  20
ENDBRANCH  14  18
ENDBRANCH  13  14
ENDBRANCH   7  13
ENDBRANCH   1  10
BRANCH   1  22
ATOM     22  C   LIG    1       24.249 -22.749   5.841  0.00  0.00    -0.033 A 
ATOM     23  C   LIG    1       24.990 -23.776   5.222  0.00  0.00    +0.050 A 
ATOM     24  C   LIG    1       24.653 -25.133   5.309  0.00  0.00    +0.122 A 
ATOM     25  C   LIG    1       23.530 -25.476   6.080  0.00  0.00    +0.045 A 
ATOM     26  C   LIG    1       22.845 -24.496   6.808  0.00  0.00    +0.004 A 
ATOM     27  C   LIG    1       23.231 -23.160   6.719  0.00  0.00    +0.005 A 
BRANCH  24  28
ATOM     28  O   LIG    1       25.286 -26.163   4.648  0.00  0.00    -0.475 OA
BRANCH  28  29
ATOM     29  C   LIG    1       25.881 -27.306   5.315  0.00  0.00    +0.203 C 
ATOM     30  C   LIG    1       27.349 -27.475   4.859  0.00  0.00    +0.068 C 
BRANCH  29  31
ATOM     31  C   LIG    1       25.153 -28.662   5.227  0.00  0.00    +0.349 C 
ATOM     32  O   LIG    1       25.739 -29.760   5.254  0.00  0.00    -0.246 OA
BRANCH  31  33
ATOM     33  O   LIG    1       23.812 -28.587   5.130  0.00  0.00    -0.478 OA
ATOM     34  H   LIG    1       23.416 -29.349   4.649  0.00  0.00    +0.295 HD
ENDBRANCH  31  33
ENDBRANCH  29  31
BRANCH  29  35
ATOM     35  C   LIG    1       25.905 -26.955   6.843  0.00  0.00    +0.056 C 
ATOM     36  C   LIG    1       25.837 -28.153   7.800  0.00  0.00    +0.008 C 
ENDBRANCH  29  35
ENDBRANCH  28  29
ENDBRANCH  24  28
ENDBRANCH   1  22
TORSDOF 12
ENDMDL
MODEL 3
REMARK VINA RESULT:      -9.2      1.431      2.072
REMARK  Name = *****
REMARK                            x       y       z     vdW  Elec       q    Type
REMARK                         _______ _______ _______ _____ _____    ______ ____
ROOT
ATOM      1  C   LIG    1       25.388 -21.194   5.987  0.00  0.00    +0.021 C 
ATOM      2  C   LIG    1       24.654 -20.636   4.729  0.00  0.00    +0.016 C 
ATOM      3  C   LIG    1       23.167 -21.021   4.682  0.00  0.00    +0.001 C 
ATOM      4  C   LIG    1       22.426 -20.487   5.899  0.00  0.00    +0.000 C 
ATOM      5  C   LIG    1       23.037 -21.007   7.192  0.00  0.00    +0.001 C 
ATOM      6  C   LIG    1       24.537 -20.752   7.245  0.00  0.00    +0.016 C 
ENDROOT
BRANCH   1  10
ATOM      7  C   LIG    1       25.801 -25.640   5.792  0.00  0.00    +0.122 A 
ATOM      8  C   LIG    1       26.274 -24.901   6.867  0.00  0.00    +0.046 A 
ATOM      9  C   LIG    1       26.166 -23.497   6.909  0.00  0.00    +0.008 A 
ATOM     10  C   LIG    1       25.504 -22.765   5.913  0.00  0.00    -0.037 A 
ATOM     11  C   LIG    1       24.992 -23.534   4.843  0.00  0.00    +0.008 A 
ATOM     12  C   LIG    1       25.139 -24.939   4.785  0.00  0.00    +0.046 A 
BRANCH   7  13
ATOM     13  O   LIG    1       25.911 -26.998   5.623  0.00  0.00    -0.475 OA
BRANCH  13  14
ATOM     14  C   LIG    1       25.088 -27.950   6.324  0.00  0.00    +0.203 C 
ATOM     15  C   LIG    1       23.791 -27.288   6.836  0.00  0.00    +0.068 C 
BRANCH  14  17
ATOM     16  C   LIG    1       25.245 -29.395   8.509  0.00  0.00    +0.008 C 
ATOM     17  C   LIG    1       25.884 -28.338   7.616  0.00  0.00    +0.056 C 
ENDBRANCH  14  17
BRANCH  14  18
ATOM     18  C   LIG    1       24.741 -29.253   5.505  0.00  0.00    +0.349 C 
ATOM     19  O   LIG    1       25.534 -29.992   5.014  0.00  0.00    -0.246 OA
BRANCH  18  20
ATOM     20  O   LIG    1       23.413 -29.490   5.334  0.00  0.00    -0.478 OA
ATOM     21  H   LIG    1       22.806 -29.151   6.007  0.00  0.00    +0.295 HD
ENDBRANCH  18  20
ENDBRANCH  14  18
ENDBRANCH  13  14
ENDBRANCH   7  13
ENDBRANCH   1  10
BRANCH   1  22
ATOM     22  C   LIG    1       26.801 -20.504   6.103  0.00  0.00    -0.033 A 
ATOM     23  C   LIG    1       27.543 -20.549   7.301  0.00  0.00    +0.050 A 
ATOM     24  C   LIG    1       28.703 -19.795   7.521  0.00  0.00    +0.122 A 
ATOM     25  C   LIG    1       29.154 -18.975   6.473  0.00  0.00    +0.045 A 
ATOM     26  C   LIG    1       28.514 -18.999   5.228  0.00  0.00    +0.004 A 
ATOM     27  C   LIG    1       27.379 -19.788   5.041  0.00  0.00    +0.005 A 
BRANCH  24  28
ATOM     28  O   LIG    1       29.408 -19.731   8.702  0.00  0.00    -0.475 OA
BRANCH  28  29
ATOM     29  C   LIG    1       30.831 -20.002   8.810  0.00  0.00    +0.203 C 
ATOM     30  C   LIG    1       31.531 -19.677   7.471  0.00  0.00    +0.068 C 
BRANCH  29  31
ATOM     31  C   LIG    1       31.271 -21.395   9.300  0.00  0.00    +0.349 C 
ATOM     32  O   LIG    1       30.853 -21.919  10.350  0.00  0.00    -0.246 OA
BRANCH  31  33
ATOM     33  O   LIG    1       32.147 -22.034   8.501  0.00  0.00    -0.478 OA
ATOM     34  H   LIG    1       33.012 -22.208   8.937  0.00  0.00    +0.295 HD
ENDBRANCH  31  33
ENDBRANCH  29  31
BRANCH  29  35
ATOM     35  C   LIG    1       31.383 -18.999   9.882  0.00  0.00    +0.056 C 
ATOM     36  C   LIG    1       30.511 -17.765  10.146  0.00  0.00    +0.008 C 
ENDBRANCH  29  35
ENDBRANCH  28  29
ENDBRANCH  24  28
ENDBRANCH   1  22
TORSDOF 12
ENDMDL
MODEL 4
REMARK VINA RESULT:      -9.2      1.716      2.634
REMARK  Name = *****
REMARK                            x       y       z     vdW  Elec       q    Type
REMARK                         _______ _______ _______ _____ _____    ______ ____
ROOT
ATOM      1  C   LIG    1       25.495 -20.933   6.241  0.00  0.00    +0.021 C 
ATOM      2  C   LIG    1       25.001 -20.436   4.848  0.00  0.00    +0.016 C 
ATOM      3  C   LIG    1       23.483 -20.587   4.660  0.00  0.00    +0.001 C 
ATOM      4  C   LIG    1       22.720 -19.792   5.710  0.00  0.00    +0.000 C 
ATOM      5  C   LIG    1       23.097 -20.230   7.118  0.00  0.00    +0.001 C 
ATOM      6  C   LIG    1       24.605 -20.206   7.327  0.00  0.00    +0.016 C 
ENDROOT
BRANCH   1  10
ATOM      7  C   LIG    1       25.003 -25.364   6.561  0.00  0.00    +0.122 A 
ATOM      8  C   LIG    1       24.414 -24.627   5.543  0.00  0.00    +0.046 A 
ATOM      9  C   LIG    1       24.550 -23.228   5.464  0.00  0.00    +0.008 A 
ATOM     10  C   LIG    1       25.351 -22.500   6.356  0.00  0.00    -0.037 A 
ATOM     11  C   LIG    1       25.977 -23.267   7.364  0.00  0.00    +0.008 A 
ATOM     12  C   LIG    1       25.805 -24.668   7.463  0.00  0.00    +0.046 A 
BRANCH   7  13
ATOM     13  O   LIG    1       24.882 -26.716   6.765  0.00  0.00    -0.475 OA
BRANCH  13  14
ATOM     14  C   LIG    1       25.390 -27.702   5.845  0.00  0.00    +0.203 C 
ATOM     15  C   LIG    1       24.242 -28.357   5.048  0.00  0.00    +0.068 C 
BRANCH  14  17
ATOM     16  C   LIG    1       25.403 -28.985   8.135  0.00  0.00    +0.008 C 
ATOM     17  C   LIG    1       25.979 -28.852   6.729  0.00  0.00    +0.056 C 
ENDBRANCH  14  17
BRANCH  14  18
ATOM     18  C   LIG    1       26.500 -27.174   4.856  0.00  0.00    +0.349 C 
ATOM     19  O   LIG    1       26.347 -26.960   3.696  0.00  0.00    -0.246 OA
BRANCH  18  20
ATOM     20  O   LIG    1       27.731 -27.003   5.410  0.00  0.00    -0.478 OA
ATOM     21  H   LIG    1       28.282 -27.789   5.532  0.00  0.00    +0.295 HD
ENDBRANCH  18  20
ENDBRANCH  14  18
ENDBRANCH  13  14
ENDBRANCH   7  13
ENDBRANCH   1  10
BRANCH   1  22
ATOM     22  C   LIG    1       26.985 -20.462   6.454  0.00  0.00    -0.033 A 
ATOM     23  C   LIG    1       27.483 -20.167   7.739  0.00  0.00    +0.050 A 
ATOM     24  C   LIG    1       28.726 -19.561   7.967  0.00  0.00    +0.122 A 
ATOM     25  C   LIG    1       29.518 -19.263   6.845  0.00  0.00    +0.045 A 
ATOM     26  C   LIG    1       29.110 -19.653   5.565  0.00  0.00    +0.004 A 
ATOM     27  C   LIG    1       27.878 -20.282   5.385  0.00  0.00    +0.005 A 
BRANCH  24  28
ATOM     28  O   LIG    1       29.217 -19.168   9.192  0.00  0.00    -0.475 OA
BRANCH  28  29
ATOM     29  C   LIG    1       30.315 -18.232   9.361  0.00  0.00    +0.203 C 
ATOM     30  C   LIG    1       29.967 -16.887   8.685  0.00  0.00    +0.068 C 
BRANCH  29  31
ATOM     31  C   LIG    1       31.725 -18.680   8.930  0.00  0.00    +0.349 C 
ATOM     32  O   LIG    1       32.200 -19.802   9.188  0.00  0.00    -0.246 OA
BRANCH  31  33
ATOM     33  O   LIG    1       32.427 -17.768   8.230  0.00  0.00    -0.478 OA
ATOM     34  H   LIG    1       32.833 -18.137   7.413  0.00  0.00    +0.295 HD
ENDBRANCH  31  33
ENDBRANCH  29  31
BRANCH  29  35
ATOM     35  C   LIG    1       30.424 -17.966  10.902  0.00  0.00    +0.056 C 
ATOM     36  C   LIG    1       31.065 -16.629  11.299  0.00  0.00    +0.008 C 
ENDBRANCH  29  35
ENDBRANCH  28  29
ENDBRANCH  24  28
ENDBRANCH   1  22
TORSDOF 12
ENDMDL
MODEL 5
REMARK VINA RESULT:      -8.7      1.604      8.193
REMARK  Name = *****
REMARK                            x       y       z     vdW  Elec       q    Type
REMARK                         _______ _______ _______ _____ _____    ______ ____
ROOT
ATOM      1  C   LIG    1       24.883 -22.400   6.063  0.00  0.00    +0.021 C 
ATOM      2  C   LIG    1       23.972 -22.232   7.318  0.00  0.00    +0.016 C 
ATOM      3  C   LIG    1       23.521 -20.780   7.542  0.00  0.00    +0.001 C 
ATOM      4  C   LIG    1       22.731 -20.262   6.349  0.00  0.00    +0.000 C 
ATOM      5  C   LIG    1       23.547 -20.341   5.067  0.00  0.00    +0.001 C 
ATOM      6  C   LIG    1       24.114 -21.737   4.849  0.00  0.00    +0.016 C 
ENDROOT
BRANCH   1  10
ATOM      7  C   LIG    1       28.822 -20.418   6.792  0.00  0.00    +0.122 A 
ATOM      8  C   LIG    1       28.411 -21.532   7.511  0.00  0.00    +0.046 A 
ATOM      9  C   LIG    1       27.156 -22.134   7.296  0.00  0.00    +0.008 A 
ATOM     10  C   LIG    1       26.279 -21.702   6.291  0.00  0.00    -0.037 A 
ATOM     11  C   LIG    1       26.727 -20.593   5.539  0.00  0.00    +0.008 A 
ATOM     12  C   LIG    1       27.970 -19.966   5.786  0.00  0.00    +0.046 A 
BRANCH   7  13
ATOM     13  O   LIG    1       29.991 -19.721   6.965  0.00  0.00    -0.475 OA
BRANCH  13  14
ATOM     14  C   LIG    1       30.606 -19.516   8.252  0.00  0.00    +0.203 C 
ATOM     15  C   LIG    1       29.662 -18.743   9.198  0.00  0.00    +0.068 C 
BRANCH  14  17
ATOM     16  C   LIG    1       32.050 -17.480   9.063  0.00  0.00    +0.008 C 
ATOM     17  C   LIG    1       31.813 -18.551   8.004  0.00  0.00    +0.056 C 
ENDBRANCH  14  17
BRANCH  14  18
ATOM     18  C   LIG    1       31.117 -20.832   8.958  0.00  0.00    +0.349 C 
ATOM     19  O   LIG    1       30.913 -21.132  10.091  0.00  0.00    -0.246 OA
BRANCH  18  20
ATOM     20  O   LIG    1       31.886 -21.641   8.180  0.00  0.00    -0.478 OA
ATOM     21  H   LIG    1       31.784 -22.597   8.288  0.00  0.00    +0.295 HD
ENDBRANCH  18  20
ENDBRANCH  14  18
ENDBRANCH  13  14
ENDBRANCH   7  13
ENDBRANCH   1  10
BRANCH   1  22
ATOM     22  C   LIG    1       25.037 -23.937   5.745  0.00  0.00    -0.033 A 
ATOM     23  C   LIG    1       25.371 -24.864   6.753  0.00  0.00    +0.050 A 
ATOM     24  C   LIG    1       25.711 -26.198   6.495  0.00  0.00    +0.122 A 
ATOM     25  C   LIG    1       25.686 -26.628   5.158  0.00  0.00    +0.045 A 
ATOM     26  C   LIG    1       25.240 -25.771   4.146  0.00  0.00    +0.004 A 
ATOM     27  C   LIG    1       24.881 -24.458   4.449  0.00  0.00    +0.005 A 
BRANCH  24  28
ATOM     28  O   LIG    1       26.136 -27.115   7.431  0.00  0.00    -0.475 OA
BRANCH  28  29
ATOM     29  C   LIG    1       25.598 -28.459   7.548  0.00  0.00    +0.203 C 
ATOM     30  C   LIG    1       24.055 -28.416   7.471  0.00  0.00    +0.068 C 
BRANCH  29  31
ATOM     31  C   LIG    1       26.032 -29.314   8.755  0.00  0.00    +0.349 C 
ATOM     32  O   LIG    1       25.369 -30.273   9.193  0.00  0.00    -0.246 OA
BRANCH  31  33
ATOM     33  O   LIG    1       27.207 -28.964   9.314  0.00  0.00    -0.478 OA
ATOM     34  H   LIG    1       27.382 -27.997   9.270  0.00  0.00    +0.295 HD
ENDBRANCH  31  33
ENDBRANCH  29  31
BRANCH  29  35
ATOM     35  C   LIG    1       26.107 -29.242   6.289  0.00  0.00    +0.056 C 
ATOM     36  C   LIG    1       25.084 -30.181   5.634  0.00  0.00    +0.008 C 
ENDBRANCH  29  35
ENDBRANCH  28  29
ENDBRANCH  24  28
ENDBRANCH   1  22
TORSDOF 12
ENDMDL
MODEL 6
REMARK VINA RESULT:      -8.4      1.553      8.656
REMARK  Name = *****
REMARK                            x       y       z     vdW  Elec       q    Type
REMARK                         _______ _______ _______ _____ _____    ______ ____
ROOT
ATOM      1  C   LIG    1       24.641 -23.122   6.115  0.00  0.00    +0.021 C 
ATOM      2  C   LIG    1       23.295 -23.053   6.900  0.00  0.00    +0.016 C 
ATOM      3  C   LIG    1       22.588 -21.696   6.760  0.00  0.00    +0.001 C 
ATOM      4  C   LIG    1       22.266 -21.396   5.303  0.00  0.00    +0.000 C 
ATOM      5  C   LIG    1       23.523 -21.396   4.446  0.00  0.00    +0.001 C 
ATOM      6  C   LIG    1       24.326 -22.676   4.630  0.00  0.00    +0.016 C 
ENDROOT
BRANCH   1  10
ATOM      7  C   LIG    1       27.743 -20.447   7.904  0.00  0.00    +0.122 A 
ATOM      8  C   LIG    1       27.300 -20.294   6.598  0.00  0.00    +0.046 A 
ATOM      9  C   LIG    1       26.343 -21.159   6.031  0.00  0.00    +0.008 A 
ATOM     10  C   LIG    1       25.717 -22.173   6.770  0.00  0.00    -0.037 A 
ATOM     11  C   LIG    1       26.148 -22.292   8.110  0.00  0.00    +0.008 A 
ATOM     12  C   LIG    1       27.139 -21.448   8.663  0.00  0.00    +0.046 A 
BRANCH   7  13
ATOM     13  O   LIG    1       28.712 -19.703   8.529  0.00  0.00    -0.475 OA
BRANCH  13  14
ATOM     14  C   LIG    1       30.111 -19.791   8.199  0.00  0.00    +0.203 C 
ATOM     15  C   LIG    1       30.388 -19.192   6.803  0.00  0.00    +0.068 C 
BRANCH  14  17
ATOM     16  C   LIG    1       30.911 -22.029   9.313  0.00  0.00    +0.008 C 
ATOM     17  C   LIG    1       30.425 -21.318   8.055  0.00  0.00    +0.056 C 
ENDBRANCH  14  17
BRANCH  14  18
ATOM     18  C   LIG    1       31.083 -19.149   9.264  0.00  0.00    +0.349 C 
ATOM     19  O   LIG    1       32.261 -19.033   9.142  0.00  0.00    -0.246 OA
BRANCH  18  20
ATOM     20  O   LIG    1       30.488 -18.748  10.420  0.00  0.00    -0.478 OA
ATOM     21  H   LIG    1       31.022 -18.758  11.226  0.00  0.00    +0.295 HD
ENDBRANCH  18  20
ENDBRANCH  14  18
ENDBRANCH  13  14
ENDBRANCH   7  13
ENDBRANCH   1  10
BRANCH   1  22
ATOM     22  C   LIG    1       25.129 -24.621   6.068  0.00  0.00    -0.033 A 
ATOM     23  C   LIG    1       24.261 -25.685   6.387  0.00  0.00    +0.050 A 
ATOM     24  C   LIG    1       24.688 -27.009   6.552  0.00  0.00    +0.122 A 
ATOM     25  C   LIG    1       26.053 -27.281   6.358  0.00  0.00    +0.045 A 
ATOM     26  C   LIG    1       26.920 -26.274   5.919  0.00  0.00    +0.004 A 
ATOM     27  C   LIG    1       26.448 -24.974   5.737  0.00  0.00    +0.005 A 
BRANCH  24  28
ATOM     28  O   LIG    1       23.900 -28.064   6.955  0.00  0.00    -0.475 OA
BRANCH  28  29
ATOM     29  C   LIG    1       24.410 -29.394   7.237  0.00  0.00    +0.203 C 
ATOM     30  C   LIG    1       25.771 -29.291   7.963  0.00  0.00    +0.068 C 
BRANCH  29  31
ATOM     31  C   LIG    1       24.520 -30.394   6.070  0.00  0.00    +0.349 C 
ATOM     32  O   LIG    1       25.571 -30.596   5.433  0.00  0.00    -0.246 OA
BRANCH  31  33
ATOM     33  O   LIG    1       23.388 -31.063   5.779  0.00  0.00    -0.478 OA
ATOM     34  H   LIG    1       23.449 -31.582   4.946  0.00  0.00    +0.295 HD
ENDBRANCH  31  33
ENDBRANCH  29  31
BRANCH  29  35
ATOM     35  C   LIG    1       23.395 -30.046   8.238  0.00  0.00    +0.056 C 
ATOM     36  C   LIG    1       23.884 -30.175   9.688  0.00  0.00    +0.008 C 
ENDBRANCH  29  35
ENDBRANCH  28  29
ENDBRANCH  24  28
ENDBRANCH   1  22
TORSDOF 12
ENDMDL
MODEL 7
REMARK VINA RESULT:      -8.3      1.427      7.747
REMARK  Name = *****
REMARK                            x       y       z     vdW  Elec       q    Type
REMARK                         _______ _______ _______ _____ _____    ______ ____
ROOT
ATOM      1  C   LIG    1       24.673 -21.160   5.217  0.00  0.00    +0.021 C 
ATOM      2  C   LIG    1       23.641 -20.133   5.778  0.00  0.00    +0.016 C 
ATOM      3  C   LIG    1       23.750 -18.750   5.116  0.00  0.00    +0.001 C 
ATOM      4  C   LIG    1       23.512 -18.842   3.616  0.00  0.00    +0.000 C 
ATOM      5  C   LIG    1       24.500 -19.793   2.955  0.00  0.00    +0.001 C 
ATOM      6  C   LIG    1       24.515 -21.151   3.643  0.00  0.00    +0.016 C 
ENDROOT
BRANCH   1  10
ATOM      7  C   LIG    1       28.803 -20.018   6.486  0.00  0.00    +0.122 A 
ATOM      8  C   LIG    1       28.079 -21.008   7.134  0.00  0.00    +0.046 A 
ATOM      9  C   LIG    1       26.767 -21.343   6.747  0.00  0.00    +0.008 A 
ATOM     10  C   LIG    1       26.140 -20.760   5.637  0.00  0.00    -0.037 A 
ATOM     11  C   LIG    1       26.903 -19.782   4.961  0.00  0.00    +0.008 A 
ATOM     12  C   LIG    1       28.205 -19.419   5.379  0.00  0.00    +0.046 A 
BRANCH   7  13
ATOM     13  O   LIG    1       30.058 -19.572   6.821  0.00  0.00    -0.475 OA
BRANCH  13  14
ATOM     14  C   LIG    1       30.498 -19.401   8.182  0.00  0.00    +0.203 C 
ATOM     15  C   LIG    1       29.431 -18.662   9.019  0.00  0.00    +0.068 C 
BRANCH  14  17
ATOM     16  C   LIG    1       31.708 -17.269   9.120  0.00  0.00    +0.008 C 
ATOM     17  C   LIG    1       31.717 -18.420   8.120  0.00  0.00    +0.056 C 
ENDBRANCH  14  17
BRANCH  14  18
ATOM     18  C   LIG    1       30.927 -20.733   8.911  0.00  0.00    +0.349 C 
ATOM     19  O   LIG    1       30.207 -21.647   9.160  0.00  0.00    -0.246 OA
BRANCH  18  20
ATOM     20  O   LIG    1       32.228 -20.780   9.307  0.00  0.00    -0.478 OA
ATOM     21  H   LIG    1       32.484 -21.477   9.926  0.00  0.00    +0.295 HD
ENDBRANCH  18  20
ENDBRANCH  14  18
ENDBRANCH  13  14
ENDBRANCH   7  13
ENDBRANCH   1  10
BRANCH   1  22
ATOM     22  C   LIG    1       24.287 -22.602   5.725  0.00  0.00    -0.033 A 
ATOM     23  C   LIG    1       24.913 -23.754   5.206  0.00  0.00    +0.050 A 
ATOM     24  C   LIG    1       24.477 -25.058   5.475  0.00  0.00    +0.122 A 
ATOM     25  C   LIG    1       23.373 -25.211   6.330  0.00  0.00    +0.045 A 
ATOM     26  C   LIG    1       22.805 -24.098   6.961  0.00  0.00    +0.004 A 
ATOM     27  C   LIG    1       23.289 -22.819   6.690  0.00  0.00    +0.005 A 
BRANCH  24  28
ATOM     28  O   LIG    1       24.992 -26.208   4.919  0.00  0.00    -0.475 OA
BRANCH  28  29
ATOM     29  C   LIG    1       25.937 -27.079   5.595  0.00  0.00    +0.203 C 
ATOM     30  C   LIG    1       25.975 -26.744   7.103  0.00  0.00    +0.068 C 
BRANCH  29  31
ATOM     31  C   LIG    1       27.375 -27.159   5.045  0.00  0.00    +0.349 C 
ATOM     32  O   LIG    1       27.657 -27.603   3.917  0.00  0.00    -0.246 OA
BRANCH  31  33
ATOM     33  O   LIG    1       28.332 -26.696   5.873  0.00  0.00    -0.478 OA
ATOM     34  H   LIG    1       28.150 -25.789   6.206  0.00  0.00    +0.295 HD
ENDBRANCH  31  33
ENDBRANCH  29  31
BRANCH  29  35
ATOM     35  C   LIG    1       25.366 -28.532   5.454  0.00  0.00    +0.056 C 
ATOM     36  C   LIG    1       24.453 -29.000   6.596  0.00  0.00    +0.008 C 
ENDBRANCH  29  35
ENDBRANCH  28  29
ENDBRANCH  24  28
ENDBRANCH   1  22
TORSDOF 12
ENDMDL
MODEL 8
REMARK VINA RESULT:      -8.2      4.278     10.769
REMARK  Name = *****
REMARK                            x       y       z     vdW  Elec       q    Type
REMARK                         _______ _______ _______ _____ _____    ______ ____
ROOT
ATOM      1  C   LIG    1       24.789 -30.357   8.032  0.00  0.00    +0.021 C 
ATOM      2  C   LIG    1       23.712 -31.190   7.271  0.00  0.00    +0.016 C 
ATOM      3  C   LIG    1       24.172 -31.628   5.872  0.00  0.00    +0.001 C 
ATOM      4  C   LIG    1       25.422 -32.491   5.953  0.00  0.00    +0.000 C 
ATOM      5  C   LIG    1       26.559 -31.755   6.646  0.00  0.00    +0.001 C 
ATOM      6  C   LIG    1       26.127 -31.199   7.995  0.00  0.00    +0.016 C 
ENDROOT
BRANCH   1  10
ATOM      7  C   LIG    1       25.365 -26.335   6.169  0.00  0.00    +0.122 A 
ATOM      8  C   LIG    1       26.189 -26.805   7.181  0.00  0.00    +0.046 A 
ATOM      9  C   LIG    1       25.985 -28.062   7.783  0.00  0.00    +0.008 A 
ATOM     10  C   LIG    1       24.992 -28.950   7.347  0.00  0.00    -0.037 A 
ATOM     11  C   LIG    1       24.185 -28.476   6.289  0.00  0.00    +0.008 A 
ATOM     12  C   LIG    1       24.368 -27.197   5.715  0.00  0.00    +0.046 A 
BRANCH   7  13
ATOM     13  O   LIG    1       25.438 -25.107   5.560  0.00  0.00    -0.475 OA
BRANCH  13  14
ATOM     14  C   LIG    1       24.983 -23.890   6.182  0.00  0.00    +0.203 C 
ATOM     15  C   LIG    1       25.787 -23.591   7.466  0.00  0.00    +0.068 C 
BRANCH  14  17
ATOM     16  C   LIG    1       22.646 -22.956   6.927  0.00  0.00    +0.008 C 
ATOM     17  C   LIG    1       23.524 -24.176   6.673  0.00  0.00    +0.056 C 
ENDBRANCH  14  17
BRANCH  14  18
ATOM     18  C   LIG    1       24.985 -22.625   5.238  0.00  0.00    +0.349 C 
ATOM     19  O   LIG    1       25.338 -21.532   5.549  0.00  0.00    -0.246 OA
BRANCH  18  20
ATOM     20  O   LIG    1       24.494 -22.838   3.988  0.00  0.00    -0.478 OA
ATOM     21  H   LIG    1       24.470 -22.086   3.380  0.00  0.00    +0.295 HD
ENDBRANCH  18  20
ENDBRANCH  14  18
ENDBRANCH  13  14
ENDBRANCH   7  13
ENDBRANCH   1  10
BRANCH   1  22
ATOM     22  C   LIG    1       24.356 -30.219   9.543  0.00  0.00    -0.033 A 
ATOM     23  C   LIG    1       23.002 -30.304   9.927  0.00  0.00    +0.050 A 
ATOM     24  C   LIG    1       22.544 -29.996  11.215  0.00  0.00    +0.122 A 
ATOM     25  C   LIG    1       23.499 -29.611  12.171  0.00  0.00    +0.045 A 
ATOM     26  C   LIG    1       24.863 -29.635  11.859  0.00  0.00    +0.004 A 
ATOM     27  C   LIG    1       25.280 -29.977  10.573  0.00  0.00    +0.005 A 
BRANCH  24  28
ATOM     28  O   LIG    1       21.226 -29.971  11.615  0.00  0.00    -0.475 OA
BRANCH  28  29
ATOM     29  C   LIG    1       20.375 -31.146  11.669  0.00  0.00    +0.203 C 
ATOM     30  C   LIG    1       21.222 -32.394  12.007  0.00  0.00    +0.068 C 
BRANCH  29  31
ATOM     31  C   LIG    1       19.471 -31.447  10.457  0.00  0.00    +0.349 C 
ATOM     32  O   LIG    1       19.212 -32.599  10.061  0.00  0.00    -0.246 OA
BRANCH  31  33
ATOM     33  O   LIG    1       18.953 -30.365   9.844  0.00  0.00    -0.478 OA
ATOM     34  H   LIG    1       18.821 -30.494   8.878  0.00  0.00    +0.295 HD
ENDBRANCH  31  33
ENDBRANCH  29  31
BRANCH  29  35
ATOM     35  C   LIG    1       19.388 -30.913  12.865  0.00  0.00    +0.056 C 
ATOM     36  C   LIG    1       19.619 -29.630  13.675  0.00  0.00    +0.008 C 
ENDBRANCH  29  35
ENDBRANCH  28  29
ENDBRANCH  24  28
ENDBRANCH   1  22
TORSDOF 12
ENDMDL
MODEL 9
REMARK VINA RESULT:      -8.2      3.762      7.570
REMARK  Name = *****
REMARK                            x       y       z     vdW  Elec       q    Type
REMARK                         _______ _______ _______ _____ _____    ______ ____
ROOT
ATOM      1  C   LIG    1       24.473 -21.010   5.690  0.00  0.00    +0.021 C 
ATOM      2  C   LIG    1       24.607 -22.209   4.701  0.00  0.00    +0.016 C 
ATOM      3  C   LIG    1       24.700 -23.567   5.414  0.00  0.00    +0.001 C 
ATOM      4  C   LIG    1       23.462 -23.827   6.259  0.00  0.00    +0.000 C 
ATOM      5  C   LIG    1       23.257 -22.731   7.294  0.00  0.00    +0.001 C 
ATOM      6  C   LIG    1       23.267 -21.349   6.656  0.00  0.00    +0.016 C 
ENDROOT
BRANCH   1  10
ATOM      7  C   LIG    1       28.224 -20.369   8.034  0.00  0.00    +0.122 A 
ATOM      8  C   LIG    1       26.967 -20.303   8.618  0.00  0.00    +0.046 A 
ATOM      9  C   LIG    1       25.788 -20.478   7.868  0.00  0.00    +0.008 A 
ATOM     10  C   LIG    1       25.808 -20.810   6.506  0.00  0.00    -0.037 A 
ATOM     11  C   LIG    1       27.094 -20.914   5.932  0.00  0.00    +0.008 A 
ATOM     12  C   LIG    1       28.275 -20.697   6.680  0.00  0.00    +0.046 A 
BRANCH   7  13
ATOM     13  O   LIG    1       29.427 -20.153   8.658  0.00  0.00    -0.475 OA
BRANCH  13  14
ATOM     14  C   LIG    1       30.299 -19.052   8.334  0.00  0.00    +0.203 C 
ATOM     15  C   LIG    1       31.666 -19.206   9.035  0.00  0.00    +0.068 C 
BRANCH  14  17
ATOM     16  C   LIG    1       30.373 -17.199  10.190  0.00  0.00    +0.008 C 
ATOM     17  C   LIG    1       29.650 -17.784   8.983  0.00  0.00    +0.056 C 
ENDBRANCH  14  17
BRANCH  14  18
ATOM     18  C   LIG    1       30.509 -18.808   6.789  0.00  0.00    +0.349 C 
ATOM     19  O   LIG    1       29.876 -18.059   6.116  0.00  0.00    -0.246 OA
BRANCH  18  20
ATOM     20  O   LIG    1       31.477 -19.569   6.212  0.00  0.00    -0.478 OA
ATOM     21  H   LIG    1       31.279 -20.502   6.050  0.00  0.00    +0.295 HD
ENDBRANCH  18  20
ENDBRANCH  14  18
ENDBRANCH  13  14
ENDBRANCH   7  13
ENDBRANCH   1  10
BRANCH   1  22
ATOM     22  C   LIG    1       24.081 -19.717   4.876  0.00  0.00    -0.033 A 
ATOM     23  C   LIG    1       25.047 -18.978   4.164  0.00  0.00    +0.050 A 
ATOM     24  C   LIG    1       24.795 -17.725   3.591  0.00  0.00    +0.122 A 
ATOM     25  C   LIG    1       23.497 -17.202   3.717  0.00  0.00    +0.045 A 
ATOM     26  C   LIG    1       22.482 -17.962   4.309  0.00  0.00    +0.004 A 
ATOM     27  C   LIG    1       22.767 -19.219   4.840  0.00  0.00    +0.005 A 
BRANCH  24  28
ATOM     28  O   LIG    1       25.726 -16.923   2.970  0.00  0.00    -0.475 OA
BRANCH  28  29
ATOM     29  C   LIG    1       26.043 -15.571   3.397  0.00  0.00    +0.203 C 
ATOM     30  C   LIG    1       26.002 -14.614   2.184  0.00  0.00    +0.068 C 
BRANCH  29  31
ATOM     31  C   LIG    1       27.344 -15.345   4.191  0.00  0.00    +0.349 C 
ATOM     32  O   LIG    1       27.685 -14.240   4.654  0.00  0.00    -0.246 OA
BRANCH  31  33
ATOM     33  O   LIG    1       28.105 -16.442   4.372  0.00  0.00    -0.478 OA
ATOM     34  H   LIG    1       27.942 -17.141   3.699  0.00  0.00    +0.295 HD
ENDBRANCH  31  33
ENDBRANCH  29  31
BRANCH  29  35
ATOM     35  C   LIG    1       24.891 -15.142   4.370  0.00  0.00    +0.056 C 
ATOM     36  C   LIG    1       24.233 -13.790   4.061  0.00  0.00    +0.008 C 
ENDBRANCH  29  35
ENDBRANCH  28  29
ENDBRANCH  24  28
ENDBRANCH   1  22
TORSDOF 12
ENDMDL
