MODEL 1
REMARK VINA RESULT:      12.6      0.000      0.000
REMARK  Name = *****
REMARK                            x       y       z     vdW  Elec       q    Type
REMARK                         _______ _______ _______ _____ _____    ______ ____
ROOT
ATOM      1  C   LIG    1       24.663 -14.446   5.093  0.00  0.00    +0.129 C 
ATOM      2  C   LIG    1       24.142 -14.939   3.704  0.00  0.00    +0.009 C 
ATOM      3  C   LIG    1       23.111 -16.038   4.089  0.00  0.00    +0.005 C 
ATOM      4  C   LIG    1       23.720 -17.424   4.438  0.00  0.00    +0.034 C 
ATOM      5  C   LIG    1       24.726 -17.932   3.371  0.00  0.00    +0.153 C 
ATOM      6  C   LIG    1       25.800 -16.863   3.071  0.00  0.00    +0.154 C 
ATOM      7  F   LIG    1       24.001 -18.031   2.193  0.00  0.00    -0.238 F 
ATOM      8  C   LIG    1       25.277 -19.400   3.720  0.00  0.00    +0.044 C 
ATOM      9  C   LIG    1       24.631 -19.916   5.034  0.00  0.00    -0.050 C 
ATOM     10  C   LIG    1       25.363 -20.333   6.085  0.00  0.00    +0.051 C 
ATOM     11  C   LIG    1       26.840 -20.352   6.082  0.00  0.00    +0.179 C 
ATOM     12  C   LIG    1       27.512 -19.913   4.852  0.00  0.00    +0.047 C 
ATOM     13  O   LIG    1       27.475 -20.719   7.062  0.00  0.00    -0.288 OA
ATOM     14  C   LIG    1       23.105 -19.850   5.076  0.00  0.00    +0.013 C 
ATOM     15  C   LIG    1       22.458 -20.171   6.434  0.00  0.00    +0.012 C 
ATOM     16  C   LIG    1       24.893 -20.381   2.581  0.00  0.00    +0.023 C 
ATOM     17  C   LIG    1       26.801 -19.492   3.799  0.00  0.00    -0.009 C 
ATOM     18  C   LIG    1       22.597 -18.479   4.584  0.00  0.00    +0.014 C 
ATOM     19  C   LIG    1       22.391 -15.414   5.294  0.00  0.00    +0.008 C 
ATOM     20  C   LIG    1       23.406 -13.788   2.961  0.00  0.00    +0.015 C 
ATOM     21  C   LIG    1       25.196 -15.498   2.734  0.00  0.00    +0.044 C 
ATOM     22  C   LIG    1       23.431 -14.558   6.024  0.00  0.00    +0.043 C 
ENDROOT
BRANCH   1  24
ATOM     23  C   LIG    1       26.742 -12.863   4.863  0.00  0.00    +0.089 C 
ATOM     24  C   LIG    1       25.258 -13.013   5.088  0.00  0.00    +0.162 C 
ATOM     25  O   LIG    1       24.557 -12.008   5.226  0.00  0.00    -0.295 OA
ENDBRANCH   1  24
BRANCH   6  26
ATOM     26  O   LIG    1       26.569 -17.237   1.913  0.00  0.00    -0.389 OA
ATOM     27  H   LIG    1       25.924 -17.453   1.211  0.00  0.00    +0.210 HD
ENDBRANCH   6  26
BRANCH   1  28
ATOM     28  O   LIG    1       25.656 -15.341   5.599  0.00  0.00    -0.381 OA
ATOM     29  H   LIG    1       26.522 -15.050   5.258  0.00  0.00    +0.211 HD
ENDBRANCH   1  28
TORSDOF 3
ENDMDL
MODEL 2
REMARK VINA RESULT:      15.1      1.500      2.012
REMARK  Name = *****
REMARK                            x       y       z     vdW  Elec       q    Type
REMARK                         _______ _______ _______ _____ _____    ______ ____
ROOT
ATOM      1  C   LIG    1       25.337 -14.163   5.052  0.00  0.00    +0.129 C 
ATOM      2  C   LIG    1       25.822 -14.540   3.614  0.00  0.00    +0.009 C 
ATOM      3  C   LIG    1       24.547 -15.149   2.965  0.00  0.00    +0.005 C 
ATOM      4  C   LIG    1       24.256 -16.629   3.338  0.00  0.00    +0.034 C 
ATOM      5  C   LIG    1       25.489 -17.555   3.157  0.00  0.00    +0.153 C 
ATOM      6  C   LIG    1       26.723 -16.982   3.889  0.00  0.00    +0.154 C 
ATOM      7  F   LIG    1       25.820 -17.475   1.812  0.00  0.00    -0.238 F 
ATOM      8  C   LIG    1       25.136 -19.089   3.473  0.00  0.00    +0.044 C 
ATOM      9  C   LIG    1       23.639 -19.224   3.862  0.00  0.00    -0.050 C 
ATOM     10  C   LIG    1       23.240 -19.796   5.015  0.00  0.00    +0.051 C 
ATOM     11  C   LIG    1       24.182 -20.356   6.006  0.00  0.00    +0.179 C 
ATOM     12  C   LIG    1       25.612 -20.293   5.678  0.00  0.00    +0.047 C 
ATOM     13  O   LIG    1       23.786 -20.850   7.053  0.00  0.00    -0.288 OA
ATOM     14  C   LIG    1       22.653 -18.601   2.875  0.00  0.00    +0.013 C 
ATOM     15  C   LIG    1       21.187 -18.552   3.335  0.00  0.00    +0.012 C 
ATOM     16  C   LIG    1       25.380 -19.949   2.205  0.00  0.00    +0.023 C 
ATOM     17  C   LIG    1       26.027 -19.727   4.539  0.00  0.00    -0.009 C 
ATOM     18  C   LIG    1       23.103 -17.182   2.467  0.00  0.00    +0.014 C 
ATOM     19  C   LIG    1       23.437 -14.210   3.461  0.00  0.00    +0.008 C 
ATOM     20  C   LIG    1       26.233 -13.262   2.828  0.00  0.00    +0.015 C 
ATOM     21  C   LIG    1       27.001 -15.522   3.523  0.00  0.00    +0.044 C 
ATOM     22  C   LIG    1       23.860 -13.740   4.857  0.00  0.00    +0.043 C 
ENDROOT
BRANCH   1  24
ATOM     23  C   LIG    1       27.598 -13.369   6.120  0.00  0.00    +0.089 C 
ATOM     24  C   LIG    1       26.171 -13.053   5.745  0.00  0.00    +0.162 C 
ATOM     25  O   LIG    1       25.719 -11.927   5.962  0.00  0.00    -0.295 OA
ENDBRANCH   1  24
BRANCH   6  26
ATOM     26  O   LIG    1       27.909 -17.704   3.510  0.00  0.00    -0.389 OA
ATOM     27  H   LIG    1       28.633 -17.048   3.478  0.00  0.00    +0.210 HD
ENDBRANCH   6  26
BRANCH   1  28
ATOM     28  O   LIG    1       25.337 -15.315   5.897  0.00  0.00    -0.381 OA
ATOM     29  H   LIG    1       25.997 -15.943   5.547  0.00  0.00    +0.211 HD
ENDBRANCH   1  28
TORSDOF 3
ENDMDL
