MODEL 1
REMARK VINA RESULT:      11.2      0.000      0.000
REMARK  Name = *****
REMARK                            x       y       z     vdW  Elec       q    Type
REMARK                         _______ _______ _______ _____ _____    ______ ____
ROOT
ATOM      1  C   LIG    1       27.199 -13.942   2.879  0.00  0.00    +0.403 C 
ATOM      2  N   LIG    1       27.072 -15.309   2.998  0.00  0.00    -0.267 N 
ATOM      3  C   LIG    1       28.042 -16.158   3.695  0.00  0.00    +0.115 C 
ATOM      4  C   LIG    1       27.401 -16.771   4.943  0.00  0.00    +0.050 C 
ATOM      5  C   LIG    1       26.171 -17.569   4.517  0.00  0.00    -0.057 C 
ATOM      6  C   LIG    1       26.021 -18.912   4.676  0.00  0.00    +0.007 C 
ATOM      7  C   LIG    1       27.072 -19.731   5.340  0.00  0.00    +0.075 A 
ATOM      8  C   LIG    1       26.803 -20.573   6.427  0.00  0.00    -0.021 A 
ATOM      9  C   LIG    1       27.888 -21.298   6.953  0.00  0.00    +0.007 A 
ATOM     10  C   LIG    1       29.158 -21.178   6.402  0.00  0.00    +0.020 A 
ATOM     11  C   LIG    1       29.315 -20.342   5.318  0.00  0.00    +0.111 A 
ATOM     12  C   LIG    1       25.446 -20.817   7.059  0.00  0.00    +0.042 C 
ATOM     13  C   LIG    1       24.257 -19.920   6.688  0.00  0.00    +0.040 C 
ATOM     14  C   LIG    1       23.883 -20.045   5.231  0.00  0.00    -0.038 A 
ATOM     15  C   LIG    1       22.688 -20.665   4.839  0.00  0.00    +0.024 A 
ATOM     16  C   LIG    1       22.388 -20.809   3.483  0.00  0.00    +0.041 A 
ATOM     17 CL   LIG    1       20.919 -21.572   3.012  0.00  0.00    -0.084 Cl
ATOM     18  C   LIG    1       23.272 -20.354   2.507  0.00  0.00    +0.020 A 
ATOM     19  C   LIG    1       24.465 -19.737   2.889  0.00  0.00    +0.010 A 
ATOM     20  N   LIG    1       28.308 -19.629   4.774  0.00  0.00    -0.255 NA
ATOM     21  C   LIG    1       24.763 -19.562   4.247  0.00  0.00    -0.013 A 
ATOM     22  C   LIG    1       25.167 -16.633   3.843  0.00  0.00    +0.050 C 
ATOM     23  C   LIG    1       25.818 -15.961   2.622  0.00  0.00    +0.115 C 
ATOM     24  O   LIG    1       26.390 -13.227   2.297  0.00  0.00    -0.226 OA
ENDROOT
BRANCH   1  25
ATOM     25  O   LIG    1       28.311 -13.472   3.501  0.00  0.00    -0.451 OA
BRANCH  25  27
ATOM     26  C   LIG    1       27.133 -13.266   5.598  0.00  0.00    +0.048 C 
ATOM     27  C   LIG    1       28.085 -12.607   4.620  0.00  0.00    +0.230 C 
ENDBRANCH  25  27
ENDBRANCH   1  25
TORSDOF 2
ENDMDL
MODEL 2
REMARK VINA RESULT:      11.4      2.659      4.630
REMARK  Name = *****
REMARK                            x       y       z     vdW  Elec       q    Type
REMARK                         _______ _______ _______ _____ _____    ______ ____
ROOT
ATOM      1  C   LIG    1       26.407 -13.230   2.741  0.00  0.00    +0.403 C 
ATOM      2  N   LIG    1       26.034 -14.334   3.477  0.00  0.00    -0.267 N 
ATOM      3  C   LIG    1       24.677 -14.888   3.481  0.00  0.00    +0.115 C 
ATOM      4  C   LIG    1       24.679 -16.281   2.844  0.00  0.00    +0.050 C 
ATOM      5  C   LIG    1       25.644 -17.172   3.623  0.00  0.00    -0.057 C 
ATOM      6  C   LIG    1       25.288 -18.290   4.312  0.00  0.00    +0.007 C 
ATOM      7  C   LIG    1       23.878 -18.769   4.327  0.00  0.00    +0.075 A 
ATOM      8  C   LIG    1       23.518 -20.075   3.972  0.00  0.00    -0.021 A 
ATOM      9  C   LIG    1       22.150 -20.399   4.039  0.00  0.00    +0.007 A 
ATOM     10  C   LIG    1       21.216 -19.455   4.449  0.00  0.00    +0.020 A 
ATOM     11  C   LIG    1       21.674 -18.203   4.801  0.00  0.00    +0.111 A 
ATOM     12  C   LIG    1       24.465 -21.190   3.570  0.00  0.00    +0.042 C 
ATOM     13  C   LIG    1       25.936 -20.873   3.271  0.00  0.00    +0.040 C 
ATOM     14  C   LIG    1       26.664 -20.348   4.486  0.00  0.00    -0.038 A 
ATOM     15  C   LIG    1       27.646 -21.113   5.129  0.00  0.00    +0.024 A 
ATOM     16  C   LIG    1       28.271 -20.625   6.278  0.00  0.00    +0.041 A 
ATOM     17 CL   LIG    1       29.475 -21.572   7.062  0.00  0.00    -0.084 Cl
ATOM     18  C   LIG    1       27.919 -19.384   6.805  0.00  0.00    +0.020 A 
ATOM     19  C   LIG    1       26.941 -18.617   6.171  0.00  0.00    +0.010 A 
ATOM     20  N   LIG    1       22.973 -17.846   4.758  0.00  0.00    -0.255 NA
ATOM     21  C   LIG    1       26.328 -19.085   5.001  0.00  0.00    -0.013 A 
ATOM     22  C   LIG    1       27.052 -16.582   3.547  0.00  0.00    +0.050 C 
ATOM     23  C   LIG    1       27.054 -15.157   4.126  0.00  0.00    +0.115 C 
ATOM     24  O   LIG    1       27.541 -12.762   2.734  0.00  0.00    -0.226 OA
ENDROOT
BRANCH   1  25
ATOM     25  O   LIG    1       25.381 -12.732   2.003  0.00  0.00    -0.451 OA
BRANCH  25  27
ATOM     26  C   LIG    1       23.816 -11.713   3.533  0.00  0.00    +0.048 C 
ATOM     27  C   LIG    1       24.842 -11.480   2.443  0.00  0.00    +0.230 C 
ENDBRANCH  25  27
ENDBRANCH   1  25
TORSDOF 2
ENDMDL
