MODEL 1
REMARK VINA RESULT:      -8.4      0.000      0.000
REMARK  Name = *****
REMARK                            x       y       z     vdW  Elec       q    Type
REMARK                         _______ _______ _______ _____ _____    ______ ____
ROOT
ATOM      1  O   LIG    1       28.659 -20.292   6.303  0.00  0.00    -0.489 OA
ENDROOT
BRANCH   1   2
ATOM      2  C   LIG    1       27.441 -20.646   6.817  0.00  0.00    +0.124 A 
ATOM      3  C   LIG    1       26.308 -20.413   6.010  0.00  0.00    +0.005 A 
ATOM      4  C   LIG    1       26.440 -19.757   4.657  0.00  0.00    +0.040 C 
ATOM      5  C   LIG    1       25.248 -20.058   3.750  0.00  0.00    +0.013 C 
ATOM      6  C   LIG    1       23.944 -19.701   4.440  0.00  0.00    +0.080 C 
ATOM      7  C   LIG    1       23.799 -20.451   5.744  0.00  0.00    +0.164 C 
ATOM      8  O   LIG    1       22.702 -20.740   6.196  0.00  0.00    -0.292 OA
ATOM      9  C   LIG    1       25.041 -20.757   6.511  0.00  0.00    +0.024 A 
ATOM     10  C   LIG    1       24.910 -21.383   7.756  0.00  0.00    +0.012 A 
ATOM     11  C   LIG    1       26.040 -21.654   8.520  0.00  0.00    +0.004 A 
ATOM     12  C   LIG    1       27.298 -21.280   8.056  0.00  0.00    +0.046 A 
ENDBRANCH   1   2
BRANCH   1  13
ATOM     13  C   LIG    1       29.378 -19.264   7.001  0.00  0.00    +0.261 C 
BRANCH  13  14
ATOM     14  C   LIG    1       30.628 -19.862   7.659  0.00  0.00    +0.166 C 
BRANCH  14  15
ATOM     15  O   LIG    1       31.806 -19.415   6.975  0.00  0.00    -0.387 OA
ATOM     16  H   LIG    1       31.837 -19.938   6.152  0.00  0.00    +0.210 HD
ENDBRANCH  14  15
BRANCH  14  17
ATOM     17  C   LIG    1       30.765 -19.561   9.162  0.00  0.00    +0.116 C 
BRANCH  17  18
ATOM     18  N   LIG    1       31.927 -18.732   9.526  0.00  0.00    -0.309 NA
ATOM     19  H   LIG    1       32.481 -19.229  10.224  0.00  0.00    +0.122 HD
BRANCH  18  21
ATOM     20  C   LIG    1       32.417 -16.360   9.208  0.00  0.00    +0.027 C 
ATOM     21  C   LIG    1       31.602 -17.384  10.024  0.00  0.00    +0.011 C 
ATOM     22  C   LIG    1       30.109 -17.068   9.832  0.00  0.00    +0.027 C 
ATOM     23  C   LIG    1       31.995 -17.234  11.501  0.00  0.00    +0.027 C 
ENDBRANCH  18  21
ENDBRANCH  17  18
ENDBRANCH  14  17
ENDBRANCH  13  14
ENDBRANCH   1  13
TORSDOF 7
ENDMDL
MODEL 2
REMARK VINA RESULT:      -8.3      1.320      2.609
REMARK  Name = *****
REMARK                            x       y       z     vdW  Elec       q    Type
REMARK                         _______ _______ _______ _____ _____    ______ ____
ROOT
ATOM      1  O   LIG    1       28.731 -20.604   8.470  0.00  0.00    -0.489 OA
ENDROOT
BRANCH   1   2
ATOM      2  C   LIG    1       28.060 -20.348   7.304  0.00  0.00    +0.124 A 
ATOM      3  C   LIG    1       26.715 -20.764   7.230  0.00  0.00    +0.005 A 
ATOM      4  C   LIG    1       26.065 -21.502   8.375  0.00  0.00    +0.040 C 
ATOM      5  C   LIG    1       24.541 -21.403   8.337  0.00  0.00    +0.013 C 
ATOM      6  C   LIG    1       24.008 -21.847   6.987  0.00  0.00    +0.080 C 
ATOM      7  C   LIG    1       24.604 -21.021   5.871  0.00  0.00    +0.164 C 
ATOM      8  O   LIG    1       23.998 -20.821   4.829  0.00  0.00    -0.292 OA
ATOM      9  C   LIG    1       26.000 -20.524   6.044  0.00  0.00    +0.024 A 
ATOM     10  C   LIG    1       26.587 -19.824   4.984  0.00  0.00    +0.012 A 
ATOM     11  C   LIG    1       27.899 -19.374   5.090  0.00  0.00    +0.004 A 
ATOM     12  C   LIG    1       28.633 -19.642   6.242  0.00  0.00    +0.046 A 
ENDBRANCH   1   2
BRANCH   1  13
ATOM     13  C   LIG    1       29.891 -21.444   8.374  0.00  0.00    +0.261 C 
BRANCH  13  14
ATOM     14  C   LIG    1       31.039 -20.835   9.189  0.00  0.00    +0.166 C 
BRANCH  14  15
ATOM     15  O   LIG    1       32.145 -21.746   9.237  0.00  0.00    -0.387 OA
ATOM     16  H   LIG    1       32.389 -21.900   8.305  0.00  0.00    +0.210 HD
ENDBRANCH  14  15
BRANCH  14  17
ATOM     17  C   LIG    1       31.527 -19.466   8.682  0.00  0.00    +0.116 C 
BRANCH  17  18
ATOM     18  N   LIG    1       32.160 -18.616   9.705  0.00  0.00    -0.309 NA
ATOM     19  H   LIG    1       32.244 -19.148  10.572  0.00  0.00    +0.122 HD
BRANCH  18  21
ATOM     20  C   LIG    1       30.130 -17.350   9.204  0.00  0.00    +0.027 C 
ATOM     21  C   LIG    1       31.466 -17.343   9.976  0.00  0.00    +0.011 C 
ATOM     22  C   LIG    1       31.152 -17.193  11.474  0.00  0.00    +0.027 C 
ATOM     23  C   LIG    1       32.295 -16.149   9.481  0.00  0.00    +0.027 C 
ENDBRANCH  18  21
ENDBRANCH  17  18
ENDBRANCH  14  17
ENDBRANCH  13  14
ENDBRANCH   1  13
TORSDOF 7
ENDMDL
MODEL 3
REMARK VINA RESULT:      -8.2      2.199      3.168
REMARK  Name = *****
REMARK                            x       y       z     vdW  Elec       q    Type
REMARK                         _______ _______ _______ _____ _____    ______ ____
ROOT
ATOM      1  O   LIG    1       27.742 -21.923   7.223  0.00  0.00    -0.489 OA
ENDROOT
BRANCH   1   2
ATOM      2  C   LIG    1       26.379 -21.808   7.283  0.00  0.00    +0.124 A 
ATOM      3  C   LIG    1       25.622 -22.963   6.999  0.00  0.00    +0.005 A 
ATOM      4  C   LIG    1       26.295 -24.254   6.597  0.00  0.00    +0.040 C 
ATOM      5  C   LIG    1       25.402 -25.470   6.837  0.00  0.00    +0.013 C 
ATOM      6  C   LIG    1       24.053 -25.288   6.165  0.00  0.00    +0.080 C 
ATOM      7  C   LIG    1       23.364 -24.039   6.663  0.00  0.00    +0.164 C 
ATOM      8  O   LIG    1       22.146 -23.949   6.691  0.00  0.00    -0.292 OA
ATOM      9  C   LIG    1       24.220 -22.878   7.044  0.00  0.00    +0.024 A 
ATOM     10  C   LIG    1       23.588 -21.692   7.434  0.00  0.00    +0.012 A 
ATOM     11  C   LIG    1       24.348 -20.574   7.762  0.00  0.00    +0.004 A 
ATOM     12  C   LIG    1       25.736 -20.631   7.680  0.00  0.00    +0.046 A 
ENDBRANCH   1   2
BRANCH   1  13
ATOM     13  C   LIG    1       28.502 -20.771   7.619  0.00  0.00    +0.261 C 
BRANCH  13  14
ATOM     14  C   LIG    1       29.265 -20.214   6.410  0.00  0.00    +0.166 C 
BRANCH  14  15
ATOM     15  O   LIG    1       28.420 -19.330   5.661  0.00  0.00    -0.387 OA
ATOM     16  H   LIG    1       28.909 -19.150   4.836  0.00  0.00    +0.210 HD
ENDBRANCH  14  15
BRANCH  14  17
ATOM     17  C   LIG    1       30.578 -19.491   6.760  0.00  0.00    +0.116 C 
BRANCH  17  18
ATOM     18  N   LIG    1       30.411 -18.199   7.448  0.00  0.00    -0.309 NA
ATOM     19  H   LIG    1       30.801 -17.460   6.862  0.00  0.00    +0.122 HD
BRANCH  18  21
ATOM     20  C   LIG    1       29.914 -17.660   9.779  0.00  0.00    +0.027 C 
ATOM     21  C   LIG    1       31.007 -18.126   8.794  0.00  0.00    +0.011 C 
ATOM     22  C   LIG    1       31.507 -19.506   9.253  0.00  0.00    +0.027 C 
ATOM     23  C   LIG    1       32.150 -17.101   8.834  0.00  0.00    +0.027 C 
ENDBRANCH  18  21
ENDBRANCH  17  18
ENDBRANCH  14  17
ENDBRANCH  13  14
ENDBRANCH   1  13
TORSDOF 7
ENDMDL
MODEL 4
REMARK VINA RESULT:      -7.9      3.461      7.781
REMARK  Name = *****
REMARK                            x       y       z     vdW  Elec       q    Type
REMARK                         _______ _______ _______ _____ _____    ______ ____
ROOT
ATOM      1  O   LIG    1       27.011 -21.520   6.693  0.00  0.00    -0.489 OA
ENDROOT
BRANCH   1   2
ATOM      2  C   LIG    1       27.891 -20.499   6.451  0.00  0.00    +0.124 A 
ATOM      3  C   LIG    1       29.052 -20.446   7.249  0.00  0.00    +0.005 A 
ATOM      4  C   LIG    1       29.282 -21.450   8.353  0.00  0.00    +0.040 C 
ATOM      5  C   LIG    1       30.757 -21.560   8.736  0.00  0.00    +0.013 C 
ATOM      6  C   LIG    1       31.330 -20.195   9.068  0.00  0.00    +0.080 C 
ATOM      7  C   LIG    1       31.172 -19.244   7.904  0.00  0.00    +0.164 C 
ATOM      8  O   LIG    1       31.957 -18.327   7.717  0.00  0.00    -0.292 OA
ATOM      9  C   LIG    1       29.973 -19.407   7.033  0.00  0.00    +0.024 A 
ATOM     10  C   LIG    1       29.778 -18.483   5.999  0.00  0.00    +0.012 A 
ATOM     11  C   LIG    1       28.654 -18.577   5.186  0.00  0.00    +0.004 A 
ATOM     12  C   LIG    1       27.712 -19.576   5.416  0.00  0.00    +0.046 A 
ENDBRANCH   1   2
BRANCH   1  13
ATOM     13  C   LIG    1       25.623 -21.243   6.452  0.00  0.00    +0.261 C 
BRANCH  13  14
ATOM     14  C   LIG    1       24.877 -22.552   6.165  0.00  0.00    +0.166 C 
BRANCH  14  15
ATOM     15  O   LIG    1       24.790 -22.770   4.751  0.00  0.00    -0.387 OA
ATOM     16  H   LIG    1       25.622 -22.413   4.387  0.00  0.00    +0.210 HD
ENDBRANCH  14  15
BRANCH  14  17
ATOM     17  C   LIG    1       25.487 -23.796   6.837  0.00  0.00    +0.116 C 
BRANCH  17  18
ATOM     18  N   LIG    1       26.158 -24.730   5.917  0.00  0.00    -0.309 NA
ATOM     19  H   LIG    1       26.094 -24.363   4.967  0.00  0.00    +0.122 HD
BRANCH  18  21
ATOM     20  C   LIG    1       24.104 -26.051   5.987  0.00  0.00    +0.027 C 
ATOM     21  C   LIG    1       25.645 -26.112   5.946  0.00  0.00    +0.011 C 
ATOM     22  C   LIG    1       26.059 -26.882   4.681  0.00  0.00    +0.027 C 
ATOM     23  C   LIG    1       26.125 -26.851   7.204  0.00  0.00    +0.027 C 
ENDBRANCH  18  21
ENDBRANCH  17  18
ENDBRANCH  14  17
ENDBRANCH  13  14
ENDBRANCH   1  13
TORSDOF 7
ENDMDL
MODEL 5
REMARK VINA RESULT:      -7.9      4.043      7.998
REMARK  Name = *****
REMARK                            x       y       z     vdW  Elec       q    Type
REMARK                         _______ _______ _______ _____ _____    ______ ____
ROOT
ATOM      1  O   LIG    1       25.084 -22.200   7.190  0.00  0.00    -0.489 OA
ENDROOT
BRANCH   1   2
ATOM      2  C   LIG    1       25.646 -21.286   6.339  0.00  0.00    +0.124 A 
ATOM      3  C   LIG    1       26.944 -20.830   6.649  0.00  0.00    +0.005 A 
ATOM      4  C   LIG    1       27.655 -21.299   7.895  0.00  0.00    +0.040 C 
ATOM      5  C   LIG    1       29.170 -21.129   7.794  0.00  0.00    +0.013 C 
ATOM      6  C   LIG    1       29.528 -19.700   7.428  0.00  0.00    +0.080 C 
ATOM      7  C   LIG    1       28.878 -19.296   6.125  0.00  0.00    +0.164 C 
ATOM      8  O   LIG    1       29.386 -18.464   5.389  0.00  0.00    -0.292 OA
ATOM      9  C   LIG    1       27.547 -19.885   5.801  0.00  0.00    +0.024 A 
ATOM     10  C   LIG    1       26.903 -19.459   4.634  0.00  0.00    +0.012 A 
ATOM     11  C   LIG    1       25.645 -19.955   4.312  0.00  0.00    +0.004 A 
ATOM     12  C   LIG    1       25.016 -20.859   5.165  0.00  0.00    +0.046 A 
ENDBRANCH   1   2
BRANCH   1  13
ATOM     13  C   LIG    1       23.650 -22.269   7.203  0.00  0.00    +0.261 C 
BRANCH  13  14
ATOM     14  C   LIG    1       23.198 -23.699   6.880  0.00  0.00    +0.166 C 
BRANCH  14  15
ATOM     15  O   LIG    1       21.956 -23.672   6.165  0.00  0.00    -0.387 OA
ATOM     16  H   LIG    1       21.267 -23.610   6.853  0.00  0.00    +0.210 HD
ENDBRANCH  14  15
BRANCH  14  17
ATOM     17  C   LIG    1       24.225 -24.531   6.091  0.00  0.00    +0.116 C 
BRANCH  17  18
ATOM     18  N   LIG    1       23.815 -25.917   5.810  0.00  0.00    -0.309 NA
ATOM     19  H   LIG    1       23.113 -26.200   6.496  0.00  0.00    +0.122 HD
BRANCH  18  21
ATOM     20  C   LIG    1       25.673 -26.753   4.462  0.00  0.00    +0.027 C 
ATOM     21  C   LIG    1       24.911 -26.902   5.795  0.00  0.00    +0.011 C 
ATOM     22  C   LIG    1       25.901 -26.645   6.944  0.00  0.00    +0.027 C 
ATOM     23  C   LIG    1       24.364 -28.335   5.871  0.00  0.00    +0.027 C 
ENDBRANCH  18  21
ENDBRANCH  17  18
ENDBRANCH  14  17
ENDBRANCH  13  14
ENDBRANCH   1  13
TORSDOF 7
ENDMDL
MODEL 6
REMARK VINA RESULT:      -7.8      2.789      7.441
REMARK  Name = *****
REMARK                            x       y       z     vdW  Elec       q    Type
REMARK                         _______ _______ _______ _____ _____    ______ ____
ROOT
ATOM      1  O   LIG    1       27.225 -21.906   7.165  0.00  0.00    -0.489 OA
ENDROOT
BRANCH   1   2
ATOM      2  C   LIG    1       27.973 -20.822   6.791  0.00  0.00    +0.124 A 
ATOM      3  C   LIG    1       29.176 -20.596   7.491  0.00  0.00    +0.005 A 
ATOM      4  C   LIG    1       29.588 -21.489   8.636  0.00  0.00    +0.040 C 
ATOM      5  C   LIG    1       31.089 -21.424   8.909  0.00  0.00    +0.013 C 
ATOM      6  C   LIG    1       31.538 -19.987   9.107  0.00  0.00    +0.080 C 
ATOM      7  C   LIG    1       31.198 -19.143   7.901  0.00  0.00    +0.164 C 
ATOM      8  O   LIG    1       31.867 -18.168   7.595  0.00  0.00    -0.292 OA
ATOM      9  C   LIG    1       29.964 -19.487   7.138  0.00  0.00    +0.024 A 
ATOM     10  C   LIG    1       29.601 -18.665   6.065  0.00  0.00    +0.012 A 
ATOM     11  C   LIG    1       28.438 -18.929   5.349  0.00  0.00    +0.004 A 
ATOM     12  C   LIG    1       27.625 -19.998   5.715  0.00  0.00    +0.046 A 
ENDBRANCH   1   2
BRANCH   1  13
ATOM     13  C   LIG    1       25.976 -22.091   6.483  0.00  0.00    +0.261 C 
BRANCH  13  14
ATOM     14  C   LIG    1       24.840 -22.208   7.507  0.00  0.00    +0.166 C 
BRANCH  14  15
ATOM     15  O   LIG    1       25.219 -21.576   8.737  0.00  0.00    -0.387 OA
ATOM     16  H   LIG    1       24.652 -20.784   8.801  0.00  0.00    +0.210 HD
ENDBRANCH  14  15
BRANCH  14  17
ATOM     17  C   LIG    1       23.491 -21.637   7.034  0.00  0.00    +0.116 C 
BRANCH  17  18
ATOM     18  N   LIG    1       23.566 -20.305   6.409  0.00  0.00    -0.309 NA
ATOM     19  H   LIG    1       23.109 -19.627   7.020  0.00  0.00    +0.122 HD
BRANCH  18  21
ATOM     20  C   LIG    1       21.876 -21.279   4.937  0.00  0.00    +0.027 C 
ATOM     21  C   LIG    1       22.988 -20.216   5.056  0.00  0.00    +0.011 C 
ATOM     22  C   LIG    1       22.357 -18.835   4.815  0.00  0.00    +0.027 C 
ATOM     23  C   LIG    1       24.046 -20.515   3.984  0.00  0.00    +0.027 C 
ENDBRANCH  18  21
ENDBRANCH  17  18
ENDBRANCH  14  17
ENDBRANCH  13  14
ENDBRANCH   1  13
TORSDOF 7
ENDMDL
MODEL 7
REMARK VINA RESULT:      -7.8      2.123      3.204
REMARK  Name = *****
REMARK                            x       y       z     vdW  Elec       q    Type
REMARK                         _______ _______ _______ _____ _____    ______ ____
ROOT
ATOM      1  O   LIG    1       26.281 -22.344   6.299  0.00  0.00    -0.489 OA
ENDROOT
BRANCH   1   2
ATOM      2  C   LIG    1       24.957 -22.021   6.168  0.00  0.00    +0.124 A 
ATOM      3  C   LIG    1       24.637 -20.937   5.324  0.00  0.00    +0.005 A 
ATOM      4  C   LIG    1       25.721 -20.143   4.636  0.00  0.00    +0.040 C 
ATOM      5  C   LIG    1       25.200 -19.393   3.412  0.00  0.00    +0.013 C 
ATOM      6  C   LIG    1       23.999 -18.539   3.775  0.00  0.00    +0.080 C 
ATOM      7  C   LIG    1       22.895 -19.382   4.370  0.00  0.00    +0.164 C 
ATOM      8  O   LIG    1       21.720 -19.066   4.259  0.00  0.00    -0.292 OA
ATOM      9  C   LIG    1       23.288 -20.574   5.174  0.00  0.00    +0.024 A 
ATOM     10  C   LIG    1       22.275 -21.317   5.792  0.00  0.00    +0.012 A 
ATOM     11  C   LIG    1       22.600 -22.415   6.580  0.00  0.00    +0.004 A 
ATOM     12  C   LIG    1       23.935 -22.761   6.773  0.00  0.00    +0.046 A 
ENDBRANCH   1   2
BRANCH   1  13
ATOM     13  C   LIG    1       26.885 -22.078   7.574  0.00  0.00    +0.261 C 
BRANCH  13  14
ATOM     14  C   LIG    1       26.962 -20.563   7.803  0.00  0.00    +0.166 C 
BRANCH  14  15
ATOM     15  O   LIG    1       26.623 -20.254   9.162  0.00  0.00    -0.387 OA
ATOM     16  H   LIG    1       27.442 -20.407   9.670  0.00  0.00    +0.210 HD
ENDBRANCH  14  15
BRANCH  14  17
ATOM     17  C   LIG    1       28.324 -19.933   7.460  0.00  0.00    +0.116 C 
BRANCH  17  18
ATOM     18  N   LIG    1       29.140 -19.548   8.625  0.00  0.00    -0.309 NA
ATOM     19  H   LIG    1       28.867 -18.611   8.924  0.00  0.00    +0.122 HD
BRANCH  18  21
ATOM     20  C   LIG    1       31.104 -20.990   8.813  0.00  0.00    +0.027 C 
ATOM     21  C   LIG    1       30.597 -19.589   8.408  0.00  0.00    +0.011 C 
ATOM     22  C   LIG    1       30.942 -19.366   6.926  0.00  0.00    +0.027 C 
ATOM     23  C   LIG    1       31.313 -18.553   9.286  0.00  0.00    +0.027 C 
ENDBRANCH  18  21
ENDBRANCH  17  18
ENDBRANCH  14  17
ENDBRANCH  13  14
ENDBRANCH   1  13
TORSDOF 7
ENDMDL
MODEL 8
REMARK VINA RESULT:      -7.7      6.192      9.024
REMARK  Name = *****
REMARK                            x       y       z     vdW  Elec       q    Type
REMARK                         _______ _______ _______ _____ _____    ______ ____
ROOT
ATOM      1  O   LIG    1       26.281 -25.272   6.453  0.00  0.00    -0.489 OA
ENDROOT
BRANCH   1   2
ATOM      2  C   LIG    1       25.199 -24.457   6.654  0.00  0.00    +0.124 A 
ATOM      3  C   LIG    1       25.458 -23.124   7.035  0.00  0.00    +0.005 A 
ATOM      4  C   LIG    1       26.871 -22.640   7.258  0.00  0.00    +0.040 C 
ATOM      5  C   LIG    1       26.985 -21.121   7.148  0.00  0.00    +0.013 C 
ATOM      6  C   LIG    1       25.989 -20.438   8.068  0.00  0.00    +0.080 C 
ATOM      7  C   LIG    1       24.576 -20.871   7.752  0.00  0.00    +0.164 C 
ATOM      8  O   LIG    1       23.622 -20.136   7.957  0.00  0.00    -0.292 OA
ATOM      9  C   LIG    1       24.370 -22.263   7.258  0.00  0.00    +0.024 A 
ATOM     10  C   LIG    1       23.058 -22.697   7.035  0.00  0.00    +0.012 A 
ATOM     11  C   LIG    1       22.819 -23.998   6.609  0.00  0.00    +0.004 A 
ATOM     12  C   LIG    1       23.884 -24.876   6.426  0.00  0.00    +0.046 A 
ENDBRANCH   1   2
BRANCH   1  13
ATOM     13  C   LIG    1       26.060 -26.682   6.606  0.00  0.00    +0.261 C 
BRANCH  13  14
ATOM     14  C   LIG    1       25.945 -27.340   5.225  0.00  0.00    +0.166 C 
BRANCH  14  15
ATOM     15  O   LIG    1       27.250 -27.551   4.669  0.00  0.00    -0.387 OA
ATOM     16  H   LIG    1       27.594 -26.657   4.483  0.00  0.00    +0.210 HD
ENDBRANCH  14  15
BRANCH  14  17
ATOM     17  C   LIG    1       25.164 -28.666   5.212  0.00  0.00    +0.116 C 
BRANCH  17  18
ATOM     18  N   LIG    1       25.858 -29.801   5.843  0.00  0.00    -0.309 NA
ATOM     19  H   LIG    1       26.211 -30.420   5.112  0.00  0.00    +0.122 HD
BRANCH  18  21
ATOM     20  C   LIG    1       25.994 -31.499   7.595  0.00  0.00    +0.027 C 
ATOM     21  C   LIG    1       25.047 -30.579   6.796  0.00  0.00    +0.011 C 
ATOM     22  C   LIG    1       24.326 -29.655   7.792  0.00  0.00    +0.027 C 
ATOM     23  C   LIG    1       24.033 -31.466   6.059  0.00  0.00    +0.027 C 
ENDBRANCH  18  21
ENDBRANCH  17  18
ENDBRANCH  14  17
ENDBRANCH  13  14
ENDBRANCH   1  13
TORSDOF 7
ENDMDL
MODEL 9
REMARK VINA RESULT:      -7.3      1.503      2.813
REMARK  Name = *****
REMARK                            x       y       z     vdW  Elec       q    Type
REMARK                         _______ _______ _______ _____ _____    ______ ____
ROOT
ATOM      1  O   LIG    1       27.287 -20.637   6.110  0.00  0.00    -0.489 OA
ENDROOT
BRANCH   1   2
ATOM      2  C   LIG    1       26.169 -20.335   5.379  0.00  0.00    +0.124 A 
ATOM      3  C   LIG    1       24.953 -20.920   5.789  0.00  0.00    +0.005 A 
ATOM      4  C   LIG    1       24.906 -21.877   6.956  0.00  0.00    +0.040 C 
ATOM      5  C   LIG    1       23.506 -21.987   7.557  0.00  0.00    +0.013 C 
ATOM      6  C   LIG    1       22.486 -22.330   6.487  0.00  0.00    +0.080 C 
ATOM      7  C   LIG    1       22.492 -21.298   5.383  0.00  0.00    +0.164 C 
ATOM      8  O   LIG    1       21.488 -21.056   4.729  0.00  0.00    -0.292 OA
ATOM      9  C   LIG    1       23.788 -20.637   5.056  0.00  0.00    +0.024 A 
ATOM     10  C   LIG    1       23.818 -19.736   3.985  0.00  0.00    +0.012 A 
ATOM     11  C   LIG    1       25.014 -19.125   3.624  0.00  0.00    +0.004 A 
ATOM     12  C   LIG    1       26.185 -19.429   4.313  0.00  0.00    +0.046 A 
ENDBRANCH   1   2
BRANCH   1  13
ATOM     13  C   LIG    1       28.441 -19.811   5.891  0.00  0.00    +0.261 C 
BRANCH  13  14
ATOM     14  C   LIG    1       29.408 -19.950   7.073  0.00  0.00    +0.166 C 
BRANCH  14  15
ATOM     15  O   LIG    1       29.766 -21.327   7.257  0.00  0.00    -0.387 OA
ATOM     16  H   LIG    1       30.067 -21.630   6.380  0.00  0.00    +0.210 HD
ENDBRANCH  14  15
BRANCH  14  17
ATOM     17  C   LIG    1       30.686 -19.101   6.957  0.00  0.00    +0.116 C 
BRANCH  17  18
ATOM     18  N   LIG    1       30.639 -17.810   7.664  0.00  0.00    -0.309 NA
ATOM     19  H   LIG    1       31.145 -17.114   7.115  0.00  0.00    +0.122 HD
BRANCH  18  21
ATOM     20  C   LIG    1       32.260 -16.745   9.151  0.00  0.00    +0.027 C 
ATOM     21  C   LIG    1       31.168 -17.830   9.040  0.00  0.00    +0.011 C 
ATOM     22  C   LIG    1       30.066 -17.506  10.061  0.00  0.00    +0.027 C 
ATOM     23  C   LIG    1       31.813 -19.187   9.360  0.00  0.00    +0.027 C 
ENDBRANCH  18  21
ENDBRANCH  17  18
ENDBRANCH  14  17
ENDBRANCH  13  14
ENDBRANCH   1  13
TORSDOF 7
ENDMDL
