MODEL 1
REMARK VINA RESULT:      -7.9      0.000      0.000
REMARK  Name = *****
REMARK                            x       y       z     vdW  Elec       q    Type
REMARK                         _______ _______ _______ _____ _____    ______ ____
ROOT
ATOM      1  C   LIG    1       26.959 -21.538   6.555  0.00  0.00    +0.168 A 
ATOM      2  N   LIG    1       26.845 -22.852   6.651  0.00  0.00    -0.208 NA
ATOM      3  C   LIG    1       25.708 -23.375   6.197  0.00  0.00    +0.168 A 
ATOM      4  N   LIG    1       24.689 -22.659   5.716  0.00  0.00    -0.208 NA
ATOM      5  C   LIG    1       24.899 -21.350   5.678  0.00  0.00    +0.164 A 
ATOM      6  N   LIG    1       26.004 -20.734   6.080  0.00  0.00    -0.208 NA
ENDROOT
BRANCH   5   7
ATOM      7  C   LIG    1       23.832 -20.513   5.110  0.00  0.00    +0.019 A 
ATOM      8  C   LIG    1       22.473 -20.855   5.235  0.00  0.00    +0.015 A 
ATOM      9  C   LIG    1       21.470 -20.036   4.700  0.00  0.00    +0.046 A 
ATOM     10  C   LIG    1       21.807 -18.855   4.048  0.00  0.00    +0.120 A 
ATOM     11  C   LIG    1       23.147 -18.504   3.895  0.00  0.00    +0.046 A 
ATOM     12  C   LIG    1       24.145 -19.330   4.427  0.00  0.00    +0.015 A 
BRANCH  10  13
ATOM     13  O   LIG    1       20.756 -18.124   3.563  0.00  0.00    -0.495 OA
ATOM     14  C   LIG    1       19.608 -18.890   3.214  0.00  0.00    +0.277 C 
ENDBRANCH  10  13
ENDBRANCH   5   7
BRANCH   1  18
ATOM     15  C   LIG    1       30.707 -19.871   7.902  0.00  0.00    +0.124 A 
ATOM     16  C   LIG    1       30.045 -19.308   6.810  0.00  0.00    +0.091 A 
ATOM     17  C   LIG    1       28.808 -19.811   6.379  0.00  0.00    +0.131 A 
ATOM     18  C   LIG    1       28.203 -20.907   7.023  0.00  0.00    +0.061 A 
ATOM     19  C   LIG    1       28.867 -21.420   8.155  0.00  0.00    +0.019 A 
ATOM     20  C   LIG    1       30.088 -20.910   8.596  0.00  0.00    +0.046 A 
BRANCH  17  21
ATOM     21  O   LIG    1       28.261 -19.186   5.288  0.00  0.00    -0.506 OA
ATOM     22  H   LIG    1       27.297 -19.389   5.260  0.00  0.00    +0.292 HD
ENDBRANCH  17  21
BRANCH  15  23
ATOM     23  O   LIG    1       31.968 -19.397   8.159  0.00  0.00    -0.492 OA
BRANCH  23  24
ATOM     24  C   LIG    1       32.125 -17.975   8.115  0.00  0.00    +0.232 C 
BRANCH  24  25
ATOM     25  C   LIG    1       32.024 -17.343   9.525  0.00  0.00    +0.026 C 
BRANCH  25  26
ATOM     26  C   LIG    1       30.561 -16.907   9.774  0.00  0.00    +0.003 C 
ATOM     27  C   LIG    1       29.827 -17.696  10.851  0.00  0.00    +0.004 C 
ENDBRANCH  25  26
BRANCH  25  28
ATOM     28  C   LIG    1       33.025 -16.187   9.774  0.00  0.00    +0.007 C 
BRANCH  28  29
ATOM     29  C   LIG    1       33.011 -15.553  11.179  0.00  0.00    +0.000 C 
BRANCH  29  31
ATOM     30  C   LIG    1       32.611 -15.953  13.650  0.00  0.00    +0.004 C 
ATOM     31  C   LIG    1       33.024 -16.573  12.321  0.00  0.00    -0.003 C 
ENDBRANCH  29  31
ENDBRANCH  28  29
ENDBRANCH  25  28
ENDBRANCH  24  25
ENDBRANCH  23  24
ENDBRANCH  15  23
ENDBRANCH   1  18
BRANCH   3  32
ATOM     32  C   LIG    1       25.554 -24.831   6.217  0.00  0.00    +0.061 A 
ATOM     33  C   LIG    1       25.039 -25.525   5.113  0.00  0.00    +0.131 A 
ATOM     34  C   LIG    1       24.904 -26.908   5.130  0.00  0.00    +0.091 A 
ATOM     35  C   LIG    1       25.313 -27.666   6.219  0.00  0.00    +0.124 A 
ATOM     36  C   LIG    1       25.793 -27.000   7.352  0.00  0.00    +0.046 A 
ATOM     37  C   LIG    1       25.905 -25.598   7.338  0.00  0.00    +0.019 A 
BRANCH  33  38
ATOM     38  O   LIG    1       24.649 -24.863   3.981  0.00  0.00    -0.506 OA
ATOM     39  H   LIG    1       23.901 -25.328   3.567  0.00  0.00    +0.292 HD
ENDBRANCH  33  38
BRANCH  35  40
ATOM     40  O   LIG    1       25.309 -29.038   6.249  0.00  0.00    -0.492 OA
BRANCH  40  41
ATOM     41  C   LIG    1       24.475 -29.642   7.250  0.00  0.00    +0.232 C 
BRANCH  41  42
ATOM     42  C   LIG    1       24.960 -31.040   7.658  0.00  0.00    +0.026 C 
BRANCH  42  43
ATOM     43  C   LIG    1       25.455 -30.983   9.111  0.00  0.00    +0.003 C 
ATOM     44  C   LIG    1       25.929 -29.616   9.580  0.00  0.00    +0.004 C 
ENDBRANCH  42  43
BRANCH  42  45
ATOM     45  C   LIG    1       26.021 -31.584   6.662  0.00  0.00    +0.007 C 
BRANCH  45  46
ATOM     46  C   LIG    1       25.451 -32.576   5.630  0.00  0.00    +0.000 C 
BRANCH  46  47
ATOM     47  C   LIG    1       24.093 -33.148   6.037  0.00  0.00    -0.003 C 
ATOM     48  C   LIG    1       23.274 -33.546   4.813  0.00  0.00    +0.004 C 
ENDBRANCH  46  47
ENDBRANCH  45  46
ENDBRANCH  42  45
ENDBRANCH  41  42
ENDBRANCH  40  41
ENDBRANCH  35  40
ENDBRANCH   3  32
TORSDOF 20
ENDMDL
MODEL 2
REMARK VINA RESULT:      -7.8      1.542     10.527
REMARK  Name = *****
REMARK                            x       y       z     vdW  Elec       q    Type
REMARK                         _______ _______ _______ _____ _____    ______ ____
ROOT
ATOM      1  C   LIG    1       25.584 -23.353   5.991  0.00  0.00    +0.168 A 
ATOM      2  N   LIG    1       26.741 -22.864   6.404  0.00  0.00    -0.208 NA
ATOM      3  C   LIG    1       26.875 -21.541   6.335  0.00  0.00    +0.168 A 
ATOM      4  N   LIG    1       25.951 -20.716   5.837  0.00  0.00    -0.208 NA
ATOM      5  C   LIG    1       24.835 -21.309   5.435  0.00  0.00    +0.164 A 
ATOM      6  N   LIG    1       24.593 -22.614   5.486  0.00  0.00    -0.208 NA
ENDROOT
BRANCH   5   7
ATOM      7  C   LIG    1       23.759 -20.447   4.924  0.00  0.00    +0.019 A 
ATOM      8  C   LIG    1       22.403 -20.806   5.034  0.00  0.00    +0.015 A 
ATOM      9  C   LIG    1       21.392 -19.963   4.556  0.00  0.00    +0.046 A 
ATOM     10  C   LIG    1       21.717 -18.742   3.976  0.00  0.00    +0.120 A 
ATOM     11  C   LIG    1       23.053 -18.373   3.839  0.00  0.00    +0.046 A 
ATOM     12  C   LIG    1       24.060 -19.221   4.314  0.00  0.00    +0.015 A 
BRANCH  10  13
ATOM     13  O   LIG    1       20.658 -17.991   3.542  0.00  0.00    -0.495 OA
ATOM     14  C   LIG    1       19.519 -18.743   3.136  0.00  0.00    +0.277 C 
ENDBRANCH  10  13
ENDBRANCH   5   7
BRANCH   1  18
ATOM     15  C   LIG    1       25.102 -27.628   6.363  0.00  0.00    +0.124 A 
ATOM     16  C   LIG    1       23.991 -26.787   6.468  0.00  0.00    +0.091 A 
ATOM     17  C   LIG    1       24.120 -25.400   6.314  0.00  0.00    +0.131 A 
ATOM     18  C   LIG    1       25.373 -24.807   6.064  0.00  0.00    +0.061 A 
ATOM     19  C   LIG    1       26.466 -25.684   5.908  0.00  0.00    +0.019 A 
ATOM     20  C   LIG    1       26.337 -27.066   6.045  0.00  0.00    +0.046 A 
BRANCH  17  21
ATOM     21  O   LIG    1       22.963 -24.677   6.452  0.00  0.00    -0.506 OA
ATOM     22  H   LIG    1       22.262 -25.272   6.807  0.00  0.00    +0.292 HD
ENDBRANCH  17  21
BRANCH  15  23
ATOM     23  O   LIG    1       24.894 -28.950   6.663  0.00  0.00    -0.492 OA
BRANCH  23  24
ATOM     24  C   LIG    1       24.496 -29.234   8.008  0.00  0.00    +0.232 C 
BRANCH  24  25
ATOM     25  C   LIG    1       25.382 -30.330   8.649  0.00  0.00    +0.026 C 
BRANCH  25  26
ATOM     26  C   LIG    1       24.514 -31.175   9.612  0.00  0.00    +0.003 C 
ATOM     27  C   LIG    1       23.530 -30.378  10.459  0.00  0.00    +0.004 C 
ENDBRANCH  25  26
BRANCH  25  28
ATOM     28  C   LIG    1       26.657 -29.788   9.342  0.00  0.00    +0.007 C 
BRANCH  28  29
ATOM     29  C   LIG    1       26.641 -28.303   9.753  0.00  0.00    +0.000 C 
BRANCH  29  31
ATOM     30  C   LIG    1       27.920 -29.023  11.820  0.00  0.00    +0.004 C 
ATOM     31  C   LIG    1       26.880 -28.068  11.248  0.00  0.00    -0.003 C 
ENDBRANCH  29  31
ENDBRANCH  28  29
ENDBRANCH  25  28
ENDBRANCH  24  25
ENDBRANCH  23  24
ENDBRANCH  15  23
ENDBRANCH   1  18
BRANCH   3  32
ATOM     32  C   LIG    1       28.109 -20.937   6.841  0.00  0.00    +0.061 A 
ATOM     33  C   LIG    1       28.582 -21.216   8.130  0.00  0.00    +0.131 A 
ATOM     34  C   LIG    1       29.759 -20.650   8.604  0.00  0.00    +0.091 A 
ATOM     35  C   LIG    1       30.541 -19.823   7.809  0.00  0.00    +0.124 A 
ATOM     36  C   LIG    1       30.076 -19.493   6.531  0.00  0.00    +0.046 A 
ATOM     37  C   LIG    1       28.871 -20.050   6.065  0.00  0.00    +0.019 A 
BRANCH  33  38
ATOM     38  O   LIG    1       27.898 -22.053   8.969  0.00  0.00    -0.506 OA
ATOM     39  H   LIG    1       27.806 -22.930   8.557  0.00  0.00    +0.292 HD
ENDBRANCH  33  38
BRANCH  35  40
ATOM     40  O   LIG    1       31.766 -19.327   8.180  0.00  0.00    -0.492 OA
BRANCH  40  41
ATOM     41  C   LIG    1       31.910 -17.899   8.120  0.00  0.00    +0.232 C 
BRANCH  41  42
ATOM     42  C   LIG    1       31.895 -17.245   9.509  0.00  0.00    +0.026 C 
BRANCH  42  43
ATOM     43  C   LIG    1       30.450 -16.849   9.849  0.00  0.00    +0.003 C 
ATOM     44  C   LIG    1       29.796 -17.670  10.951  0.00  0.00    +0.004 C 
ENDBRANCH  42  43
BRANCH  42  45
ATOM     45  C   LIG    1       32.897 -16.061   9.588  0.00  0.00    +0.007 C 
BRANCH  45  46
ATOM     46  C   LIG    1       33.025 -15.450  10.997  0.00  0.00    +0.000 C 
BRANCH  46  47
ATOM     47  C   LIG    1       33.020 -16.502  12.107  0.00  0.00    -0.003 C 
ATOM     48  C   LIG    1       32.376 -15.957  13.378  0.00  0.00    +0.004 C 
ENDBRANCH  46  47
ENDBRANCH  45  46
ENDBRANCH  42  45
ENDBRANCH  41  42
ENDBRANCH  40  41
ENDBRANCH  35  40
ENDBRANCH   3  32
TORSDOF 20
ENDMDL
MODEL 3
REMARK VINA RESULT:      -7.8      1.619      2.826
REMARK  Name = *****
REMARK                            x       y       z     vdW  Elec       q    Type
REMARK                         _______ _______ _______ _____ _____    ______ ____
ROOT
ATOM      1  C   LIG    1       26.623 -21.192   6.296  0.00  0.00    +0.168 A 
ATOM      2  N   LIG    1       26.553 -22.500   6.478  0.00  0.00    -0.208 NA
ATOM      3  C   LIG    1       25.415 -23.082   6.107  0.00  0.00    +0.168 A 
ATOM      4  N   LIG    1       24.356 -22.427   5.625  0.00  0.00    -0.208 NA
ATOM      5  C   LIG    1       24.524 -21.118   5.497  0.00  0.00    +0.164 A 
ATOM      6  N   LIG    1       25.625 -20.447   5.813  0.00  0.00    -0.208 NA
ENDROOT
BRANCH   5   7
ATOM      7  C   LIG    1       23.410 -20.349   4.923  0.00  0.00    +0.019 A 
ATOM      8  C   LIG    1       23.605 -19.086   4.333  0.00  0.00    +0.015 A 
ATOM      9  C   LIG    1       22.535 -18.376   3.776  0.00  0.00    +0.046 A 
ATOM     10  C   LIG    1       21.256 -18.921   3.785  0.00  0.00    +0.120 A 
ATOM     11  C   LIG    1       21.034 -20.161   4.380  0.00  0.00    +0.046 A 
ATOM     12  C   LIG    1       22.107 -20.864   4.939  0.00  0.00    +0.015 A 
BRANCH  10  13
ATOM     13  O   LIG    1       20.278 -18.149   3.216  0.00  0.00    -0.495 OA
ATOM     14  C   LIG    1       19.076 -18.845   2.902  0.00  0.00    +0.277 C 
ENDBRANCH  10  13
ENDBRANCH   5   7
BRANCH   1  18
ATOM     15  C   LIG    1       30.162 -18.972   7.384  0.00  0.00    +0.124 A 
ATOM     16  C   LIG    1       29.684 -19.980   8.224  0.00  0.00    +0.091 A 
ATOM     17  C   LIG    1       28.558 -20.738   7.872  0.00  0.00    +0.131 A 
ATOM     18  C   LIG    1       27.864 -20.498   6.670  0.00  0.00    +0.061 A 
ATOM     19  C   LIG    1       28.401 -19.512   5.817  0.00  0.00    +0.019 A 
ATOM     20  C   LIG    1       29.532 -18.769   6.158  0.00  0.00    +0.046 A 
BRANCH  17  21
ATOM     21  O   LIG    1       28.175 -21.689   8.782  0.00  0.00    -0.506 OA
ATOM     22  H   LIG    1       28.539 -21.444   9.665  0.00  0.00    +0.292 HD
ENDBRANCH  17  21
BRANCH  15  23
ATOM     23  O   LIG    1       31.183 -18.202   7.880  0.00  0.00    -0.492 OA
BRANCH  23  24
ATOM     24  C   LIG    1       31.592 -18.487   9.221  0.00  0.00    +0.232 C 
BRANCH  24  25
ATOM     25  C   LIG    1       31.633 -17.208  10.092  0.00  0.00    +0.026 C 
BRANCH  25  26
ATOM     26  C   LIG    1       33.025 -16.548   9.947  0.00  0.00    +0.003 C 
ATOM     27  C   LIG    1       33.002 -15.060   9.619  0.00  0.00    +0.004 C 
ENDBRANCH  25  26
BRANCH  25  28
ATOM     28  C   LIG    1       31.253 -17.440  11.576  0.00  0.00    +0.007 C 
BRANCH  28  29
ATOM     29  C   LIG    1       31.552 -16.287  12.553  0.00  0.00    +0.000 C 
BRANCH  29  31
ATOM     30  C   LIG    1       32.339 -16.093  14.956  0.00  0.00    +0.004 C 
ATOM     31  C   LIG    1       32.669 -16.593  13.555  0.00  0.00    -0.003 C 
ENDBRANCH  29  31
ENDBRANCH  28  29
ENDBRANCH  25  28
ENDBRANCH  24  25
ENDBRANCH  23  24
ENDBRANCH  15  23
ENDBRANCH   1  18
BRANCH   3  32
ATOM     32  C   LIG    1       25.306 -24.538   6.223  0.00  0.00    +0.061 A 
ATOM     33  C   LIG    1       24.074 -25.160   6.466  0.00  0.00    +0.131 A 
ATOM     34  C   LIG    1       23.972 -26.542   6.566  0.00  0.00    +0.091 A 
ATOM     35  C   LIG    1       25.073 -27.369   6.384  0.00  0.00    +0.124 A 
ATOM     36  C   LIG    1       26.324 -26.777   6.180  0.00  0.00    +0.046 A 
ATOM     37  C   LIG    1       26.426 -25.375   6.104  0.00  0.00    +0.019 A 
BRANCH  33  38
ATOM     38  O   LIG    1       22.929 -24.426   6.618  0.00  0.00    -0.506 OA
ATOM     39  H   LIG    1       22.333 -24.585   5.865  0.00  0.00    +0.292 HD
ENDBRANCH  33  38
BRANCH  35  40
ATOM     40  O   LIG    1       25.014 -28.739   6.358  0.00  0.00    -0.492 OA
BRANCH  40  41
ATOM     41  C   LIG    1       24.370 -29.362   7.481  0.00  0.00    +0.232 C 
BRANCH  41  42
ATOM     42  C   LIG    1       25.357 -30.114   8.385  0.00  0.00    +0.026 C 
BRANCH  42  43
ATOM     43  C   LIG    1       24.557 -30.932   9.411  0.00  0.00    +0.003 C 
ATOM     44  C   LIG    1       23.113 -30.495   9.603  0.00  0.00    +0.004 C 
ENDBRANCH  42  43
BRANCH  42  45
ATOM     45  C   LIG    1       26.384 -29.144   9.032  0.00  0.00    +0.007 C 
BRANCH  45  46
ATOM     46  C   LIG    1       25.946 -28.606  10.408  0.00  0.00    +0.000 C 
BRANCH  46  47
ATOM     47  C   LIG    1       27.123 -28.348  11.350  0.00  0.00    -0.003 C 
ATOM     48  C   LIG    1       26.652 -27.728  12.662  0.00  0.00    +0.004 C 
ENDBRANCH  46  47
ENDBRANCH  45  46
ENDBRANCH  42  45
ENDBRANCH  41  42
ENDBRANCH  40  41
ENDBRANCH  35  40
ENDBRANCH   3  32
TORSDOF 20
ENDMDL
MODEL 4
REMARK VINA RESULT:      -7.5      1.289     11.330
REMARK  Name = *****
REMARK                            x       y       z     vdW  Elec       q    Type
REMARK                         _______ _______ _______ _____ _____    ______ ____
ROOT
ATOM      1  C   LIG    1       25.417 -23.015   5.964  0.00  0.00    +0.168 A 
ATOM      2  N   LIG    1       26.561 -22.449   6.310  0.00  0.00    -0.208 NA
ATOM      3  C   LIG    1       26.622 -21.126   6.180  0.00  0.00    +0.168 A 
ATOM      4  N   LIG    1       25.638 -20.372   5.685  0.00  0.00    -0.208 NA
ATOM      5  C   LIG    1       24.540 -21.038   5.353  0.00  0.00    +0.164 A 
ATOM      6  N   LIG    1       24.370 -22.350   5.469  0.00  0.00    -0.208 NA
ENDROOT
BRANCH   5   7
ATOM      7  C   LIG    1       23.402 -20.255   4.850  0.00  0.00    +0.019 A 
ATOM      8  C   LIG    1       23.539 -18.908   4.466  0.00  0.00    +0.015 A 
ATOM      9  C   LIG    1       22.447 -18.183   3.974  0.00  0.00    +0.046 A 
ATOM     10  C   LIG    1       21.206 -18.795   3.840  0.00  0.00    +0.120 A 
ATOM     11  C   LIG    1       21.041 -20.123   4.229  0.00  0.00    +0.046 A 
ATOM     12  C   LIG    1       22.135 -20.841   4.726  0.00  0.00    +0.015 A 
BRANCH  10  13
ATOM     13  O   LIG    1       20.203 -18.003   3.348  0.00  0.00    -0.495 OA
ATOM     14  C   LIG    1       19.035 -18.705   2.937  0.00  0.00    +0.277 C 
ENDBRANCH  10  13
ENDBRANCH   5   7
BRANCH   1  18
ATOM     15  C   LIG    1       25.169 -27.287   6.539  0.00  0.00    +0.124 A 
ATOM     16  C   LIG    1       24.014 -26.505   6.607  0.00  0.00    +0.091 A 
ATOM     17  C   LIG    1       24.067 -25.121   6.387  0.00  0.00    +0.131 A 
ATOM     18  C   LIG    1       25.286 -24.473   6.106  0.00  0.00    +0.061 A 
ATOM     19  C   LIG    1       26.425 -25.295   5.990  0.00  0.00    +0.019 A 
ATOM     20  C   LIG    1       26.371 -26.674   6.191  0.00  0.00    +0.046 A 
BRANCH  17  21
ATOM     21  O   LIG    1       22.872 -24.457   6.494  0.00  0.00    -0.506 OA
ATOM     22  H   LIG    1       22.815 -23.793   5.767  0.00  0.00    +0.292 HD
ENDBRANCH  17  21
BRANCH  15  23
ATOM     23  O   LIG    1       25.033 -28.603   6.902  0.00  0.00    -0.492 OA
BRANCH  23  24
ATOM     24  C   LIG    1       25.265 -29.566   5.870  0.00  0.00    +0.232 C 
BRANCH  24  25
ATOM     25  C   LIG    1       24.885 -30.997   6.325  0.00  0.00    +0.026 C 
BRANCH  25  26
ATOM     26  C   LIG    1       24.138 -30.910   7.678  0.00  0.00    +0.003 C 
ATOM     27  C   LIG    1       24.943 -31.367   8.889  0.00  0.00    +0.004 C 
ENDBRANCH  25  26
BRANCH  25  28
ATOM     28  C   LIG    1       26.080 -31.981   6.385  0.00  0.00    +0.007 C 
BRANCH  28  29
ATOM     29  C   LIG    1       26.740 -32.346   5.041  0.00  0.00    +0.000 C 
BRANCH  29  31
ATOM     30  C   LIG    1       25.873 -32.804   2.703  0.00  0.00    +0.004 C 
ATOM     31  C   LIG    1       25.886 -33.260   4.157  0.00  0.00    -0.003 C 
ENDBRANCH  29  31
ENDBRANCH  28  29
ENDBRANCH  25  28
ENDBRANCH  24  25
ENDBRANCH  23  24
ENDBRANCH  15  23
ENDBRANCH   1  18
BRANCH   3  32
ATOM     32  C   LIG    1       27.841 -20.438   6.611  0.00  0.00    +0.061 A 
ATOM     33  C   LIG    1       28.453 -20.738   7.835  0.00  0.00    +0.131 A 
ATOM     34  C   LIG    1       29.615 -20.091   8.237  0.00  0.00    +0.091 A 
ATOM     35  C   LIG    1       30.246 -19.157   7.426  0.00  0.00    +0.124 A 
ATOM     36  C   LIG    1       29.639 -18.807   6.215  0.00  0.00    +0.046 A 
ATOM     37  C   LIG    1       28.448 -19.447   5.825  0.00  0.00    +0.019 A 
BRANCH  33  38
ATOM     38  O   LIG    1       27.924 -21.674   8.680  0.00  0.00    -0.506 OA
ATOM     39  H   LIG    1       28.626 -22.270   8.995  0.00  0.00    +0.292 HD
ENDBRANCH  33  38
BRANCH  35  40
ATOM     40  O   LIG    1       31.452 -18.570   7.717  0.00  0.00    -0.492 OA
BRANCH  40  41
ATOM     41  C   LIG    1       31.756 -18.418   9.112  0.00  0.00    +0.232 C 
BRANCH  41  42
ATOM     42  C   LIG    1       30.912 -17.326   9.785  0.00  0.00    +0.026 C 
BRANCH  42  43
ATOM     43  C   LIG    1       31.510 -15.956   9.431  0.00  0.00    +0.003 C 
ATOM     44  C   LIG    1       33.025 -15.865   9.536  0.00  0.00    +0.004 C 
ENDBRANCH  42  43
BRANCH  42  45
ATOM     45  C   LIG    1       30.785 -17.571  11.314  0.00  0.00    +0.007 C 
BRANCH  45  46
ATOM     46  C   LIG    1       31.309 -16.404  12.174  0.00  0.00    +0.000 C 
BRANCH  46  47
ATOM     47  C   LIG    1       32.366 -16.840  13.190  0.00  0.00    -0.003 C 
ATOM     48  C   LIG    1       32.524 -15.803  14.297  0.00  0.00    +0.004 C 
ENDBRANCH  46  47
ENDBRANCH  45  46
ENDBRANCH  42  45
ENDBRANCH  41  42
ENDBRANCH  40  41
ENDBRANCH  35  40
ENDBRANCH   3  32
TORSDOF 20
ENDMDL
MODEL 5
REMARK VINA RESULT:      -6.2      2.250      7.058
REMARK  Name = *****
REMARK                            x       y       z     vdW  Elec       q    Type
REMARK                         _______ _______ _______ _____ _____    ______ ____
ROOT
ATOM      1  C   LIG    1       25.247 -21.170   5.811  0.00  0.00    +0.168 A 
ATOM      2  N   LIG    1       24.973 -22.463   5.762  0.00  0.00    -0.208 NA
ATOM      3  C   LIG    1       25.871 -23.272   6.319  0.00  0.00    +0.168 A 
ATOM      4  N   LIG    1       27.020 -22.863   6.860  0.00  0.00    -0.208 NA
ATOM      5  C   LIG    1       27.206 -21.550   6.844  0.00  0.00    +0.164 A 
ATOM      6  N   LIG    1       26.362 -20.658   6.338  0.00  0.00    -0.208 NA
ENDROOT
BRANCH   5   7
ATOM      7  C   LIG    1       28.431 -21.034   7.472  0.00  0.00    +0.019 A 
ATOM      8  C   LIG    1       29.356 -21.885   8.105  0.00  0.00    +0.015 A 
ATOM      9  C   LIG    1       30.526 -21.377   8.684  0.00  0.00    +0.046 A 
ATOM     10  C   LIG    1       30.799 -20.016   8.625  0.00  0.00    +0.120 A 
ATOM     11  C   LIG    1       29.890 -19.150   8.019  0.00  0.00    +0.046 A 
ATOM     12  C   LIG    1       28.720 -19.663   7.448  0.00  0.00    +0.015 A 
BRANCH  10  13
ATOM     13  O   LIG    1       31.968 -19.618   9.218  0.00  0.00    -0.495 OA
ATOM     14  C   LIG    1       32.001 -18.252   9.616  0.00  0.00    +0.277 C 
ENDBRANCH  10  13
ENDBRANCH   5   7
BRANCH   1  18
ATOM     15  C   LIG    1       22.411 -18.295   4.283  0.00  0.00    +0.124 A 
ATOM     16  C   LIG    1       23.624 -18.499   3.622  0.00  0.00    +0.091 A 
ATOM     17  C   LIG    1       24.543 -19.454   4.080  0.00  0.00    +0.131 A 
ATOM     18  C   LIG    1       24.280 -20.226   5.228  0.00  0.00    +0.061 A 
ATOM     19  C   LIG    1       23.026 -20.038   5.842  0.00  0.00    +0.019 A 
ATOM     20  C   LIG    1       22.103 -19.101   5.377  0.00  0.00    +0.046 A 
BRANCH  17  21
ATOM     21  O   LIG    1       25.705 -19.553   3.359  0.00  0.00    -0.506 OA
ATOM     22  H   LIG    1       25.963 -18.652   3.053  0.00  0.00    +0.292 HD
ENDBRANCH  17  21
BRANCH  15  23
ATOM     23  O   LIG    1       21.644 -17.249   3.837  0.00  0.00    -0.492 OA
BRANCH  23  24
ATOM     24  C   LIG    1       22.357 -16.077   3.430  0.00  0.00    +0.232 C 
BRANCH  24  25
ATOM     25  C   LIG    1       23.373 -15.621   4.506  0.00  0.00    +0.026 C 
BRANCH  25  26
ATOM     26  C   LIG    1       22.654 -14.693   5.513  0.00  0.00    +0.003 C 
ATOM     27  C   LIG    1       21.821 -15.410   6.568  0.00  0.00    +0.004 C 
ENDBRANCH  25  26
BRANCH  25  28
ATOM     28  C   LIG    1       24.655 -14.969   3.929  0.00  0.00    +0.007 C 
BRANCH  28  29
ATOM     29  C   LIG    1       25.161 -13.698   4.638  0.00  0.00    +0.000 C 
BRANCH  29  31
ATOM     30  C   LIG    1       27.386 -14.666   3.902  0.00  0.00    +0.004 C 
ATOM     31  C   LIG    1       26.686 -13.616   4.756  0.00  0.00    -0.003 C 
ENDBRANCH  29  31
ENDBRANCH  28  29
ENDBRANCH  25  28
ENDBRANCH  24  25
ENDBRANCH  23  24
ENDBRANCH  15  23
ENDBRANCH   1  18
BRANCH   3  32
ATOM     32  C   LIG    1       25.588 -24.709   6.353  0.00  0.00    +0.061 A 
ATOM     33  C   LIG    1       24.275 -25.191   6.437  0.00  0.00    +0.131 A 
ATOM     34  C   LIG    1       24.009 -26.555   6.458  0.00  0.00    +0.091 A 
ATOM     35  C   LIG    1       25.023 -27.497   6.353  0.00  0.00    +0.124 A 
ATOM     36  C   LIG    1       26.348 -27.047   6.309  0.00  0.00    +0.046 A 
ATOM     37  C   LIG    1       26.613 -25.666   6.312  0.00  0.00    +0.019 A 
BRANCH  33  38
ATOM     38  O   LIG    1       23.210 -24.336   6.503  0.00  0.00    -0.506 OA
ATOM     39  H   LIG    1       22.958 -24.051   5.607  0.00  0.00    +0.292 HD
ENDBRANCH  33  38
BRANCH  35  40
ATOM     40  O   LIG    1       24.815 -28.850   6.255  0.00  0.00    -0.492 OA
BRANCH  40  41
ATOM     41  C   LIG    1       24.457 -29.520   7.474  0.00  0.00    +0.232 C 
BRANCH  41  42
ATOM     42  C   LIG    1       25.680 -29.883   8.328  0.00  0.00    +0.026 C 
BRANCH  42  43
ATOM     43  C   LIG    1       26.010 -31.367   8.106  0.00  0.00    +0.003 C 
ATOM     44  C   LIG    1       25.636 -32.293   9.255  0.00  0.00    +0.004 C 
ENDBRANCH  42  43
BRANCH  42  45
ATOM     45  C   LIG    1       25.457 -29.515   9.821  0.00  0.00    +0.007 C 
BRANCH  45  46
ATOM     46  C   LIG    1       26.567 -28.625  10.412  0.00  0.00    +0.000 C 
BRANCH  46  47
ATOM     47  C   LIG    1       26.424 -28.415  11.920  0.00  0.00    -0.003 C 
ATOM     48  C   LIG    1       26.713 -26.967  12.303  0.00  0.00    +0.004 C 
ENDBRANCH  46  47
ENDBRANCH  45  46
ENDBRANCH  42  45
ENDBRANCH  41  42
ENDBRANCH  40  41
ENDBRANCH  35  40
ENDBRANCH   3  32
TORSDOF 20
ENDMDL
MODEL 6
REMARK VINA RESULT:      -6.2      2.097     11.248
REMARK  Name = *****
REMARK                            x       y       z     vdW  Elec       q    Type
REMARK                         _______ _______ _______ _____ _____    ______ ____
ROOT
ATOM      1  C   LIG    1       25.962 -23.382   6.444  0.00  0.00    +0.168 A 
ATOM      2  N   LIG    1       25.052 -22.563   5.945  0.00  0.00    -0.208 NA
ATOM      3  C   LIG    1       25.340 -21.264   6.002  0.00  0.00    +0.168 A 
ATOM      4  N   LIG    1       26.440 -20.761   6.566  0.00  0.00    -0.208 NA
ATOM      5  C   LIG    1       27.280 -21.666   7.051  0.00  0.00    +0.164 A 
ATOM      6  N   LIG    1       27.098 -22.981   7.020  0.00  0.00    -0.208 NA
ENDROOT
BRANCH   5   7
ATOM      7  C   LIG    1       28.535 -21.175   7.639  0.00  0.00    +0.019 A 
ATOM      8  C   LIG    1       28.869 -19.808   7.641  0.00  0.00    +0.015 A 
ATOM      9  C   LIG    1       30.061 -19.357   8.221  0.00  0.00    +0.046 A 
ATOM     10  C   LIG    1       30.930 -20.260   8.822  0.00  0.00    +0.120 A 
ATOM     11  C   LIG    1       30.631 -21.621   8.816  0.00  0.00    +0.046 A 
ATOM     12  C   LIG    1       29.440 -22.066   8.230  0.00  0.00    +0.015 A 
BRANCH  10  13
ATOM     13  O   LIG    1       32.068 -19.721   9.361  0.00  0.00    -0.495 OA
ATOM     14  C   LIG    1       32.077 -18.300   9.434  0.00  0.00    +0.277 C 
ENDBRANCH  10  13
ENDBRANCH   5   7
BRANCH   1  18
ATOM     15  C   LIG    1       25.323 -27.652   6.464  0.00  0.00    +0.124 A 
ATOM     16  C   LIG    1       24.231 -26.782   6.455  0.00  0.00    +0.091 A 
ATOM     17  C   LIG    1       24.415 -25.393   6.411  0.00  0.00    +0.131 A 
ATOM     18  C   LIG    1       25.706 -24.830   6.390  0.00  0.00    +0.061 A 
ATOM     19  C   LIG    1       26.788 -25.732   6.344  0.00  0.00    +0.019 A 
ATOM     20  C   LIG    1       26.605 -27.115   6.371  0.00  0.00    +0.046 A 
BRANCH  17  21
ATOM     21  O   LIG    1       23.269 -24.641   6.421  0.00  0.00    -0.506 OA
ATOM     22  H   LIG    1       23.251 -24.108   7.250  0.00  0.00    +0.292 HD
ENDBRANCH  17  21
BRANCH  15  23
ATOM     23  O   LIG    1       25.039 -28.982   6.644  0.00  0.00    -0.492 OA
BRANCH  23  24
ATOM     24  C   LIG    1       24.427 -29.331   7.888  0.00  0.00    +0.232 C 
BRANCH  24  25
ATOM     25  C   LIG    1       25.315 -30.293   8.715  0.00  0.00    +0.026 C 
BRANCH  25  26
ATOM     26  C   LIG    1       24.479 -30.866   9.884  0.00  0.00    +0.003 C 
ATOM     27  C   LIG    1       23.053 -30.338   9.975  0.00  0.00    +0.004 C 
ENDBRANCH  25  26
BRANCH  25  28
ATOM     28  C   LIG    1       26.643 -29.663   9.206  0.00  0.00    +0.007 C 
BRANCH  28  29
ATOM     29  C   LIG    1       26.545 -28.278   9.874  0.00  0.00    +0.000 C 
BRANCH  29  31
ATOM     30  C   LIG    1       27.613 -29.579  11.770  0.00  0.00    +0.004 C 
ATOM     31  C   LIG    1       27.203 -28.205  11.255  0.00  0.00    -0.003 C 
ENDBRANCH  29  31
ENDBRANCH  28  29
ENDBRANCH  25  28
ENDBRANCH  24  25
ENDBRANCH  23  24
ENDBRANCH  15  23
ENDBRANCH   1  18
BRANCH   3  32
ATOM     32  C   LIG    1       24.399 -20.315   5.405  0.00  0.00    +0.061 A 
ATOM     33  C   LIG    1       24.712 -19.619   4.229  0.00  0.00    +0.131 A 
ATOM     34  C   LIG    1       23.813 -18.727   3.659  0.00  0.00    +0.091 A 
ATOM     35  C   LIG    1       22.551 -18.518   4.199  0.00  0.00    +0.124 A 
ATOM     36  C   LIG    1       22.223 -19.167   5.395  0.00  0.00    +0.046 A 
ATOM     37  C   LIG    1       23.147 -20.052   5.982  0.00  0.00    +0.019 A 
BRANCH  33  38
ATOM     38  O   LIG    1       25.917 -19.793   3.604  0.00  0.00    -0.506 OA
ATOM     39  H   LIG    1       26.418 -18.959   3.616  0.00  0.00    +0.292 HD
ENDBRANCH  33  38
BRANCH  35  40
ATOM     40  O   LIG    1       21.582 -17.738   3.620  0.00  0.00    -0.492 OA
BRANCH  40  41
ATOM     41  C   LIG    1       21.493 -16.388   4.100  0.00  0.00    +0.232 C 
BRANCH  41  42
ATOM     42  C   LIG    1       22.816 -15.884   4.694  0.00  0.00    +0.026 C 
BRANCH  42  43
ATOM     43  C   LIG    1       22.501 -14.962   5.882  0.00  0.00    +0.003 C 
ATOM     44  C   LIG    1       21.377 -15.437   6.791  0.00  0.00    +0.004 C 
ENDBRANCH  42  43
BRANCH  42  45
ATOM     45  C   LIG    1       23.705 -15.216   3.610  0.00  0.00    +0.007 C 
BRANCH  45  46
ATOM     46  C   LIG    1       24.314 -13.871   4.051  0.00  0.00    +0.000 C 
BRANCH  46  47
ATOM     47  C   LIG    1       25.816 -13.957   4.328  0.00  0.00    -0.003 C 
ATOM     48  C   LIG    1       26.487 -14.972   3.410  0.00  0.00    +0.004 C 
ENDBRANCH  46  47
ENDBRANCH  45  46
ENDBRANCH  42  45
ENDBRANCH  41  42
ENDBRANCH  40  41
ENDBRANCH  35  40
ENDBRANCH   3  32
TORSDOF 20
ENDMDL
MODEL 7
REMARK VINA RESULT:      -6.0      2.035      6.701
REMARK  Name = *****
REMARK                            x       y       z     vdW  Elec       q    Type
REMARK                         _______ _______ _______ _____ _____    ______ ____
ROOT
ATOM      1  C   LIG    1       25.337 -21.250   5.832  0.00  0.00    +0.168 A 
ATOM      2  N   LIG    1       25.090 -22.548   5.782  0.00  0.00    -0.208 NA
ATOM      3  C   LIG    1       26.007 -23.340   6.333  0.00  0.00    +0.168 A 
ATOM      4  N   LIG    1       27.151 -22.908   6.868  0.00  0.00    -0.208 NA
ATOM      5  C   LIG    1       27.309 -21.591   6.853  0.00  0.00    +0.164 A 
ATOM      6  N   LIG    1       26.444 -20.716   6.353  0.00  0.00    -0.208 NA
ENDROOT
BRANCH   5   7
ATOM      7  C   LIG    1       28.527 -21.051   7.476  0.00  0.00    +0.019 A 
ATOM      8  C   LIG    1       29.414 -21.867   8.202  0.00  0.00    +0.015 A 
ATOM      9  C   LIG    1       30.578 -21.338   8.774  0.00  0.00    +0.046 A 
ATOM     10  C   LIG    1       30.883 -19.991   8.615  0.00  0.00    +0.120 A 
ATOM     11  C   LIG    1       30.011 -19.159   7.916  0.00  0.00    +0.046 A 
ATOM     12  C   LIG    1       28.847 -19.693   7.351  0.00  0.00    +0.015 A 
BRANCH  10  13
ATOM     13  O   LIG    1       32.043 -19.571   9.210  0.00  0.00    -0.495 OA
ATOM     14  C   LIG    1       32.088 -18.181   9.513  0.00  0.00    +0.277 C 
ENDBRANCH  10  13
ENDBRANCH   5   7
BRANCH   1  18
ATOM     15  C   LIG    1       22.427 -18.438   4.328  0.00  0.00    +0.124 A 
ATOM     16  C   LIG    1       23.660 -18.577   3.687  0.00  0.00    +0.091 A 
ATOM     17  C   LIG    1       24.604 -19.511   4.136  0.00  0.00    +0.131 A 
ATOM     18  C   LIG    1       24.348 -20.326   5.256  0.00  0.00    +0.061 A 
ATOM     19  C   LIG    1       23.075 -20.202   5.849  0.00  0.00    +0.019 A 
ATOM     20  C   LIG    1       22.128 -19.286   5.392  0.00  0.00    +0.046 A 
BRANCH  17  21
ATOM     21  O   LIG    1       25.783 -19.547   3.437  0.00  0.00    -0.506 OA
ATOM     22  H   LIG    1       26.530 -19.518   4.079  0.00  0.00    +0.292 HD
ENDBRANCH  17  21
BRANCH  15  23
ATOM     23  O   LIG    1       21.631 -17.407   3.896  0.00  0.00    -0.492 OA
BRANCH  23  24
ATOM     24  C   LIG    1       22.313 -16.231   3.450  0.00  0.00    +0.232 C 
BRANCH  24  25
ATOM     25  C   LIG    1       23.299 -15.700   4.520  0.00  0.00    +0.026 C 
BRANCH  25  26
ATOM     26  C   LIG    1       22.537 -14.752   5.475  0.00  0.00    +0.003 C 
ATOM     27  C   LIG    1       21.804 -15.442   6.619  0.00  0.00    +0.004 C 
ENDBRANCH  25  26
BRANCH  25  28
ATOM     28  C   LIG    1       24.570 -15.035   3.934  0.00  0.00    +0.007 C 
BRANCH  28  29
ATOM     29  C   LIG    1       24.977 -13.677   4.536  0.00  0.00    +0.000 C 
BRANCH  29  31
ATOM     30  C   LIG    1       27.325 -14.494   4.037  0.00  0.00    +0.004 C 
ATOM     31  C   LIG    1       26.463 -13.575   4.894  0.00  0.00    -0.003 C 
ENDBRANCH  29  31
ENDBRANCH  28  29
ENDBRANCH  25  28
ENDBRANCH  24  25
ENDBRANCH  23  24
ENDBRANCH  15  23
ENDBRANCH   1  18
BRANCH   3  32
ATOM     32  C   LIG    1       25.754 -24.782   6.366  0.00  0.00    +0.061 A 
ATOM     33  C   LIG    1       25.152 -25.442   5.286  0.00  0.00    +0.131 A 
ATOM     34  C   LIG    1       24.923 -26.812   5.316  0.00  0.00    +0.091 A 
ATOM     35  C   LIG    1       25.320 -27.594   6.393  0.00  0.00    +0.124 A 
ATOM     36  C   LIG    1       25.888 -26.959   7.503  0.00  0.00    +0.046 A 
ATOM     37  C   LIG    1       26.096 -25.568   7.478  0.00  0.00    +0.019 A 
BRANCH  33  38
ATOM     38  O   LIG    1       24.765 -24.758   4.166  0.00  0.00    -0.506 OA
ATOM     39  H   LIG    1       23.841 -24.975   3.949  0.00  0.00    +0.292 HD
ENDBRANCH  33  38
BRANCH  35  40
ATOM     40  O   LIG    1       25.224 -28.962   6.431  0.00  0.00    -0.492 OA
BRANCH  40  41
ATOM     41  C   LIG    1       24.401 -29.504   7.475  0.00  0.00    +0.232 C 
BRANCH  41  42
ATOM     42  C   LIG    1       24.936 -30.838   8.017  0.00  0.00    +0.026 C 
BRANCH  42  43
ATOM     43  C   LIG    1       26.281 -30.581   8.712  0.00  0.00    +0.003 C 
ATOM     44  C   LIG    1       26.224 -29.640   9.906  0.00  0.00    +0.004 C 
ENDBRANCH  42  43
BRANCH  42  45
ATOM     45  C   LIG    1       25.012 -31.913   6.898  0.00  0.00    +0.007 C 
BRANCH  45  46
ATOM     46  C   LIG    1       26.425 -32.492   6.691  0.00  0.00    +0.000 C 
BRANCH  46  47
ATOM     47  C   LIG    1       26.807 -32.622   5.215  0.00  0.00    -0.003 C 
ATOM     48  C   LIG    1       25.584 -32.474   4.316  0.00  0.00    +0.004 C 
ENDBRANCH  46  47
ENDBRANCH  45  46
ENDBRANCH  42  45
ENDBRANCH  41  42
ENDBRANCH  40  41
ENDBRANCH  35  40
ENDBRANCH   3  32
TORSDOF 20
ENDMDL
MODEL 8
REMARK VINA RESULT:      -5.9      2.114     11.605
REMARK  Name = *****
REMARK                            x       y       z     vdW  Elec       q    Type
REMARK                         _______ _______ _______ _____ _____    ______ ____
ROOT
ATOM      1  C   LIG    1       25.957 -23.423   6.399  0.00  0.00    +0.168 A 
ATOM      2  N   LIG    1       25.024 -22.629   5.902  0.00  0.00    -0.208 NA
ATOM      3  C   LIG    1       25.284 -21.324   5.940  0.00  0.00    +0.168 A 
ATOM      4  N   LIG    1       26.379 -20.791   6.484  0.00  0.00    -0.208 NA
ATOM      5  C   LIG    1       27.244 -21.671   6.970  0.00  0.00    +0.164 A 
ATOM      6  N   LIG    1       27.091 -22.990   6.957  0.00  0.00    -0.208 NA
ENDROOT
BRANCH   5   7
ATOM      7  C   LIG    1       28.495 -21.145   7.537  0.00  0.00    +0.019 A 
ATOM      8  C   LIG    1       28.847 -19.787   7.429  0.00  0.00    +0.015 A 
ATOM      9  C   LIG    1       30.034 -19.302   7.990  0.00  0.00    +0.046 A 
ATOM     10  C   LIG    1       30.881 -20.160   8.682  0.00  0.00    +0.120 A 
ATOM     11  C   LIG    1       30.564 -21.513   8.787  0.00  0.00    +0.046 A 
ATOM     12  C   LIG    1       29.378 -21.993   8.219  0.00  0.00    +0.015 A 
BRANCH  10  13
ATOM     13  O   LIG    1       32.016 -19.590   9.194  0.00  0.00    -0.495 OA
ATOM     14  C   LIG    1       31.909 -18.199   9.476  0.00  0.00    +0.277 C 
ENDBRANCH  10  13
ENDBRANCH   5   7
BRANCH   1  18
ATOM     15  C   LIG    1       25.415 -27.705   6.476  0.00  0.00    +0.124 A 
ATOM     16  C   LIG    1       24.303 -26.860   6.489  0.00  0.00    +0.091 A 
ATOM     17  C   LIG    1       24.456 -25.467   6.427  0.00  0.00    +0.131 A 
ATOM     18  C   LIG    1       25.733 -24.876   6.366  0.00  0.00    +0.061 A 
ATOM     19  C   LIG    1       26.833 -25.754   6.300  0.00  0.00    +0.019 A 
ATOM     20  C   LIG    1       26.682 -27.140   6.344  0.00  0.00    +0.046 A 
BRANCH  17  21
ATOM     21  O   LIG    1       23.294 -24.741   6.460  0.00  0.00    -0.506 OA
ATOM     22  H   LIG    1       22.732 -25.011   5.697  0.00  0.00    +0.292 HD
ENDBRANCH  17  21
BRANCH  15  23
ATOM     23  O   LIG    1       25.166 -29.039   6.676  0.00  0.00    -0.492 OA
BRANCH  23  24
ATOM     24  C   LIG    1       24.402 -29.368   7.841  0.00  0.00    +0.232 C 
BRANCH  24  25
ATOM     25  C   LIG    1       25.205 -30.261   8.819  0.00  0.00    +0.026 C 
BRANCH  25  26
ATOM     26  C   LIG    1       26.527 -29.544   9.180  0.00  0.00    +0.003 C 
ATOM     27  C   LIG    1       26.429 -28.552  10.333  0.00  0.00    +0.004 C 
ENDBRANCH  25  26
BRANCH  25  28
ATOM     28  C   LIG    1       25.447 -31.703   8.307  0.00  0.00    +0.007 C 
BRANCH  28  29
ATOM     29  C   LIG    1       26.916 -32.132   8.125  0.00  0.00    +0.000 C 
BRANCH  29  31
ATOM     30  C   LIG    1       26.368 -32.122   5.649  0.00  0.00    +0.004 C 
ATOM     31  C   LIG    1       27.222 -32.737   6.751  0.00  0.00    -0.003 C 
ENDBRANCH  29  31
ENDBRANCH  28  29
ENDBRANCH  25  28
ENDBRANCH  24  25
ENDBRANCH  23  24
ENDBRANCH  15  23
ENDBRANCH   1  18
BRANCH   3  32
ATOM     32  C   LIG    1       24.315 -20.403   5.342  0.00  0.00    +0.061 A 
ATOM     33  C   LIG    1       22.996 -20.329   5.807  0.00  0.00    +0.131 A 
ATOM     34  C   LIG    1       22.082 -19.446   5.245  0.00  0.00    +0.091 A 
ATOM     35  C   LIG    1       22.445 -18.568   4.233  0.00  0.00    +0.124 A 
ATOM     36  C   LIG    1       23.744 -18.645   3.719  0.00  0.00    +0.046 A 
ATOM     37  C   LIG    1       24.659 -19.558   4.275  0.00  0.00    +0.019 A 
BRANCH  33  38
ATOM     38  O   LIG    1       22.561 -21.128   6.829  0.00  0.00    -0.506 OA
ATOM     39  H   LIG    1       22.826 -20.746   7.684  0.00  0.00    +0.292 HD
ENDBRANCH  33  38
BRANCH  35  40
ATOM     40  O   LIG    1       21.621 -17.599   3.718  0.00  0.00    -0.492 OA
BRANCH  40  41
ATOM     41  C   LIG    1       22.232 -16.324   3.466  0.00  0.00    +0.232 C 
BRANCH  41  42
ATOM     42  C   LIG    1       22.992 -15.782   4.685  0.00  0.00    +0.026 C 
BRANCH  42  43
ATOM     43  C   LIG    1       22.084 -15.899   5.920  0.00  0.00    +0.003 C 
ATOM     44  C   LIG    1       21.691 -14.576   6.561  0.00  0.00    +0.004 C 
ENDBRANCH  42  43
BRANCH  42  45
ATOM     45  C   LIG    1       23.512 -14.341   4.433  0.00  0.00    +0.007 C 
BRANCH  45  46
ATOM     46  C   LIG    1       25.042 -14.205   4.555  0.00  0.00    +0.000 C 
BRANCH  46  47
ATOM     47  C   LIG    1       25.799 -14.984   3.479  0.00  0.00    -0.003 C 
ATOM     48  C   LIG    1       26.511 -14.040   2.514  0.00  0.00    +0.004 C 
ENDBRANCH  46  47
ENDBRANCH  45  46
ENDBRANCH  42  45
ENDBRANCH  41  42
ENDBRANCH  40  41
ENDBRANCH  35  40
ENDBRANCH   3  32
TORSDOF 20
ENDMDL
MODEL 9
REMARK VINA RESULT:      -5.8      4.277     12.395
REMARK  Name = *****
REMARK                            x       y       z     vdW  Elec       q    Type
REMARK                         _______ _______ _______ _____ _____    ______ ____
ROOT
ATOM      1  C   LIG    1       24.525 -29.915   8.104  0.00  0.00    +0.168 A 
ATOM      2  N   LIG    1       24.514 -28.607   7.910  0.00  0.00    -0.208 NA
ATOM      3  C   LIG    1       24.967 -28.187   6.731  0.00  0.00    +0.168 A 
ATOM      4  N   LIG    1       25.466 -28.989   5.787  0.00  0.00    -0.208 NA
ATOM      5  C   LIG    1       25.447 -30.280   6.088  0.00  0.00    +0.164 A 
ATOM      6  N   LIG    1       24.992 -30.802   7.221  0.00  0.00    -0.208 NA
ENDROOT
BRANCH   5   7
ATOM      7  C   LIG    1       25.936 -31.218   5.066  0.00  0.00    +0.019 A 
ATOM      8  C   LIG    1       25.534 -31.126   3.720  0.00  0.00    +0.015 A 
ATOM      9  C   LIG    1       26.023 -32.018   2.759  0.00  0.00    +0.046 A 
ATOM     10  C   LIG    1       26.935 -33.004   3.120  0.00  0.00    +0.120 A 
ATOM     11  C   LIG    1       27.334 -33.126   4.449  0.00  0.00    +0.046 A 
ATOM     12  C   LIG    1       26.837 -32.235   5.408  0.00  0.00    +0.015 A 
BRANCH  10  13
ATOM     13  O   LIG    1       27.354 -33.825   2.108  0.00  0.00    -0.495 OA
ATOM     14  C   LIG    1       26.522 -33.821   0.953  0.00  0.00    +0.277 C 
ENDBRANCH  10  13
ENDBRANCH   5   7
BRANCH   1  18
ATOM     15  C   LIG    1       22.932 -31.267  11.882  0.00  0.00    +0.124 A 
ATOM     16  C   LIG    1       22.681 -31.995  10.718  0.00  0.00    +0.091 A 
ATOM     17  C   LIG    1       23.219 -31.594   9.487  0.00  0.00    +0.131 A 
ATOM     18  C   LIG    1       24.016 -30.438   9.382  0.00  0.00    +0.061 A 
ATOM     19  C   LIG    1       24.298 -29.754  10.582  0.00  0.00    +0.019 A 
ATOM     20  C   LIG    1       23.777 -30.161  11.810  0.00  0.00    +0.046 A 
BRANCH  17  21
ATOM     21  O   LIG    1       22.892 -32.380   8.412  0.00  0.00    -0.506 OA
ATOM     22  H   LIG    1       22.433 -31.821   7.742  0.00  0.00    +0.292 HD
ENDBRANCH  17  21
BRANCH  15  23
ATOM     23  O   LIG    1       22.251 -31.664  13.005  0.00  0.00    -0.492 OA
BRANCH  23  24
ATOM     24  C   LIG    1       22.083 -30.671  14.021  0.00  0.00    +0.232 C 
BRANCH  24  25
ATOM     25  C   LIG    1       20.754 -29.893  13.849  0.00  0.00    +0.026 C 
BRANCH  25  26
ATOM     26  C   LIG    1       19.660 -30.874  13.363  0.00  0.00    +0.003 C 
ATOM     27  C   LIG    1       18.234 -30.344  13.453  0.00  0.00    +0.004 C 
ENDBRANCH  25  26
BRANCH  25  28
ATOM     28  C   LIG    1       20.864 -28.647  12.935  0.00  0.00    +0.007 C 
BRANCH  28  29
ATOM     29  C   LIG    1       21.542 -27.404  13.542  0.00  0.00    +0.000 C 
BRANCH  29  31
ATOM     30  C   LIG    1       19.317 -26.980  14.682  0.00  0.00    +0.004 C 
ATOM     31  C   LIG    1       20.832 -26.851  14.782  0.00  0.00    -0.003 C 
ENDBRANCH  29  31
ENDBRANCH  28  29
ENDBRANCH  25  28
ENDBRANCH  24  25
ENDBRANCH  23  24
ENDBRANCH  15  23
ENDBRANCH   1  18
BRANCH   3  32
ATOM     32  C   LIG    1       24.916 -26.754   6.434  0.00  0.00    +0.061 A 
ATOM     33  C   LIG    1       26.063 -26.048   6.050  0.00  0.00    +0.131 A 
ATOM     34  C   LIG    1       26.009 -24.690   5.759  0.00  0.00    +0.091 A 
ATOM     35  C   LIG    1       24.814 -23.985   5.791  0.00  0.00    +0.124 A 
ATOM     36  C   LIG    1       23.658 -24.652   6.211  0.00  0.00    +0.046 A 
ATOM     37  C   LIG    1       23.722 -26.022   6.528  0.00  0.00    +0.019 A 
BRANCH  33  38
ATOM     38  O   LIG    1       27.277 -26.670   5.951  0.00  0.00    -0.506 OA
ATOM     39  H   LIG    1       27.357 -27.351   6.641  0.00  0.00    +0.292 HD
ENDBRANCH  33  38
BRANCH  35  40
ATOM     40  O   LIG    1       24.678 -22.674   5.406  0.00  0.00    -0.492 OA
BRANCH  40  41
ATOM     41  C   LIG    1       24.522 -21.721   6.468  0.00  0.00    +0.232 C 
BRANCH  41  42
ATOM     42  C   LIG    1       25.417 -20.486   6.290  0.00  0.00    +0.026 C 
BRANCH  42  43
ATOM     43  C   LIG    1       25.959 -20.477   4.853  0.00  0.00    +0.003 C 
ATOM     44  C   LIG    1       25.240 -19.539   3.895  0.00  0.00    +0.004 C 
ENDBRANCH  42  43
BRANCH  42  45
ATOM     45  C   LIG    1       26.530 -20.433   7.372  0.00  0.00    +0.007 C 
BRANCH  45  46
ATOM     46  C   LIG    1       27.957 -20.523   6.799  0.00  0.00    +0.000 C 
BRANCH  46  47
ATOM     47  C   LIG    1       28.953 -19.621   7.530  0.00  0.00    -0.003 C 
ATOM     48  C   LIG    1       30.337 -19.702   6.894  0.00  0.00    +0.004 C 
ENDBRANCH  46  47
ENDBRANCH  45  46
ENDBRANCH  42  45
ENDBRANCH  41  42
ENDBRANCH  40  41
ENDBRANCH  35  40
ENDBRANCH   3  32
TORSDOF 20
ENDMDL
