MODEL 1
REMARK VINA RESULT:      -4.5      0.000      0.000
REMARK  Name = *****
REMARK                            x       y       z     vdW  Elec       q    Type
REMARK                         _______ _______ _______ _____ _____    ______ ____
ROOT
ATOM      1  N   LIG    1       25.948 -18.864   4.389  0.00  0.00    -0.298 N 
ATOM      2  C   LIG    1       24.621 -19.378   4.544  0.00  0.00    +0.048 A 
ATOM      3  C   LIG    1       24.343 -20.513   5.336  0.00  0.00    +0.034 A 
ATOM      4  C   LIG    1       23.045 -21.059   5.403  0.00  0.00    +0.017 A 
ATOM      5  C   LIG    1       21.977 -20.475   4.740  0.00  0.00    +0.001 A 
ATOM      6  C   LIG    1       22.202 -19.316   4.015  0.00  0.00    +0.002 A 
ATOM      7  S   LIG    1       25.549 -21.340   6.332  0.00  0.00    -0.086 S 
ATOM      8  C   LIG    1       26.991 -20.338   6.090  0.00  0.00    +0.034 A 
ATOM      9  C   LIG    1       28.081 -20.669   6.921  0.00  0.00    +0.017 A 
ATOM     10  C   LIG    1       29.313 -20.056   6.770  0.00  0.00    +0.001 A 
ATOM     11  C   LIG    1       29.474 -19.126   5.755  0.00  0.00    +0.002 A 
ATOM     12  C   LIG    1       28.383 -18.772   4.949  0.00  0.00    +0.024 A 
ATOM     13  C   LIG    1       23.498 -18.796   3.922  0.00  0.00    +0.024 A 
ATOM     14  C   LIG    1       27.092 -19.320   5.114  0.00  0.00    +0.048 A 
ENDROOT
BRANCH   1  15
ATOM     15  C   LIG    1       26.143 -17.792   3.362  0.00  0.00    +0.115 C 
BRANCH  15  17
ATOM     16  C   LIG    1       27.530 -15.658   3.811  0.00  0.00    +0.010 C 
ATOM     17  C   LIG    1       26.167 -16.353   3.945  0.00  0.00    +0.018 C 
BRANCH  17  18
ATOM     18  C   LIG    1       25.106 -15.447   3.266  0.00  0.00    +0.088 C 
BRANCH  18  19
ATOM     19  N   LIG    1       25.236 -13.990   3.468  0.00  0.00    -0.308 NA
ATOM     20  C   LIG    1       24.085 -13.506   4.247  0.00  0.00    +0.104 C 
ATOM     21  C   LIG    1       25.287 -13.256   2.202  0.00  0.00    +0.104 C 
ENDBRANCH  18  19
ENDBRANCH  17  18
ENDBRANCH  15  17
ENDBRANCH   1  15
TORSDOF 4
ENDMDL
MODEL 2
REMARK VINA RESULT:      -4.0      0.214      4.155
REMARK  Name = *****
REMARK                            x       y       z     vdW  Elec       q    Type
REMARK                         _______ _______ _______ _____ _____    ______ ____
ROOT
ATOM      1  N   LIG    1       25.914 -18.945   4.413  0.00  0.00    -0.298 N 
ATOM      2  C   LIG    1       27.038 -19.409   5.168  0.00  0.00    +0.048 A 
ATOM      3  C   LIG    1       26.895 -20.271   6.276  0.00  0.00    +0.034 A 
ATOM      4  C   LIG    1       28.005 -20.645   7.061  0.00  0.00    +0.017 A 
ATOM      5  C   LIG    1       29.289 -20.227   6.749  0.00  0.00    +0.001 A 
ATOM      6  C   LIG    1       29.473 -19.440   5.623  0.00  0.00    +0.002 A 
ATOM      7  S   LIG    1       25.357 -20.990   6.775  0.00  0.00    -0.086 S 
ATOM      8  C   LIG    1       24.243 -20.402   5.527  0.00  0.00    +0.034 A 
ATOM      9  C   LIG    1       22.955 -20.973   5.576  0.00  0.00    +0.017 A 
ATOM     10  C   LIG    1       21.941 -20.531   4.744  0.00  0.00    +0.001 A 
ATOM     11  C   LIG    1       22.201 -19.484   3.875  0.00  0.00    +0.002 A 
ATOM     12  C   LIG    1       23.490 -18.937   3.802  0.00  0.00    +0.024 A 
ATOM     13  C   LIG    1       28.365 -19.043   4.865  0.00  0.00    +0.024 A 
ATOM     14  C   LIG    1       24.571 -19.403   4.582  0.00  0.00    +0.048 A 
ENDROOT
BRANCH   1  15
ATOM     15  C   LIG    1       26.174 -17.873   3.400  0.00  0.00    +0.115 C 
BRANCH  15  17
ATOM     16  C   LIG    1       27.547 -15.754   3.950  0.00  0.00    +0.010 C 
ATOM     17  C   LIG    1       26.171 -16.435   3.986  0.00  0.00    +0.018 C 
BRANCH  17  18
ATOM     18  C   LIG    1       25.171 -15.517   3.233  0.00  0.00    +0.088 C 
BRANCH  18  19
ATOM     19  N   LIG    1       25.284 -14.064   3.467  0.00  0.00    -0.308 NA
ATOM     20  C   LIG    1       24.091 -13.597   4.190  0.00  0.00    +0.104 C 
ATOM     21  C   LIG    1       25.401 -13.309   2.217  0.00  0.00    +0.104 C 
ENDBRANCH  18  19
ENDBRANCH  17  18
ENDBRANCH  15  17
ENDBRANCH   1  15
TORSDOF 4
ENDMDL
MODEL 3
REMARK VINA RESULT:      -3.2      0.956      1.211
REMARK  Name = *****
REMARK                            x       y       z     vdW  Elec       q    Type
REMARK                         _______ _______ _______ _____ _____    ______ ____
ROOT
ATOM      1  N   LIG    1       25.935 -18.939   4.241  0.00  0.00    -0.298 N 
ATOM      2  C   LIG    1       24.630 -19.460   4.514  0.00  0.00    +0.048 A 
ATOM      3  C   LIG    1       24.399 -20.418   5.523  0.00  0.00    +0.034 A 
ATOM      4  C   LIG    1       23.123 -20.986   5.717  0.00  0.00    +0.017 A 
ATOM      5  C   LIG    1       22.031 -20.589   4.962  0.00  0.00    +0.001 A 
ATOM      6  C   LIG    1       22.208 -19.595   4.013  0.00  0.00    +0.002 A 
ATOM      7  S   LIG    1       25.640 -20.980   6.653  0.00  0.00    -0.086 S 
ATOM      8  C   LIG    1       27.042 -19.997   6.194  0.00  0.00    +0.034 A 
ATOM      9  C   LIG    1       28.147 -20.111   7.062  0.00  0.00    +0.017 A 
ATOM     10  C   LIG    1       29.354 -19.498   6.774  0.00  0.00    +0.001 A 
ATOM     11  C   LIG    1       29.474 -18.789   5.589  0.00  0.00    +0.002 A 
ATOM     12  C   LIG    1       28.367 -18.647   4.741  0.00  0.00    +0.024 A 
ATOM     13  C   LIG    1       23.483 -19.058   3.800  0.00  0.00    +0.024 A 
ATOM     14  C   LIG    1       27.099 -19.197   5.030  0.00  0.00    +0.048 A 
ENDROOT
BRANCH   1  15
ATOM     15  C   LIG    1       26.085 -18.093   3.015  0.00  0.00    +0.115 C 
BRANCH  15  17
ATOM     16  C   LIG    1       24.624 -16.271   4.120  0.00  0.00    +0.010 C 
ATOM     17  C   LIG    1       25.859 -16.577   3.261  0.00  0.00    +0.018 C 
BRANCH  17  18
ATOM     18  C   LIG    1       27.087 -15.925   3.951  0.00  0.00    +0.088 C 
BRANCH  18  19
ATOM     19  N   LIG    1       27.326 -14.492   3.685  0.00  0.00    -0.308 NA
ATOM     20  C   LIG    1       26.729 -13.694   4.767  0.00  0.00    +0.104 C 
ATOM     21  C   LIG    1       26.750 -14.061   2.410  0.00  0.00    +0.104 C 
ENDBRANCH  18  19
ENDBRANCH  17  18
ENDBRANCH  15  17
ENDBRANCH   1  15
TORSDOF 4
ENDMDL
MODEL 4
REMARK VINA RESULT:      -1.9      2.071      5.373
REMARK  Name = *****
REMARK                            x       y       z     vdW  Elec       q    Type
REMARK                         _______ _______ _______ _____ _____    ______ ____
ROOT
ATOM      1  N   LIG    1       25.389 -17.386   3.699  0.00  0.00    -0.298 N 
ATOM      2  C   LIG    1       24.026 -17.788   3.872  0.00  0.00    +0.048 A 
ATOM      3  C   LIG    1       23.004 -16.865   4.183  0.00  0.00    +0.034 A 
ATOM      4  C   LIG    1       21.684 -17.292   4.438  0.00  0.00    +0.017 A 
ATOM      5  C   LIG    1       21.322 -18.626   4.341  0.00  0.00    +0.001 A 
ATOM      6  C   LIG    1       22.286 -19.548   3.964  0.00  0.00    +0.002 A 
ATOM      7  S   LIG    1       23.245 -15.113   4.257  0.00  0.00    -0.086 S 
ATOM      8  C   LIG    1       24.946 -14.946   3.786  0.00  0.00    +0.034 A 
ATOM      9  C   LIG    1       25.369 -13.617   3.584  0.00  0.00    +0.017 A 
ATOM     10  C   LIG    1       26.696 -13.315   3.327  0.00  0.00    +0.001 A 
ATOM     11  C   LIG    1       27.620 -14.348   3.305  0.00  0.00    +0.002 A 
ATOM     12  C   LIG    1       27.196 -15.673   3.473  0.00  0.00    +0.024 A 
ATOM     13  C   LIG    1       23.602 -19.126   3.744  0.00  0.00    +0.024 A 
ATOM     14  C   LIG    1       25.843 -16.031   3.667  0.00  0.00    +0.048 A 
ENDROOT
BRANCH   1  15
ATOM     15  C   LIG    1       26.407 -18.477   3.582  0.00  0.00    +0.115 C 
BRANCH  15  17
ATOM     16  C   LIG    1       25.952 -20.719   4.783  0.00  0.00    +0.010 C 
ATOM     17  C   LIG    1       26.581 -19.321   4.873  0.00  0.00    +0.018 C 
BRANCH  17  18
ATOM     18  C   LIG    1       28.079 -19.501   5.237  0.00  0.00    +0.088 C 
BRANCH  18  19
ATOM     19  N   LIG    1       28.405 -19.720   6.660  0.00  0.00    -0.308 NA
ATOM     20  C   LIG    1       29.475 -18.794   7.059  0.00  0.00    +0.104 C 
ATOM     21  C   LIG    1       28.850 -21.091   6.922  0.00  0.00    +0.104 C 
ENDBRANCH  18  19
ENDBRANCH  17  18
ENDBRANCH  15  17
ENDBRANCH   1  15
TORSDOF 4
ENDMDL
