MODEL 1
REMARK VINA RESULT:      92.5      0.000      0.000
REMARK  Name = *****
REMARK                            x       y       z     vdW  Elec       q    Type
REMARK                         _______ _______ _______ _____ _____    ______ ____
ROOT
ATOM      1  C   LIG    1       26.993 -20.357   4.635  0.00  0.00    +0.210 C 
ATOM      2  C   LIG    1       25.753 -20.295   3.609  0.00  0.00    +0.126 C 
ATOM      3  C   LIG    1       26.348 -20.166   2.201  0.00  0.00    +0.048 C 
ATOM      4  C   LIG    1       24.737 -19.166   4.150  0.00  0.00    +0.158 C 
ATOM      5  C   LIG    1       23.517 -18.374   3.579  0.00  0.00    +0.065 C 
ATOM      6  C   LIG    1       22.981 -18.934   2.281  0.00  0.00    +0.016 C 
ATOM      7  C   LIG    1       22.491 -17.981   4.684  0.00  0.00    +0.066 C 
ATOM      8  N   LIG    1       21.348 -18.542   4.952  0.00  0.00    -0.091 NA
ATOM      9  C   LIG    1       22.847 -16.896   5.808  0.00  0.00    +0.037 C 
ATOM     10  C   LIG    1       21.644 -16.059   6.228  0.00  0.00    +0.014 C 
ATOM     11  C   LIG    1       24.128 -16.065   5.989  0.00  0.00    +0.046 C 
ATOM     12  C   LIG    1       24.539 -14.690   5.374  0.00  0.00    +0.090 C 
ATOM     13  C   LIG    1       23.593 -13.568   5.732  0.00  0.00    +0.044 C 
ATOM     14  C   LIG    1       25.071 -14.636   3.868  0.00  0.00    +0.158 C 
ATOM     15  C   LIG    1       26.424 -15.721   3.810  0.00  0.00    +0.047 C 
ATOM     16  C   LIG    1       26.739 -16.581   2.560  0.00  0.00    +0.013 C 
ATOM     17  C   LIG    1       27.775 -15.520   4.848  0.00  0.00    +0.140 C 
ATOM     18  C   LIG    1       28.342 -16.959   5.328  0.00  0.00    +0.124 C 
ATOM     19  C   LIG    1       28.754 -17.055   6.820  0.00  0.00    +0.022 C 
ATOM     20  C   LIG    1       27.433 -18.130   5.329  0.00  0.00    +0.313 C 
ATOM     21  O   LIG    1       26.430 -18.262   6.208  0.00  0.00    -0.250 OA
ATOM     22  O   LIG    1       27.763 -19.127   4.523  0.00  0.00    -0.458 OA
ENDROOT
BRANCH   1  24
ATOM     23  C   LIG    1       29.006 -21.361   3.350  0.00  0.00    +0.007 C 
ATOM     24  C   LIG    1       27.983 -21.538   4.482  0.00  0.00    +0.044 C 
ENDBRANCH   1  24
BRANCH  12  25
ATOM     25  O   LIG    1       25.646 -14.319   6.222  0.00  0.00    -0.386 OA
ATOM     26  H   LIG    1       26.444 -14.454   5.681  0.00  0.00    +0.210 HD
ENDBRANCH  12  25
BRANCH   4  27
ATOM     27  O   LIG    1       24.345 -19.644   5.453  0.00  0.00    -0.388 OA
ATOM     28  H   LIG    1       23.422 -19.963   5.349  0.00  0.00    +0.210 HD
ENDBRANCH   4  27
BRANCH   2  29
ATOM     29  O   LIG    1       25.077 -21.565   3.632  0.00  0.00    -0.383 OA
ATOM     30  H   LIG    1       24.271 -21.426   4.165  0.00  0.00    +0.210 HD
ENDBRANCH   2  29
BRANCH  14  31
ATOM     31  O   LIG    1       23.924 -14.821   2.869  0.00  0.00    -0.342 OA
BRANCH  31  32
ATOM     32  C   LIG    1       22.434 -14.509   3.238  0.00  0.00    +0.281 C 
ATOM     33  C   LIG    1       21.314 -15.084   2.203  0.00  0.00    +0.187 C 
ATOM     34  C   LIG    1       20.288 -16.354   2.691  0.00  0.00    +0.092 C 
ATOM     35  C   LIG    1       19.781 -16.005   4.135  0.00  0.00    +0.053 C 
ATOM     36  C   LIG    1       20.600 -14.917   4.906  0.00  0.00    +0.120 C 
ATOM     37  C   LIG    1       20.442 -15.188   6.447  0.00  0.00    +0.038 C 
ATOM     38  O   LIG    1       22.015 -14.969   4.547  0.00  0.00    -0.346 OA
BRANCH  34  39
ATOM     39  N   LIG    1       20.512 -17.865   2.396  0.00  0.00    -0.303 NA
ATOM     40  C   LIG    1       19.351 -18.716   2.130  0.00  0.00    +0.105 C 
ATOM     41  C   LIG    1       21.793 -18.392   1.819  0.00  0.00    +0.105 C 
ENDBRANCH  34  39
BRANCH  33  42
ATOM     42  O   LIG    1       20.384 -13.928   2.035  0.00  0.00    -0.385 OA
ATOM     43  H   LIG    1       19.465 -14.236   2.132  0.00  0.00    +0.210 HD
ENDBRANCH  33  42
ENDBRANCH  31  32
ENDBRANCH  14  31
BRANCH  17  44
ATOM     44  O   LIG    1       28.766 -14.495   4.380  0.00  0.00    -0.347 OA
BRANCH  44  45
ATOM     45  C   LIG    1       28.316 -13.083   4.160  0.00  0.00    +0.254 C 
ATOM     46  O   LIG    1       27.601 -12.415   5.208  0.00  0.00    -0.346 OA
ATOM     47  C   LIG    1       26.292 -12.918   5.474  0.00  0.00    +0.150 C 
ATOM     48  C   LIG    1       25.468 -11.979   6.366  0.00  0.00    +0.040 C 
ATOM     49  C   LIG    1       25.433 -13.443   4.294  0.00  0.00    +0.175 C 
ATOM     50  C   LIG    1       25.782 -12.781   2.944  0.00  0.00    +0.099 C 
ATOM     51  C   LIG    1       24.887 -11.449   2.875  0.00  0.00    +0.044 C 
ATOM     52  C   LIG    1       27.445 -12.756   2.827  0.00  0.00    +0.098 C 
BRANCH  50  53
ATOM     53  O   LIG    1       25.306 -13.660   1.850  0.00  0.00    -0.374 OA
ATOM     54  C   LIG    1       24.362 -14.693   2.182  0.00  0.00    +0.195 C 
ENDBRANCH  50  53
BRANCH  49  55
ATOM     55  O   LIG    1       25.512 -14.878   4.193  0.00  0.00    -0.386 OA
ATOM     56  H   LIG    1       26.441 -15.075   3.947  0.00  0.00    +0.210 HD
ENDBRANCH  49  55
ENDBRANCH  44  45
ENDBRANCH  17  44
BRANCH   8  57
ATOM     57  O   LIG    1       20.869 -19.621   4.227  0.00  0.00    -0.365 OA
BRANCH  57  58
ATOM     58  C   LIG    1       20.265 -20.595   5.136  0.00  0.00    +0.426 C 
BRANCH  58  59
ATOM     59  O   LIG    1       21.014 -21.114   6.253  0.00  0.00    -0.340 OA
BRANCH  59  60
ATOM     60  C   LIG    1       22.297 -20.513   6.502  0.00  0.00    +0.192 C 
BRANCH  60  61
ATOM     61  C   LIG    1       23.388 -20.633   5.414  0.00  0.00    +0.187 C 
BRANCH  61  62
ATOM     62  O   LIG    1       24.433 -21.567   5.766  0.00  0.00    -0.381 OA
ATOM     63  C   LIG    1       25.018 -21.355   7.061  0.00  0.00    +0.194 C 
ENDBRANCH  61  62
ENDBRANCH  60  61
ENDBRANCH  59  60
ENDBRANCH  58  59
ENDBRANCH  57  58
ENDBRANCH   8  57
TORSDOF 18
ENDMDL
