MODEL 1
REMARK VINA RESULT:      -6.9      0.000      0.000
REMARK  Name = *****
REMARK                            x       y       z     vdW  Elec       q    Type
REMARK                         _______ _______ _______ _____ _____    ______ ____
ROOT
ATOM      1  C1*   C A  1       30.701 -17.809   8.734  0.00  0.00    +0.255 C 
ATOM      2  C2*   C A  1       31.646 -18.786   8.014  0.00  0.00    +0.195 C 
ATOM      3  C3*   C A  1       30.673 -19.461   7.052  0.00  0.00    +0.178 C 
ATOM      4  C4*   C A  1       29.337 -19.461   7.819  0.00  0.00    +0.177 C 
ATOM      5  O4*   C A  1       29.449 -18.506   8.902  0.00  0.00    -0.346 OA
ENDROOT
BRANCH   1  10
ATOM      6  C4    C A  1       32.164 -16.112  12.209  0.00  0.00    +0.123 C 
ATOM      7  N3    C A  1       32.586 -15.669  11.066  0.00  0.00    -0.178 NA
ATOM      8  C2    C A  1       32.147 -16.256   9.903  0.00  0.00    +0.352 C 
ATOM      9  O2    C A  1       32.563 -15.878   8.810  0.00  0.00    -0.244 OA
ATOM     10  N1    C A  1       31.183 -17.265   9.990  0.00  0.00    -0.270 N 
ATOM     11  C6    C A  1       30.775 -17.763  11.205  0.00  0.00    +0.096 C 
ATOM     12  C5    C A  1       31.227 -17.244  12.346  0.00  0.00    +0.061 C 
BRANCH   6  13
ATOM     13  N4    C A  1       32.615 -15.471  13.329  0.00  0.00    -0.343 N 
ATOM     14  H41   C A  1       33.608 -15.626  13.482  0.00  0.00    +0.144 HD
ATOM     15  H42   C A  1       32.342 -14.503  13.448  0.00  0.00    +0.144 HD
ENDBRANCH   6  13
ENDBRANCH   1  10
BRANCH   2  16
ATOM     16  O2*   C A  1       32.233 -19.751   8.899  0.00  0.00    -0.385 OA
ATOM     17  H2*   C A  1       31.659 -19.843   9.689  0.00  0.00    +0.210 HD
ENDBRANCH   2  16
BRANCH   3  18
ATOM     18  O3*   C A  1       30.541 -18.719   5.833  0.00  0.00    -0.386 OA
ATOM     19  H3*   C A  1       30.369 -19.321   5.089  0.00  0.00    +0.210 HD
ENDBRANCH   3  18
BRANCH   4  20
ATOM     20  C5*   C A  1       28.991 -20.819   8.430  0.00  0.00    +0.190 C 
BRANCH  20  21
ATOM     21  O5*   C A  1       30.078 -21.732   8.271  0.00  0.00    -0.392 OA
ATOM     22  H5*   C A  1       30.214 -21.822   7.309  0.00  0.00    +0.209 HD
ENDBRANCH  20  21
ENDBRANCH   4  20
TORSDOF 6
ENDMDL
MODEL 2
REMARK VINA RESULT:      -6.7      3.492      6.336
REMARK  Name = *****
REMARK                            x       y       z     vdW  Elec       q    Type
REMARK                         _______ _______ _______ _____ _____    ______ ____
ROOT
ATOM      1  C1*   C A  1       29.415 -19.970   8.034  0.00  0.00    +0.255 C 
ATOM      2  C2*   C A  1       30.746 -19.605   7.353  0.00  0.00    +0.195 C 
ATOM      3  C3*   C A  1       31.556 -19.134   8.556  0.00  0.00    +0.178 C 
ATOM      4  C4*   C A  1       30.502 -18.514   9.492  0.00  0.00    +0.177 C 
ATOM      5  O4*   C A  1       29.200 -18.979   9.060  0.00  0.00    -0.346 OA
ENDROOT
BRANCH   1  10
ATOM      6  C4    C A  1       26.028 -20.386   5.699  0.00  0.00    +0.123 C 
ATOM      7  N3    C A  1       26.026 -20.867   6.902  0.00  0.00    -0.178 NA
ATOM      8  C2    C A  1       27.161 -20.780   7.674  0.00  0.00    +0.352 C 
ATOM      9  O2    C A  1       27.194 -21.263   8.804  0.00  0.00    -0.244 OA
ATOM     10  N1    C A  1       28.265 -20.093   7.159  0.00  0.00    -0.270 N 
ATOM     11  C6    C A  1       28.277 -19.627   5.865  0.00  0.00    +0.096 C 
ATOM     12  C5    C A  1       27.207 -19.746   5.082  0.00  0.00    +0.061 C 
BRANCH   6  13
ATOM     13  N4    C A  1       24.862 -20.477   4.991  0.00  0.00    -0.343 N 
ATOM     14  H41   C A  1       25.029 -20.514   3.989  0.00  0.00    +0.144 HD
ATOM     15  H42   C A  1       24.184 -21.159   5.305  0.00  0.00    +0.144 HD
ENDBRANCH   6  13
ENDBRANCH   1  10
BRANCH   2  16
ATOM     16  O2*   C A  1       30.610 -18.551   6.389  0.00  0.00    -0.385 OA
ATOM     17  H2*   C A  1       30.203 -18.919   5.577  0.00  0.00    +0.210 HD
ENDBRANCH   2  16
BRANCH   3  18
ATOM     18  O3*   C A  1       32.212 -20.229   9.209  0.00  0.00    -0.386 OA
ATOM     19  H3*   C A  1       31.564 -20.915   9.447  0.00  0.00    +0.210 HD
ENDBRANCH   3  18
BRANCH   4  20
ATOM     20  C5*   C A  1       30.485 -16.986   9.456  0.00  0.00    +0.190 C 
BRANCH  20  21
ATOM     21  O5*   C A  1       30.164 -16.458  10.744  0.00  0.00    -0.392 OA
ATOM     22  H5*   C A  1       30.168 -17.220  11.355  0.00  0.00    +0.209 HD
ENDBRANCH  20  21
ENDBRANCH   4  20
TORSDOF 6
ENDMDL
MODEL 3
REMARK VINA RESULT:      -6.6      4.253      6.848
REMARK  Name = *****
REMARK                            x       y       z     vdW  Elec       q    Type
REMARK                         _______ _______ _______ _____ _____    ______ ____
ROOT
ATOM      1  C1*   C A  1       28.094 -20.514   8.273  0.00  0.00    +0.255 C 
ATOM      2  C2*   C A  1       29.194 -21.437   7.722  0.00  0.00    +0.195 C 
ATOM      3  C3*   C A  1       30.431 -20.813   8.360  0.00  0.00    +0.178 C 
ATOM      4  C4*   C A  1       30.085 -19.315   8.449  0.00  0.00    +0.177 C 
ATOM      5  O4*   C A  1       28.651 -19.183   8.285  0.00  0.00    -0.346 OA
ENDROOT
BRANCH   1  10
ATOM      6  C4    C A  1       24.373 -20.633   6.475  0.00  0.00    +0.123 C 
ATOM      7  N3    C A  1       24.460 -20.823   7.754  0.00  0.00    -0.178 NA
ATOM      8  C2    C A  1       25.695 -20.836   8.359  0.00  0.00    +0.352 C 
ATOM      9  O2    C A  1       25.804 -21.052   9.564  0.00  0.00    -0.244 OA
ATOM     10  N1    C A  1       26.821 -20.554   7.579  0.00  0.00    -0.270 N 
ATOM     11  C6    C A  1       26.727 -20.401   6.216  0.00  0.00    +0.096 C 
ATOM     12  C5    C A  1       25.546 -20.437   5.601  0.00  0.00    +0.061 C 
BRANCH   6  13
ATOM     13  N4    C A  1       23.117 -20.603   5.935  0.00  0.00    -0.343 N 
ATOM     14  H41   C A  1       22.734 -21.537   5.815  0.00  0.00    +0.144 HD
ATOM     15  H42   C A  1       22.456 -19.952   6.339  0.00  0.00    +0.144 HD
ENDBRANCH   6  13
ENDBRANCH   1  10
BRANCH   2  16
ATOM     16  O2*   C A  1       29.290 -21.400   6.290  0.00  0.00    -0.385 OA
ATOM     17  H2*   C A  1       30.219 -21.209   6.043  0.00  0.00    +0.210 HD
ENDBRANCH   2  16
BRANCH   3  18
ATOM     18  O3*   C A  1       30.669 -21.342   9.671  0.00  0.00    -0.386 OA
ATOM     19  H3*   C A  1       30.562 -20.645  10.341  0.00  0.00    +0.210 HD
ENDBRANCH   3  18
BRANCH   4  20
ATOM     20  C5*   C A  1       30.756 -18.473   7.365  0.00  0.00    +0.190 C 
BRANCH  20  21
ATOM     21  O5*   C A  1       29.922 -18.387   6.208  0.00  0.00    -0.392 OA
ATOM     22  H5*   C A  1       30.516 -18.498   5.441  0.00  0.00    +0.209 HD
ENDBRANCH  20  21
ENDBRANCH   4  20
TORSDOF 6
ENDMDL
MODEL 4
REMARK VINA RESULT:      -6.3      5.287      7.286
REMARK  Name = *****
REMARK                            x       y       z     vdW  Elec       q    Type
REMARK                         _______ _______ _______ _____ _____    ______ ____
ROOT
ATOM      1  C1*   C A  1       25.202 -20.451   6.761  0.00  0.00    +0.255 C 
ATOM      2  C2*   C A  1       24.674 -20.673   5.334  0.00  0.00    +0.195 C 
ATOM      3  C3*   C A  1       23.232 -21.078   5.628  0.00  0.00    +0.178 C 
ATOM      4  C4*   C A  1       23.324 -21.813   6.978  0.00  0.00    +0.177 C 
ATOM      5  O4*   C A  1       24.597 -21.473   7.580  0.00  0.00    -0.346 OA
ENDROOT
BRANCH   1  10
ATOM      6  C4    C A  1       29.292 -20.475   7.372  0.00  0.00    +0.123 C 
ATOM      7  N3    C A  1       28.505 -20.740   8.367  0.00  0.00    -0.178 NA
ATOM      8  C2    C A  1       27.142 -20.687   8.192  0.00  0.00    +0.352 C 
ATOM      9  O2    C A  1       26.378 -20.898   9.131  0.00  0.00    -0.244 OA
ATOM     10  N1    C A  1       26.645 -20.431   6.910  0.00  0.00    -0.270 N 
ATOM     11  C6    C A  1       27.483 -20.104   5.870  0.00  0.00    +0.096 C 
ATOM     12  C5    C A  1       28.805 -20.097   6.030  0.00  0.00    +0.061 C 
BRANCH   6  13
ATOM     13  N4    C A  1       30.636 -20.570   7.599  0.00  0.00    -0.343 N 
ATOM     14  H41   C A  1       30.843 -20.766   8.575  0.00  0.00    +0.144 HD
ATOM     15  H42   C A  1       31.173 -21.140   6.957  0.00  0.00    +0.144 HD
ENDBRANCH   6  13
ENDBRANCH   1  10
BRANCH   2  16
ATOM     16  O2*   C A  1       25.363 -21.722   4.638  0.00  0.00    -0.385 OA
ATOM     17  H2*   C A  1       25.590 -22.427   5.280  0.00  0.00    +0.210 HD
ENDBRANCH   2  16
BRANCH   3  18
ATOM     18  O3*   C A  1       22.379 -19.933   5.747  0.00  0.00    -0.386 OA
ATOM     19  H3*   C A  1       21.672 -19.969   5.079  0.00  0.00    +0.210 HD
ENDBRANCH   3  18
BRANCH   4  20
ATOM     20  C5*   C A  1       23.264 -23.334   6.845  0.00  0.00    +0.190 C 
BRANCH  20  21
ATOM     21  O5*   C A  1       21.936 -23.759   6.536  0.00  0.00    -0.392 OA
ATOM     22  H5*   C A  1       21.439 -22.947   6.319  0.00  0.00    +0.209 HD
ENDBRANCH  20  21
ENDBRANCH   4  20
TORSDOF 6
ENDMDL
MODEL 5
REMARK VINA RESULT:      -6.1      5.293      7.561
REMARK  Name = *****
REMARK                            x       y       z     vdW  Elec       q    Type
REMARK                         _______ _______ _______ _____ _____    ______ ____
ROOT
ATOM      1  C1*   C A  1       25.434 -22.885   7.331  0.00  0.00    +0.255 C 
ATOM      2  C2*   C A  1       24.501 -22.610   6.139  0.00  0.00    +0.195 C 
ATOM      3  C3*   C A  1       23.821 -23.968   5.996  0.00  0.00    +0.178 C 
ATOM      4  C4*   C A  1       24.901 -24.971   6.440  0.00  0.00    +0.177 C 
ATOM      5  O4*   C A  1       25.917 -24.235   7.164  0.00  0.00    -0.346 OA
ENDROOT
BRANCH   1  10
ATOM      6  C4    C A  1       28.432 -20.119   8.005  0.00  0.00    +0.123 C 
ATOM      7  N3    C A  1       27.278 -19.945   8.567  0.00  0.00    -0.178 NA
ATOM      8  C2    C A  1       26.255 -20.829   8.313  0.00  0.00    +0.352 C 
ATOM      9  O2    C A  1       25.142 -20.662   8.806  0.00  0.00    -0.244 OA
ATOM     10  N1    C A  1       26.524 -21.946   7.517  0.00  0.00    -0.270 N 
ATOM     11  C6    C A  1       27.736 -22.100   6.885  0.00  0.00    +0.096 C 
ATOM     12  C5    C A  1       28.724 -21.227   7.075  0.00  0.00    +0.061 C 
BRANCH   6  13
ATOM     13  N4    C A  1       29.417 -19.223   8.316  0.00  0.00    -0.343 N 
ATOM     14  H41   C A  1       29.223 -18.299   7.940  0.00  0.00    +0.144 HD
ATOM     15  H42   C A  1       29.734 -19.202   9.278  0.00  0.00    +0.144 HD
ENDBRANCH   6  13
ENDBRANCH   1  10
BRANCH   2  16
ATOM     16  O2*   C A  1       25.211 -22.271   4.939  0.00  0.00    -0.385 OA
ATOM     17  H2*   C A  1       25.533 -23.098   4.521  0.00  0.00    +0.210 HD
ENDBRANCH   2  16
BRANCH   3  18
ATOM     18  O3*   C A  1       22.672 -24.072   6.848  0.00  0.00    -0.386 OA
ATOM     19  H3*   C A  1       22.002 -23.414   6.591  0.00  0.00    +0.210 HD
ENDBRANCH   3  18
BRANCH   4  20
ATOM     20  C5*   C A  1       25.585 -25.680   5.272  0.00  0.00    +0.190 C 
BRANCH  20  21
ATOM     21  O5*   C A  1       26.803 -26.292   5.700  0.00  0.00    -0.392 OA
ATOM     22  H5*   C A  1       27.469 -26.069   5.022  0.00  0.00    +0.209 HD
ENDBRANCH  20  21
ENDBRANCH   4  20
TORSDOF 6
ENDMDL
MODEL 6
REMARK VINA RESULT:      -6.0      7.875     10.274
REMARK  Name = *****
REMARK                            x       y       z     vdW  Elec       q    Type
REMARK                         _______ _______ _______ _____ _____    ______ ____
ROOT
ATOM      1  C1*   C A  1       24.875 -22.973   7.435  0.00  0.00    +0.255 C 
ATOM      2  C2*   C A  1       25.824 -21.907   6.862  0.00  0.00    +0.195 C 
ATOM      3  C3*   C A  1       25.157 -20.634   7.374  0.00  0.00    +0.178 C 
ATOM      4  C4*   C A  1       23.658 -20.987   7.401  0.00  0.00    +0.177 C 
ATOM      5  O4*   C A  1       23.543 -22.429   7.330  0.00  0.00    -0.346 OA
ENDROOT
BRANCH   1  10
ATOM      6  C4    C A  1       24.928 -26.713   5.672  0.00  0.00    +0.123 C 
ATOM      7  N3    C A  1       23.795 -26.102   5.817  0.00  0.00    -0.178 NA
ATOM      8  C2    C A  1       23.755 -24.879   6.446  0.00  0.00    +0.352 C 
ATOM      9  O2    C A  1       22.686 -24.300   6.629  0.00  0.00    -0.244 OA
ATOM     10  N1    C A  1       24.962 -24.291   6.835  0.00  0.00    -0.270 N 
ATOM     11  C6    C A  1       26.155 -24.965   6.721  0.00  0.00    +0.096 C 
ATOM     12  C5    C A  1       26.211 -26.173   6.163  0.00  0.00    +0.061 C 
BRANCH   6  13
ATOM     13  N4    C A  1       24.909 -27.912   5.015  0.00  0.00    -0.343 N 
ATOM     14  H41   C A  1       25.827 -28.348   4.992  0.00  0.00    +0.144 HD
ATOM     15  H42   C A  1       24.168 -28.558   5.257  0.00  0.00    +0.144 HD
ENDBRANCH   6  13
ENDBRANCH   1  10
BRANCH   2  16
ATOM     16  O2*   C A  1       25.870 -21.911   5.427  0.00  0.00    -0.385 OA
ATOM     17  H2*   C A  1       25.369 -21.136   5.095  0.00  0.00    +0.210 HD
ENDBRANCH   2  16
BRANCH   3  18
ATOM     18  O3*   C A  1       25.608 -20.300   8.694  0.00  0.00    -0.386 OA
ATOM     19  H3*   C A  1       26.541 -20.025   8.671  0.00  0.00    +0.210 HD
ENDBRANCH   3  18
BRANCH   4  20
ATOM     20  C5*   C A  1       22.878 -20.400   6.225  0.00  0.00    +0.190 C 
BRANCH  20  21
ATOM     21  O5*   C A  1       22.674 -21.389   5.215  0.00  0.00    -0.392 OA
ATOM     22  H5*   C A  1       21.984 -21.987   5.560  0.00  0.00    +0.209 HD
ENDBRANCH  20  21
ENDBRANCH   4  20
TORSDOF 6
ENDMDL
MODEL 7
REMARK VINA RESULT:      -6.0      4.525      6.552
REMARK  Name = *****
REMARK                            x       y       z     vdW  Elec       q    Type
REMARK                         _______ _______ _______ _____ _____    ______ ____
ROOT
ATOM      1  C1*   C A  1       28.558 -20.627   6.877  0.00  0.00    +0.255 C 
ATOM      2  C2*   C A  1       29.108 -19.347   7.531  0.00  0.00    +0.195 C 
ATOM      3  C3*   C A  1       30.597 -19.675   7.581  0.00  0.00    +0.178 C 
ATOM      4  C4*   C A  1       30.633 -21.203   7.768  0.00  0.00    +0.177 C 
ATOM      5  O4*   C A  1       29.325 -21.721   7.422  0.00  0.00    -0.346 OA
ENDROOT
BRANCH   1  10
ATOM      6  C4    C A  1       24.470 -21.208   7.086  0.00  0.00    +0.123 C 
ATOM      7  N3    C A  1       24.969 -20.608   6.051  0.00  0.00    -0.178 NA
ATOM      8  C2    C A  1       26.320 -20.363   5.989  0.00  0.00    +0.352 C 
ATOM      9  O2    C A  1       26.809 -19.762   5.035  0.00  0.00    -0.244 OA
ATOM     10  N1    C A  1       27.132 -20.852   7.018  0.00  0.00    -0.270 N 
ATOM     11  C6    C A  1       26.592 -21.445   8.135  0.00  0.00    +0.096 C 
ATOM     12  C5    C A  1       25.280 -21.645   8.239  0.00  0.00    +0.061 C 
BRANCH   6  13
ATOM     13  N4    C A  1       23.124 -21.448   7.077  0.00  0.00    -0.343 N 
ATOM     14  H41   C A  1       22.907 -22.380   6.733  0.00  0.00    +0.144 HD
ATOM     15  H42   C A  1       22.607 -21.203   7.912  0.00  0.00    +0.144 HD
ENDBRANCH   6  13
ENDBRANCH   1  10
BRANCH   2  16
ATOM     16  O2*   C A  1       28.594 -19.129   8.853  0.00  0.00    -0.385 OA
ATOM     17  H2*   C A  1       27.751 -18.633   8.783  0.00  0.00    +0.210 HD
ENDBRANCH   2  16
BRANCH   3  18
ATOM     18  O3*   C A  1       31.255 -19.312   6.360  0.00  0.00    -0.386 OA
ATOM     19  H3*   C A  1       30.601 -19.175   5.653  0.00  0.00    +0.210 HD
ENDBRANCH   3  18
BRANCH   4  20
ATOM     20  C5*   C A  1       30.938 -21.630   9.203  0.00  0.00    +0.190 C 
BRANCH  20  21
ATOM     21  O5*   C A  1       32.318 -21.421   9.507  0.00  0.00    -0.392 OA
ATOM     22  H5*   C A  1       32.816 -21.772   8.743  0.00  0.00    +0.209 HD
ENDBRANCH  20  21
ENDBRANCH   4  20
TORSDOF 6
ENDMDL
MODEL 8
REMARK VINA RESULT:      -5.9      5.477      7.777
REMARK  Name = *****
REMARK                            x       y       z     vdW  Elec       q    Type
REMARK                         _______ _______ _______ _____ _____    ______ ____
ROOT
ATOM      1  C1*   C A  1       25.196 -21.716   6.121  0.00  0.00    +0.255 C 
ATOM      2  C2*   C A  1       24.161 -21.713   7.258  0.00  0.00    +0.195 C 
ATOM      3  C3*   C A  1       22.864 -21.785   6.457  0.00  0.00    +0.178 C 
ATOM      4  C4*   C A  1       23.190 -21.025   5.159  0.00  0.00    +0.177 C 
ATOM      5  O4*   C A  1       24.631 -20.922   5.057  0.00  0.00    -0.346 OA
ENDROOT
BRANCH   1  10
ATOM      6  C4    C A  1       29.011 -20.591   7.253  0.00  0.00    +0.123 C 
ATOM      7  N3    C A  1       28.401 -21.516   7.926  0.00  0.00    -0.178 NA
ATOM      8  C2    C A  1       27.113 -21.866   7.593  0.00  0.00    +0.352 C 
ATOM      9  O2    C A  1       26.503 -22.713   8.242  0.00  0.00    -0.244 OA
ATOM     10  N1    C A  1       26.530 -21.267   6.472  0.00  0.00    -0.270 N 
ATOM     11  C6    C A  1       27.163 -20.254   5.791  0.00  0.00    +0.096 C 
ATOM     12  C5    C A  1       28.390 -19.862   6.130  0.00  0.00    +0.061 C 
BRANCH   6  13
ATOM     13  N4    C A  1       30.298 -20.306   7.614  0.00  0.00    -0.343 N 
ATOM     14  H41   C A  1       30.745 -21.091   8.080  0.00  0.00    +0.144 HD
ATOM     15  H42   C A  1       30.887 -19.872   6.914  0.00  0.00    +0.144 HD
ENDBRANCH   6  13
ENDBRANCH   1  10
BRANCH   2  16
ATOM     16  O2*   C A  1       24.202 -20.516   8.049  0.00  0.00    -0.385 OA
ATOM     17  H2*   C A  1       23.588 -19.860   7.657  0.00  0.00    +0.210 HD
ENDBRANCH   2  16
BRANCH   3  18
ATOM     18  O3*   C A  1       22.506 -23.140   6.159  0.00  0.00    -0.386 OA
ATOM     19  H3*   C A  1       22.364 -23.248   5.203  0.00  0.00    +0.210 HD
ENDBRANCH   3  18
BRANCH   4  20
ATOM     20  C5*   C A  1       22.619 -19.607   5.127  0.00  0.00    +0.190 C 
BRANCH  20  21
ATOM     21  O5*   C A  1       23.159 -18.874   4.026  0.00  0.00    -0.392 OA
ATOM     22  H5*   C A  1       22.548 -19.022   3.279  0.00  0.00    +0.209 HD
ENDBRANCH  20  21
ENDBRANCH   4  20
TORSDOF 6
ENDMDL
MODEL 9
REMARK VINA RESULT:      -5.9      3.757      5.696
REMARK  Name = *****
REMARK                            x       y       z     vdW  Elec       q    Type
REMARK                         _______ _______ _______ _____ _____    ______ ____
ROOT
ATOM      1  C1*   C A  1       27.706 -21.564   7.075  0.00  0.00    +0.255 C 
ATOM      2  C2*   C A  1       26.859 -21.872   8.321  0.00  0.00    +0.195 C 
ATOM      3  C3*   C A  1       25.610 -22.463   7.672  0.00  0.00    +0.178 C 
ATOM      4  C4*   C A  1       25.504 -21.717   6.330  0.00  0.00    +0.177 C 
ATOM      5  O4*   C A  1       26.787 -21.098   6.065  0.00  0.00    -0.346 OA
ENDROOT
BRANCH   1  10
ATOM      6  C4    C A  1       30.928 -19.058   7.738  0.00  0.00    +0.123 C 
ATOM      7  N3    C A  1       30.821 -20.144   8.437  0.00  0.00    -0.178 NA
ATOM      8  C2    C A  1       29.729 -20.963   8.264  0.00  0.00    +0.352 C 
ATOM      9  O2    C A  1       29.588 -21.977   8.943  0.00  0.00    -0.244 OA
ATOM     10  N1    C A  1       28.805 -20.637   7.266  0.00  0.00    -0.270 N 
ATOM     11  C6    C A  1       28.899 -19.460   6.561  0.00  0.00    +0.096 C 
ATOM     12  C5    C A  1       29.920 -18.626   6.750  0.00  0.00    +0.061 C 
BRANCH   6  13
ATOM     13  N4    C A  1       32.048 -18.299   7.936  0.00  0.00    -0.343 N 
ATOM     14  H41   C A  1       31.982 -17.739   8.781  0.00  0.00    +0.144 HD
ATOM     15  H42   C A  1       32.943 -18.763   7.835  0.00  0.00    +0.144 HD
ENDBRANCH   6  13
ENDBRANCH   1  10
BRANCH   2  16
ATOM     16  O2*   C A  1       26.528 -20.699   9.078  0.00  0.00    -0.385 OA
ATOM     17  H2*   C A  1       27.147 -19.980   8.828  0.00  0.00    +0.210 HD
ENDBRANCH   2  16
BRANCH   3  18
ATOM     18  O3*   C A  1       25.754 -23.871   7.444  0.00  0.00    -0.386 OA
ATOM     19  H3*   C A  1       26.652 -24.161   7.681  0.00  0.00    +0.210 HD
ENDBRANCH   3  18
BRANCH   4  20
ATOM     20  C5*   C A  1       24.448 -20.613   6.333  0.00  0.00    +0.190 C 
BRANCH  20  21
ATOM     21  O5*   C A  1       23.737 -20.602   7.572  0.00  0.00    -0.392 OA
ATOM     22  H5*   C A  1       24.134 -21.310   8.114  0.00  0.00    +0.209 HD
ENDBRANCH  20  21
ENDBRANCH   4  20
TORSDOF 6
ENDMDL
