MODEL 1
REMARK VINA RESULT:      -5.2      0.000      0.000
REMARK  Name = *****
REMARK                            x       y       z     vdW  Elec       q    Type
REMARK                         _______ _______ _______ _____ _____    ______ ____
ROOT
ATOM      1  P   LIG    1       31.044 -20.104   8.578  0.00  0.00    +0.434 P 
ATOM      2  O   LIG    1       29.700 -19.459   8.712  0.00  0.00    -0.247 OA
ENDROOT
BRANCH   1   4
ATOM      3  O   LIG    1       30.732 -22.183  10.199  0.00  0.00    -0.237 OA
ATOM      4  C   LIG    1       31.321 -21.798   9.198  0.00  0.00    +0.418 C 
BRANCH   4   5
ATOM      5  O   LIG    1       32.190 -22.596   8.501  0.00  0.00    -0.472 OA
ATOM      6  H   LIG    1       31.966 -23.537   8.684  0.00  0.00    +0.296 HD
ENDBRANCH   4   5
ENDBRANCH   1   4
BRANCH   1   7
ATOM      7  O   LIG    1       31.611 -19.923   7.082  0.00  0.00    -0.317 OA
ATOM      8  H   LIG    1       30.927 -19.613   6.461  0.00  0.00    +0.220 HD
ENDBRANCH   1   7
BRANCH   1   9
ATOM      9  O   LIG    1       32.129 -19.179   9.353  0.00  0.00    -0.317 OA
ATOM     10  H   LIG    1       31.715 -18.354   9.673  0.00  0.00    +0.220 HD
ENDBRANCH   1   9
TORSDOF 4
ENDMDL
MODEL 2
REMARK VINA RESULT:      -5.0      0.183      1.596
REMARK  Name = *****
REMARK                            x       y       z     vdW  Elec       q    Type
REMARK                         _______ _______ _______ _____ _____    ______ ____
ROOT
ATOM      1  P   LIG    1       31.176 -20.085   8.753  0.00  0.00    +0.434 P 
ATOM      2  O   LIG    1       31.932 -19.027   9.496  0.00  0.00    -0.247 OA
ENDROOT
BRANCH   1   4
ATOM      3  O   LIG    1       30.723 -22.300  10.146  0.00  0.00    -0.237 OA
ATOM      4  C   LIG    1       31.362 -21.843   9.208  0.00  0.00    +0.418 C 
BRANCH   4   5
ATOM      5  O   LIG    1       32.223 -22.604   8.462  0.00  0.00    -0.472 OA
ATOM      6  H   LIG    1       32.086 -22.390   7.511  0.00  0.00    +0.296 HD
ENDBRANCH   4   5
ENDBRANCH   1   4
BRANCH   1   7
ATOM      7  O   LIG    1       29.627 -19.674   8.607  0.00  0.00    -0.317 OA
ATOM      8  H   LIG    1       29.419 -18.838   9.061  0.00  0.00    +0.220 HD
ENDBRANCH   1   7
BRANCH   1   9
ATOM      9  O   LIG    1       31.591 -20.000   7.187  0.00  0.00    -0.317 OA
ATOM     10  H   LIG    1       32.376 -20.555   7.006  0.00  0.00    +0.220 HD
ENDBRANCH   1   9
TORSDOF 4
ENDMDL
MODEL 3
REMARK VINA RESULT:      -4.9      2.619      3.456
REMARK  Name = *****
REMARK                            x       y       z     vdW  Elec       q    Type
REMARK                         _______ _______ _______ _____ _____    ______ ____
ROOT
ATOM      1  P   LIG    1       31.658 -17.161   9.474  0.00  0.00    +0.434 P 
ATOM      2  O   LIG    1       30.358 -16.552   9.898  0.00  0.00    -0.247 OA
ENDROOT
BRANCH   1   4
ATOM      3  O   LIG    1       31.366 -18.676   7.313  0.00  0.00    -0.237 OA
ATOM      4  C   LIG    1       31.679 -18.701   8.496  0.00  0.00    +0.418 C 
BRANCH   4   5
ATOM      5  O   LIG    1       32.062 -19.853   9.133  0.00  0.00    -0.472 OA
ATOM      6  H   LIG    1       31.880 -20.615   8.537  0.00  0.00    +0.296 HD
ENDBRANCH   4   5
ENDBRANCH   1   4
BRANCH   1   7
ATOM      7  O   LIG    1       32.624 -16.043   8.836  0.00  0.00    -0.317 OA
ATOM      8  H   LIG    1       32.597 -16.040   7.862  0.00  0.00    +0.220 HD
ENDBRANCH   1   7
BRANCH   1   9
ATOM      9  O   LIG    1       32.524 -17.486  10.808  0.00  0.00    -0.317 OA
ATOM     10  H   LIG    1       32.434 -18.427  11.057  0.00  0.00    +0.220 HD
ENDBRANCH   1   9
TORSDOF 4
ENDMDL
MODEL 4
REMARK VINA RESULT:      -4.9      2.646      4.102
REMARK  Name = *****
REMARK                            x       y       z     vdW  Elec       q    Type
REMARK                         _______ _______ _______ _____ _____    ______ ____
ROOT
ATOM      1  P   LIG    1       31.394 -18.365   8.821  0.00  0.00    +0.434 P 
ATOM      2  O   LIG    1       31.174 -18.403   7.341  0.00  0.00    -0.247 OA
ENDROOT
BRANCH   1   4
ATOM      3  O   LIG    1       32.881 -17.209  10.692  0.00  0.00    -0.237 OA
ATOM      4  C   LIG    1       32.425 -17.058   9.567  0.00  0.00    +0.418 C 
BRANCH   4   5
ATOM      5  O   LIG    1       32.663 -15.933   8.820  0.00  0.00    -0.472 OA
ATOM      6  H   LIG    1       33.118 -16.200   7.989  0.00  0.00    +0.296 HD
ENDBRANCH   4   5
ENDBRANCH   1   4
BRANCH   1   7
ATOM      7  O   LIG    1       29.998 -18.535   9.604  0.00  0.00    -0.317 OA
ATOM      8  H   LIG    1       29.300 -17.955   9.249  0.00  0.00    +0.220 HD
ENDBRANCH   1   7
BRANCH   1   9
ATOM      9  O   LIG    1       32.085 -19.765   9.267  0.00  0.00    -0.317 OA
ATOM     10  H   LIG    1       31.537 -20.225   9.933  0.00  0.00    +0.220 HD
ENDBRANCH   1   9
TORSDOF 4
ENDMDL
MODEL 5
REMARK VINA RESULT:      -4.9      2.655      4.021
REMARK  Name = *****
REMARK                            x       y       z     vdW  Elec       q    Type
REMARK                         _______ _______ _______ _____ _____    ______ ____
ROOT
ATOM      1  P   LIG    1       31.386 -18.426   9.073  0.00  0.00    +0.434 P 
ATOM      2  O   LIG    1       29.947 -18.493   9.480  0.00  0.00    -0.247 OA
ENDROOT
BRANCH   1   4
ATOM      3  O   LIG    1       32.953 -17.115  10.769  0.00  0.00    -0.237 OA
ATOM      4  C   LIG    1       32.446 -17.060   9.656  0.00  0.00    +0.418 C 
BRANCH   4   5
ATOM      5  O   LIG    1       32.649 -16.004   8.806  0.00  0.00    -0.472 OA
ATOM      6  H   LIG    1       31.819 -15.847   8.300  0.00  0.00    +0.296 HD
ENDBRANCH   4   5
ENDBRANCH   1   4
BRANCH   1   7
ATOM      7  O   LIG    1       32.098 -19.855   9.275  0.00  0.00    -0.317 OA
ATOM      8  H   LIG    1       32.710 -19.861  10.033  0.00  0.00    +0.220 HD
ENDBRANCH   1   7
BRANCH   1   9
ATOM      9  O   LIG    1       31.450 -18.358   7.452  0.00  0.00    -0.317 OA
ATOM     10  H   LIG    1       31.866 -17.524   7.157  0.00  0.00    +0.220 HD
ENDBRANCH   1   9
TORSDOF 4
ENDMDL
MODEL 6
REMARK VINA RESULT:      -4.8      2.649      3.712
REMARK  Name = *****
REMARK                            x       y       z     vdW  Elec       q    Type
REMARK                         _______ _______ _______ _____ _____    ______ ____
ROOT
ATOM      1  P   LIG    1       31.868 -17.257   9.727  0.00  0.00    +0.434 P 
ATOM      2  O   LIG    1       32.616 -17.347  11.020  0.00  0.00    -0.247 OA
ENDROOT
BRANCH   1   4
ATOM      3  O   LIG    1       32.018 -19.826   9.073  0.00  0.00    -0.237 OA
ATOM      4  C   LIG    1       31.713 -18.720   8.647  0.00  0.00    +0.418 C 
BRANCH   4   5
ATOM      5  O   LIG    1       31.242 -18.525   7.375  0.00  0.00    -0.472 OA
ATOM      6  H   LIG    1       30.456 -19.102   7.239  0.00  0.00    +0.296 HD
ENDBRANCH   4   5
ENDBRANCH   1   4
BRANCH   1   7
ATOM      7  O   LIG    1       30.448 -16.531   9.944  0.00  0.00    -0.317 OA
ATOM      8  H   LIG    1       30.447 -15.613   9.618  0.00  0.00    +0.220 HD
ENDBRANCH   1   7
BRANCH   1   9
ATOM      9  O   LIG    1       32.576 -16.119   8.810  0.00  0.00    -0.317 OA
ATOM     10  H   LIG    1       33.281 -15.662   9.310  0.00  0.00    +0.220 HD
ENDBRANCH   1   9
TORSDOF 4
ENDMDL
MODEL 7
REMARK VINA RESULT:      -4.7      1.936      3.361
REMARK  Name = *****
REMARK                            x       y       z     vdW  Elec       q    Type
REMARK                         _______ _______ _______ _____ _____    ______ ____
ROOT
ATOM      1  P   LIG    1       31.488 -19.728   8.655  0.00  0.00    +0.434 P 
ATOM      2  O   LIG    1       32.053 -20.965   9.282  0.00  0.00    -0.247 OA
ENDROOT
BRANCH   1   4
ATOM      3  O   LIG    1       32.073 -17.883  10.473  0.00  0.00    -0.237 OA
ATOM      4  C   LIG    1       31.974 -18.079   9.270  0.00  0.00    +0.418 C 
BRANCH   4   5
ATOM      5  O   LIG    1       32.225 -17.103   8.340  0.00  0.00    -0.472 OA
ATOM      6  H   LIG    1       32.781 -16.407   8.760  0.00  0.00    +0.296 HD
ENDBRANCH   4   5
ENDBRANCH   1   4
BRANCH   1   7
ATOM      7  O   LIG    1       31.584 -19.812   7.051  0.00  0.00    -0.317 OA
ATOM      8  H   LIG    1       30.820 -20.270   6.657  0.00  0.00    +0.220 HD
ENDBRANCH   1   7
BRANCH   1   9
ATOM      9  O   LIG    1       29.872 -19.780   8.797  0.00  0.00    -0.317 OA
ATOM     10  H   LIG    1       29.530 -20.659   8.539  0.00  0.00    +0.220 HD
ENDBRANCH   1   9
TORSDOF 4
ENDMDL
MODEL 8
REMARK VINA RESULT:      -4.7      1.299      2.061
REMARK  Name = *****
REMARK                            x       y       z     vdW  Elec       q    Type
REMARK                         _______ _______ _______ _____ _____    ______ ____
ROOT
ATOM      1  P   LIG    1       31.193 -19.072   8.812  0.00  0.00    +0.434 P 
ATOM      2  O   LIG    1       31.473 -18.445   7.482  0.00  0.00    -0.247 OA
ENDROOT
BRANCH   1   4
ATOM      3  O   LIG    1       30.079 -21.479   8.685  0.00  0.00    -0.237 OA
ATOM      4  C   LIG    1       31.110 -20.888   8.976  0.00  0.00    +0.418 C 
BRANCH   4   5
ATOM      5  O   LIG    1       32.232 -21.538   9.419  0.00  0.00    -0.472 OA
ATOM      6  H   LIG    1       32.294 -22.406   8.959  0.00  0.00    +0.296 HD
ENDBRANCH   4   5
ENDBRANCH   1   4
BRANCH   1   7
ATOM      7  O   LIG    1       32.122 -18.418   9.952  0.00  0.00    -0.317 OA
ATOM      8  H   LIG    1       32.069 -17.446   9.961  0.00  0.00    +0.220 HD
ENDBRANCH   1   7
BRANCH   1   9
ATOM      9  O   LIG    1       29.758 -18.527   9.338  0.00  0.00    -0.317 OA
ATOM     10  H   LIG    1       29.065 -19.207   9.223  0.00  0.00    +0.220 HD
ENDBRANCH   1   9
TORSDOF 4
ENDMDL
MODEL 9
REMARK VINA RESULT:      -4.7      1.718      3.026
REMARK  Name = *****
REMARK                            x       y       z     vdW  Elec       q    Type
REMARK                         _______ _______ _______ _____ _____    ______ ____
ROOT
ATOM      1  P   LIG    1       31.044 -20.306   8.693  0.00  0.00    +0.434 P 
ATOM      2  O   LIG    1       29.801 -21.117   8.495  0.00  0.00    -0.247 OA
ENDROOT
BRANCH   1   4
ATOM      3  O   LIG    1       29.896 -18.129   9.689  0.00  0.00    -0.237 OA
ATOM      4  C   LIG    1       30.970 -18.701   9.559  0.00  0.00    +0.418 C 
BRANCH   4   5
ATOM      5  O   LIG    1       32.142 -18.189  10.050  0.00  0.00    -0.472 OA
ATOM      6  H   LIG    1       32.504 -17.551   9.394  0.00  0.00    +0.296 HD
ENDBRANCH   4   5
ENDBRANCH   1   4
BRANCH   1   7
ATOM      7  O   LIG    1       32.235 -21.228   9.260  0.00  0.00    -0.317 OA
ATOM      8  H   LIG    1       32.932 -20.707   9.698  0.00  0.00    +0.220 HD
ENDBRANCH   1   7
BRANCH   1   9
ATOM      9  O   LIG    1       31.674 -19.979   7.234  0.00  0.00    -0.317 OA
ATOM     10  H   LIG    1       31.536 -20.729   6.621  0.00  0.00    +0.220 HD
ENDBRANCH   1   9
TORSDOF 4
ENDMDL
