MODEL 1
REMARK VINA RESULT:      10.9      0.000      0.000
REMARK  Name = *****
REMARK                            x       y       z     vdW  Elec       q    Type
REMARK                         _______ _______ _______ _____ _____    ______ ____
ROOT
ATOM      1  N   LIG    1       26.348 -19.439   4.206  0.00  0.00    -0.311 N 
ENDROOT
BRANCH   1   2
ATOM      2  C   LIG    1       26.619 -18.063   4.155  0.00  0.00    +0.141 A 
ATOM      3  N   LIG    1       25.730 -17.118   3.766  0.00  0.00    -0.228 NA
ATOM      4  C   LIG    1       26.122 -15.769   3.764  0.00  0.00    +0.099 A 
ATOM      5  C   LIG    1       27.438 -15.382   4.252  0.00  0.00    +0.097 A 
ATOM      6  N   LIG    1       28.309 -16.364   4.578  0.00  0.00    -0.249 NA
ATOM      7  C   LIG    1       27.879 -17.630   4.536  0.00  0.00    +0.155 A 
BRANCH   4   8
ATOM      8  C   LIG    1       25.040 -14.885   3.165  0.00  0.00    +0.003 A 
ATOM      9  C   LIG    1       23.660 -15.127   3.180  0.00  0.00    +0.010 A 
ATOM     10  C   LIG    1       22.734 -14.228   2.575  0.00  0.00    +0.001 A 
ATOM     11  C   LIG    1       23.148 -13.030   1.991  0.00  0.00    +0.000 A 
ATOM     12  C   LIG    1       24.493 -12.793   1.906  0.00  0.00    +0.001 A 
ATOM     13  C   LIG    1       25.350 -13.789   2.375  0.00  0.00    +0.010 A 
ENDBRANCH   4   8
BRANCH   5  14
ATOM     14  C   LIG    1       28.142 -14.061   4.577  0.00  0.00    +0.002 A 
ATOM     15  C   LIG    1       28.856 -13.326   3.593  0.00  0.00    +0.010 A 
ATOM     16  C   LIG    1       29.475 -12.077   3.864  0.00  0.00    +0.001 A 
ATOM     17  C   LIG    1       29.474 -11.536   5.143  0.00  0.00    +0.000 A 
ATOM     18  C   LIG    1       28.776 -12.194   6.111  0.00  0.00    +0.001 A 
ATOM     19  C   LIG    1       28.085 -13.349   5.769  0.00  0.00    +0.010 A 
ENDBRANCH   5  14
ENDBRANCH   1   2
BRANCH   1  21
ATOM     20  C   LIG    1       28.449 -20.128   5.508  0.00  0.00    +0.027 C 
ATOM     21  C   LIG    1       26.902 -20.221   5.371  0.00  0.00    +0.069 C 
ATOM     22  C   LIG    1       26.233 -19.828   6.702  0.00  0.00    +0.027 C 
ENDBRANCH   1  21
BRANCH   1  23
ATOM     23  C   LIG    1       25.824 -20.129   3.002  0.00  0.00    +0.107 C 
BRANCH  23  24
ATOM     24  C   LIG    1       24.356 -20.656   3.136  0.00  0.00    +0.021 C 
BRANCH  24  25
ATOM     25  C   LIG    1       23.984 -21.445   4.408  0.00  0.00    +0.030 C 
BRANCH  25  26
ATOM     26  C   LIG    1       23.175 -20.666   5.464  0.00  0.00    +0.160 C 
BRANCH  26  27
ATOM     27  O   LIG    1       22.312 -19.651   4.918  0.00  0.00    -0.370 OA
BRANCH  27  28
ATOM     28  C   LIG    1       22.735 -18.342   5.329  0.00  0.00    +0.256 C 
BRANCH  28  29
ATOM     29  C   LIG    1       21.787 -17.140   5.081  0.00  0.00    +0.257 C 
ATOM     30  N   LIG    1       20.816 -17.175   4.052  0.00  0.00    -0.188 N 
ATOM     31  H   LIG    1       20.299 -16.322   3.892  0.00  0.00    +0.176 HD
ATOM     32  O   LIG    1       21.890 -16.094   5.718  0.00  0.00    -0.272 OA
BRANCH  30  33
ATOM     33  S   LIG    1       20.560 -18.399   2.969  0.00  0.00    +0.042 S 
ATOM     34  O   LIG    1       21.799 -18.957   2.575  0.00  0.00    -0.155 OA
ATOM     35  O   LIG    1       19.625 -17.859   1.965  0.00  0.00    -0.155 OA
ATOM     36  C   LIG    1       19.632 -19.553   3.952  0.00  0.00    +0.218 C 
ENDBRANCH  30  33
ENDBRANCH  28  29
ENDBRANCH  27  28
ENDBRANCH  26  27
ENDBRANCH  25  26
ENDBRANCH  24  25
ENDBRANCH  23  24
ENDBRANCH   1  23
TORSDOF 12
ENDMDL
MODEL 2
REMARK VINA RESULT:      10.9      1.396      4.057
REMARK  Name = *****
REMARK                            x       y       z     vdW  Elec       q    Type
REMARK                         _______ _______ _______ _____ _____    ______ ____
ROOT
ATOM      1  N   LIG    1       27.167 -18.731   4.334  0.00  0.00    -0.311 N 
ENDROOT
BRANCH   1   2
ATOM      2  C   LIG    1       26.715 -17.420   4.114  0.00  0.00    +0.141 A 
ATOM      3  N   LIG    1       27.453 -16.306   4.334  0.00  0.00    -0.228 NA
ATOM      4  C   LIG    1       26.886 -15.047   4.067  0.00  0.00    +0.099 A 
ATOM      5  C   LIG    1       25.557 -14.944   3.484  0.00  0.00    +0.097 A 
ATOM      6  N   LIG    1       24.839 -16.081   3.334  0.00  0.00    -0.249 NA
ATOM      7  C   LIG    1       25.429 -17.245   3.628  0.00  0.00    +0.155 A 
BRANCH   4   8
ATOM      8  C   LIG    1       27.813 -13.926   4.510  0.00  0.00    +0.003 A 
ATOM      9  C   LIG    1       28.636 -13.147   3.685  0.00  0.00    +0.010 A 
ATOM     10  C   LIG    1       29.474 -12.123   4.214  0.00  0.00    +0.001 A 
ATOM     11  C   LIG    1       29.474 -11.801   5.572  0.00  0.00    +0.000 A 
ATOM     12  C   LIG    1       28.728 -12.582   6.412  0.00  0.00    +0.001 A 
ATOM     13  C   LIG    1       28.055 -13.667   5.850  0.00  0.00    +0.010 A 
ENDBRANCH   4   8
BRANCH   5  14
ATOM     14  C   LIG    1       24.702 -13.818   2.896  0.00  0.00    +0.002 A 
ATOM     15  C   LIG    1       23.282 -13.870   2.897  0.00  0.00    +0.010 A 
ATOM     16  C   LIG    1       22.472 -12.816   2.400  0.00  0.00    +0.001 A 
ATOM     17  C   LIG    1       23.037 -11.691   1.812  0.00  0.00    +0.000 A 
ATOM     18  C   LIG    1       24.395 -11.587   1.815  0.00  0.00    +0.001 A 
ATOM     19  C   LIG    1       25.142 -12.588   2.423  0.00  0.00    +0.010 A 
ENDBRANCH   5  14
ENDBRANCH   1   2
BRANCH   1  21
ATOM     20  C   LIG    1       29.040 -17.660   5.720  0.00  0.00    +0.027 C 
ATOM     21  C   LIG    1       28.534 -18.909   4.943  0.00  0.00    +0.069 C 
ATOM     22  C   LIG    1       28.607 -20.155   5.848  0.00  0.00    +0.027 C 
ENDBRANCH   1  21
BRANCH   1  23
ATOM     23  C   LIG    1       26.462 -19.867   3.691  0.00  0.00    +0.107 C 
BRANCH  23  24
ATOM     24  C   LIG    1       25.794 -20.872   4.689  0.00  0.00    +0.021 C 
BRANCH  24  25
ATOM     25  C   LIG    1       25.699 -20.462   6.173  0.00  0.00    +0.030 C 
BRANCH  25  26
ATOM     26  C   LIG    1       24.827 -21.372   7.061  0.00  0.00    +0.160 C 
BRANCH  26  27
ATOM     27  O   LIG    1       23.488 -21.571   6.570  0.00  0.00    -0.370 OA
BRANCH  27  28
ATOM     28  C   LIG    1       23.176 -20.627   5.534  0.00  0.00    +0.256 C 
BRANCH  28  29
ATOM     29  C   LIG    1       21.757 -20.649   4.907  0.00  0.00    +0.257 C 
ATOM     30  N   LIG    1       21.285 -19.565   4.131  0.00  0.00    -0.188 N 
ATOM     31  H   LIG    1       20.321 -19.611   3.834  0.00  0.00    +0.176 HD
ATOM     32  O   LIG    1       20.972 -21.572   5.118  0.00  0.00    -0.272 OA
BRANCH  30  33
ATOM     33  S   LIG    1       22.082 -18.151   3.809  0.00  0.00    +0.042 S 
ATOM     34  O   LIG    1       22.279 -17.430   5.009  0.00  0.00    -0.155 OA
ATOM     35  O   LIG    1       21.373 -17.539   2.671  0.00  0.00    -0.155 OA
ATOM     36  C   LIG    1       23.629 -18.754   3.174  0.00  0.00    +0.218 C 
ENDBRANCH  30  33
ENDBRANCH  28  29
ENDBRANCH  27  28
ENDBRANCH  26  27
ENDBRANCH  25  26
ENDBRANCH  24  25
ENDBRANCH  23  24
ENDBRANCH   1  23
TORSDOF 12
ENDMDL
MODEL 3
REMARK VINA RESULT:      11.2      2.215      6.276
REMARK  Name = *****
REMARK                            x       y       z     vdW  Elec       q    Type
REMARK                         _______ _______ _______ _____ _____    ______ ____
ROOT
ATOM      1  N   LIG    1       26.753 -14.271   2.475  0.00  0.00    -0.311 N 
ENDROOT
BRANCH   1   2
ATOM      2  C   LIG    1       26.785 -15.473   3.201  0.00  0.00    +0.141 A 
ATOM      3  N   LIG    1       25.846 -16.446   3.118  0.00  0.00    -0.228 NA
ATOM      4  C   LIG    1       25.995 -17.608   3.894  0.00  0.00    +0.099 A 
ATOM      5  C   LIG    1       27.183 -17.802   4.712  0.00  0.00    +0.097 A 
ATOM      6  N   LIG    1       28.065 -16.779   4.805  0.00  0.00    -0.249 NA
ATOM      7  C   LIG    1       27.851 -15.691   4.058  0.00  0.00    +0.155 A 
BRANCH   4   8
ATOM      8  C   LIG    1       24.777 -18.509   3.769  0.00  0.00    +0.003 A 
ATOM      9  C   LIG    1       23.440 -18.140   3.969  0.00  0.00    +0.010 A 
ATOM     10  C   LIG    1       22.375 -19.076   3.833  0.00  0.00    +0.001 A 
ATOM     11  C   LIG    1       22.601 -20.395   3.434  0.00  0.00    +0.000 A 
ATOM     12  C   LIG    1       23.899 -20.803   3.289  0.00  0.00    +0.001 A 
ATOM     13  C   LIG    1       24.899 -19.879   3.593  0.00  0.00    +0.010 A 
ENDBRANCH   4   8
BRANCH   5  14
ATOM     14  C   LIG    1       27.784 -18.959   5.517  0.00  0.00    +0.002 A 
ATOM     15  C   LIG    1       27.243 -20.272   5.468  0.00  0.00    +0.010 A 
ATOM     16  C   LIG    1       27.814 -21.366   6.168  0.00  0.00    +0.001 A 
ATOM     17  C   LIG    1       28.907 -21.192   7.007  0.00  0.00    +0.000 A 
ATOM     18  C   LIG    1       29.475 -19.954   7.062  0.00  0.00    +0.001 A 
ATOM     19  C   LIG    1       28.954 -18.944   6.264  0.00  0.00    +0.010 A 
ENDBRANCH   5  14
ENDBRANCH   1   2
BRANCH   1  21
ATOM     20  C   LIG    1       27.604 -11.852   2.423  0.00  0.00    +0.027 C 
ATOM     21  C   LIG    1       27.951 -13.361   2.573  0.00  0.00    +0.069 C 
ATOM     22  C   LIG    1       28.747 -13.589   3.873  0.00  0.00    +0.027 C 
ENDBRANCH   1  21
BRANCH   1  23
ATOM     23  C   LIG    1       25.468 -13.788   1.913  0.00  0.00    +0.107 C 
BRANCH  23  24
ATOM     24  C   LIG    1       25.337 -12.230   1.824  0.00  0.00    +0.021 C 
BRANCH  24  25
ATOM     25  C   LIG    1       24.451 -11.518   2.868  0.00  0.00    +0.030 C 
BRANCH  25  26
ATOM     26  C   LIG    1       23.413 -12.408   3.579  0.00  0.00    +0.160 C 
BRANCH  26  27
ATOM     27  O   LIG    1       23.092 -11.989   4.919  0.00  0.00    -0.370 OA
BRANCH  27  28
ATOM     28  C   LIG    1       24.158 -12.309   5.826  0.00  0.00    +0.256 C 
BRANCH  28  29
ATOM     29  C   LIG    1       24.917 -13.649   5.642  0.00  0.00    +0.257 C 
ATOM     30  N   LIG    1       24.217 -14.871   5.502  0.00  0.00    -0.188 N 
ATOM     31  H   LIG    1       24.778 -15.710   5.479  0.00  0.00    +0.176 HD
ATOM     32  O   LIG    1       26.144 -13.707   5.680  0.00  0.00    -0.272 OA
BRANCH  30  33
ATOM     33  S   LIG    1       22.578 -15.089   5.553  0.00  0.00    +0.042 S 
ATOM     34  O   LIG    1       21.971 -14.003   6.224  0.00  0.00    -0.155 OA
ATOM     35  O   LIG    1       22.370 -16.473   6.019  0.00  0.00    -0.155 OA
ATOM     36  C   LIG    1       22.165 -15.073   3.824  0.00  0.00    +0.218 C 
ENDBRANCH  30  33
ENDBRANCH  28  29
ENDBRANCH  27  28
ENDBRANCH  26  27
ENDBRANCH  25  26
ENDBRANCH  24  25
ENDBRANCH  23  24
ENDBRANCH   1  23
TORSDOF 12
ENDMDL
MODEL 4
REMARK VINA RESULT:      12.4      3.144      6.821
REMARK  Name = *****
REMARK                            x       y       z     vdW  Elec       q    Type
REMARK                         _______ _______ _______ _____ _____    ______ ____
ROOT
ATOM      1  N   LIG    1       25.709 -14.498   2.143  0.00  0.00    -0.311 N 
ENDROOT
BRANCH   1   2
ATOM      2  C   LIG    1       25.986 -15.632   2.924  0.00  0.00    +0.141 A 
ATOM      3  N   LIG    1       25.139 -16.676   3.089  0.00  0.00    -0.228 NA
ATOM      4  C   LIG    1       25.536 -17.758   3.893  0.00  0.00    +0.099 A 
ATOM      5  C   LIG    1       26.871 -17.796   4.472  0.00  0.00    +0.097 A 
ATOM      6  N   LIG    1       27.659 -16.706   4.325  0.00  0.00    -0.249 NA
ATOM      7  C   LIG    1       27.211 -15.701   3.566  0.00  0.00    +0.155 A 
BRANCH   4   8
ATOM      8  C   LIG    1       24.402 -18.755   4.068  0.00  0.00    +0.003 A 
ATOM      9  C   LIG    1       24.527 -20.132   4.297  0.00  0.00    +0.010 A 
ATOM     10  C   LIG    1       23.388 -20.976   4.437  0.00  0.00    +0.001 A 
ATOM     11  C   LIG    1       22.089 -20.467   4.416  0.00  0.00    +0.000 A 
ATOM     12  C   LIG    1       21.930 -19.137   4.134  0.00  0.00    +0.001 A 
ATOM     13  C   LIG    1       23.080 -18.401   3.849  0.00  0.00    +0.010 A 
ENDBRANCH   4   8
BRANCH   5  14
ATOM     14  C   LIG    1       27.714 -18.837   5.215  0.00  0.00    +0.002 A 
ATOM     15  C   LIG    1       28.712 -18.465   6.156  0.00  0.00    +0.010 A 
ATOM     16  C   LIG    1       29.471 -19.416   6.890  0.00  0.00    +0.001 A 
ATOM     17  C   LIG    1       29.323 -20.779   6.668  0.00  0.00    +0.000 A 
ATOM     18  C   LIG    1       28.358 -21.180   5.794  0.00  0.00    +0.001 A 
ATOM     19  C   LIG    1       27.558 -20.217   5.193  0.00  0.00    +0.010 A 
ENDBRANCH   5  14
ENDBRANCH   1   2
BRANCH   1  21
ATOM     20  C   LIG    1       26.463 -12.069   1.812  0.00  0.00    +0.027 C 
ATOM     21  C   LIG    1       26.855 -13.574   1.818  0.00  0.00    +0.069 C 
ATOM     22  C   LIG    1       28.062 -13.797   2.750  0.00  0.00    +0.027 C 
ENDBRANCH   1  21
BRANCH   1  23
ATOM     23  C   LIG    1       24.302 -14.075   1.937  0.00  0.00    +0.107 C 
BRANCH  23  24
ATOM     24  C   LIG    1       23.556 -13.629   3.239  0.00  0.00    +0.021 C 
BRANCH  24  25
ATOM     25  C   LIG    1       22.842 -14.714   4.072  0.00  0.00    +0.030 C 
BRANCH  25  26
ATOM     26  C   LIG    1       23.514 -15.078   5.410  0.00  0.00    +0.160 C 
BRANCH  26  27
ATOM     27  O   LIG    1       24.898 -14.689   5.502  0.00  0.00    -0.370 OA
BRANCH  27  28
ATOM     28  C   LIG    1       25.023 -13.361   6.031  0.00  0.00    +0.256 C 
BRANCH  28  29
ATOM     29  C   LIG    1       25.415 -12.209   5.070  0.00  0.00    +0.257 C 
ATOM     30  N   LIG    1       26.772 -11.892   4.825  0.00  0.00    -0.188 N 
ATOM     31  H   LIG    1       26.948 -11.073   4.261  0.00  0.00    +0.176 HD
ATOM     32  O   LIG    1       24.568 -11.489   4.544  0.00  0.00    -0.272 OA
BRANCH  30  33
ATOM     33  S   LIG    1       28.099 -12.609   5.505  0.00  0.00    +0.042 S 
ATOM     34  O   LIG    1       27.716 -13.806   6.155  0.00  0.00    -0.155 OA
ATOM     35  O   LIG    1       28.799 -11.542   6.244  0.00  0.00    -0.155 OA
ATOM     36  C   LIG    1       29.087 -12.959   4.070  0.00  0.00    +0.218 C 
ENDBRANCH  30  33
ENDBRANCH  28  29
ENDBRANCH  27  28
ENDBRANCH  26  27
ENDBRANCH  25  26
ENDBRANCH  24  25
ENDBRANCH  23  24
ENDBRANCH   1  23
TORSDOF 12
ENDMDL
MODEL 5
REMARK VINA RESULT:      13.0      2.526      7.209
REMARK  Name = *****
REMARK                            x       y       z     vdW  Elec       q    Type
REMARK                         _______ _______ _______ _____ _____    ______ ____
ROOT
ATOM      1  N   LIG    1       26.515 -14.290   2.919  0.00  0.00    -0.311 N 
ENDROOT
BRANCH   1   2
ATOM      2  C   LIG    1       26.168 -15.589   3.323  0.00  0.00    +0.141 A 
ATOM      3  N   LIG    1       26.944 -16.387   4.096  0.00  0.00    -0.228 NA
ATOM      4  C   LIG    1       26.479 -17.668   4.438  0.00  0.00    +0.099 A 
ATOM      5  C   LIG    1       25.149 -18.102   4.038  0.00  0.00    +0.097 A 
ATOM      6  N   LIG    1       24.434 -17.293   3.222  0.00  0.00    -0.249 NA
ATOM      7  C   LIG    1       24.944 -16.096   2.915  0.00  0.00    +0.155 A 
BRANCH   4   8
ATOM      8  C   LIG    1       27.545 -18.455   5.184  0.00  0.00    +0.003 A 
ATOM      9  C   LIG    1       28.508 -17.936   6.059  0.00  0.00    +0.010 A 
ATOM     10  C   LIG    1       29.468 -18.772   6.698  0.00  0.00    +0.001 A 
ATOM     11  C   LIG    1       29.461 -20.159   6.535  0.00  0.00    +0.000 A 
ATOM     12  C   LIG    1       28.573 -20.690   5.640  0.00  0.00    +0.001 A 
ATOM     13  C   LIG    1       27.769 -19.799   4.929  0.00  0.00    +0.010 A 
ENDBRANCH   4   8
BRANCH   5  14
ATOM     14  C   LIG    1       24.241 -19.294   4.359  0.00  0.00    +0.002 A 
ATOM     15  C   LIG    1       24.737 -20.474   4.976  0.00  0.00    +0.010 A 
ATOM     16  C   LIG    1       23.903 -21.569   5.324  0.00  0.00    +0.001 A 
ATOM     17  C   LIG    1       22.550 -21.571   5.011  0.00  0.00    +0.000 A 
ATOM     18  C   LIG    1       22.027 -20.448   4.444  0.00  0.00    +0.001 A 
ATOM     19  C   LIG    1       22.859 -19.355   4.234  0.00  0.00    +0.010 A 
ENDBRANCH   5  14
ENDBRANCH   1   2
BRANCH   1  21
ATOM     20  C   LIG    1       24.181 -14.067   1.879  0.00  0.00    +0.027 C 
ATOM     21  C   LIG    1       25.676 -13.640   1.848  0.00  0.00    +0.069 C 
ATOM     22  C   LIG    1       25.783 -12.103   1.882  0.00  0.00    +0.027 C 
ENDBRANCH   1  21
BRANCH   1  23
ATOM     23  C   LIG    1       27.836 -13.733   3.299  0.00  0.00    +0.107 C 
BRANCH  23  24
ATOM     24  C   LIG    1       28.564 -14.502   4.453  0.00  0.00    +0.021 C 
BRANCH  24  25
ATOM     25  C   LIG    1       28.328 -14.025   5.901  0.00  0.00    +0.030 C 
BRANCH  25  26
ATOM     26  C   LIG    1       26.938 -13.423   6.187  0.00  0.00    +0.160 C 
BRANCH  26  27
ATOM     27  O   LIG    1       26.248 -12.946   5.017  0.00  0.00    -0.370 OA
BRANCH  27  28
ATOM     28  C   LIG    1       25.058 -12.230   5.380  0.00  0.00    +0.256 C 
BRANCH  28  29
ATOM     29  C   LIG    1       23.848 -12.252   4.409  0.00  0.00    +0.257 C 
ATOM     30  N   LIG    1       22.850 -13.250   4.509  0.00  0.00    -0.188 N 
ATOM     31  H   LIG    1       22.145 -13.254   3.787  0.00  0.00    +0.176 HD
ATOM     32  O   LIG    1       23.750 -11.451   3.482  0.00  0.00    -0.272 OA
BRANCH  30  33
ATOM     33  S   LIG    1       22.814 -14.516   5.573  0.00  0.00    +0.042 S 
ATOM     34  O   LIG    1       21.860 -14.263   6.586  0.00  0.00    -0.155 OA
ATOM     35  O   LIG    1       24.221 -14.795   5.915  0.00  0.00    -0.155 OA
ATOM     36  C   LIG    1       22.279 -15.846   4.521  0.00  0.00    +0.218 C 
ENDBRANCH  30  33
ENDBRANCH  28  29
ENDBRANCH  27  28
ENDBRANCH  26  27
ENDBRANCH  25  26
ENDBRANCH  24  25
ENDBRANCH  23  24
ENDBRANCH   1  23
TORSDOF 12
ENDMDL
MODEL 6
REMARK VINA RESULT:      13.4      3.162      4.874
REMARK  Name = *****
REMARK                            x       y       z     vdW  Elec       q    Type
REMARK                         _______ _______ _______ _____ _____    ______ ____
ROOT
ATOM      1  N   LIG    1       22.259 -18.548   4.391  0.00  0.00    -0.311 N 
ENDROOT
BRANCH   1   2
ATOM      2  C   LIG    1       23.068 -17.403   4.315  0.00  0.00    +0.141 A 
ATOM      3  N   LIG    1       22.774 -16.214   4.894  0.00  0.00    -0.228 NA
ATOM      4  C   LIG    1       23.673 -15.143   4.750  0.00  0.00    +0.099 A 
ATOM      5  C   LIG    1       24.940 -15.330   4.059  0.00  0.00    +0.097 A 
ATOM      6  N   LIG    1       25.164 -16.519   3.451  0.00  0.00    -0.249 NA
ATOM      7  C   LIG    1       24.257 -17.489   3.609  0.00  0.00    +0.155 A 
BRANCH   4   8
ATOM      8  C   LIG    1       23.102 -13.866   5.345  0.00  0.00    +0.003 A 
ATOM      9  C   LIG    1       23.629 -12.575   5.215  0.00  0.00    +0.010 A 
ATOM     10  C   LIG    1       23.011 -11.447   5.828  0.00  0.00    +0.001 A 
ATOM     11  C   LIG    1       21.814 -11.560   6.538  0.00  0.00    +0.000 A 
ATOM     12  C   LIG    1       21.306 -12.815   6.735  0.00  0.00    +0.001 A 
ATOM     13  C   LIG    1       22.046 -13.890   6.244  0.00  0.00    +0.010 A 
ENDBRANCH   4   8
BRANCH   5  14
ATOM     14  C   LIG    1       26.215 -14.504   3.864  0.00  0.00    +0.002 A 
ATOM     15  C   LIG    1       26.837 -13.813   4.938  0.00  0.00    +0.010 A 
ATOM     16  C   LIG    1       28.045 -13.082   4.787  0.00  0.00    +0.001 A 
ATOM     17  C   LIG    1       28.651 -12.944   3.545  0.00  0.00    +0.000 A 
ATOM     18  C   LIG    1       28.103 -13.614   2.492  0.00  0.00    +0.001 A 
ATOM     19  C   LIG    1       26.991 -14.415   2.715  0.00  0.00    +0.010 A 
ENDBRANCH   5  14
ENDBRANCH   1   2
BRANCH   1  21
ATOM     20  C   LIG    1       21.806 -20.834   5.464  0.00  0.00    +0.027 C 
ATOM     21  C   LIG    1       22.342 -19.385   5.643  0.00  0.00    +0.069 C 
ATOM     22  C   LIG    1       23.771 -19.422   6.220  0.00  0.00    +0.027 C 
ENDBRANCH   1  21
BRANCH   1  23
ATOM     23  C   LIG    1       21.610 -19.070   3.163  0.00  0.00    +0.107 C 
BRANCH  23  24
ATOM     24  C   LIG    1       22.574 -19.817   2.181  0.00  0.00    +0.021 C 
BRANCH  24  25
ATOM     25  C   LIG    1       23.978 -20.199   2.695  0.00  0.00    +0.030 C 
BRANCH  25  26
ATOM     26  C   LIG    1       24.067 -21.535   3.459  0.00  0.00    +0.160 C 
BRANCH  26  27
ATOM     27  O   LIG    1       24.913 -21.495   4.624  0.00  0.00    -0.370 OA
BRANCH  27  28
ATOM     28  C   LIG    1       26.275 -21.223   4.261  0.00  0.00    +0.256 C 
BRANCH  28  29
ATOM     29  C   LIG    1       26.710 -19.750   4.050  0.00  0.00    +0.257 C 
ATOM     30  N   LIG    1       27.658 -19.139   4.905  0.00  0.00    -0.188 N 
ATOM     31  H   LIG    1       27.822 -18.153   4.762  0.00  0.00    +0.176 HD
ATOM     32  O   LIG    1       26.201 -19.043   3.182  0.00  0.00    -0.272 OA
BRANCH  30  33
ATOM     33  S   LIG    1       28.391 -19.818   6.223  0.00  0.00    +0.042 S 
ATOM     34  O   LIG    1       28.909 -18.802   7.059  0.00  0.00    -0.155 OA
ATOM     35  O   LIG    1       29.269 -20.878   5.694  0.00  0.00    -0.155 OA
ATOM     36  C   LIG    1       27.022 -20.641   7.003  0.00  0.00    +0.218 C 
ENDBRANCH  30  33
ENDBRANCH  28  29
ENDBRANCH  27  28
ENDBRANCH  26  27
ENDBRANCH  25  26
ENDBRANCH  24  25
ENDBRANCH  23  24
ENDBRANCH   1  23
TORSDOF 12
ENDMDL
