MODEL 1
REMARK VINA RESULT:      -5.7      0.000      0.000
REMARK  Name = *****
REMARK                            x       y       z     vdW  Elec       q    Type
REMARK                         _______ _______ _______ _____ _____    ______ ____
ROOT
ATOM      1  CA  GLU A  1       30.850 -18.814   7.792  0.00  0.00    +0.161 C 
ENDROOT
BRANCH   1   2
ATOM      2  N   GLU A  1       31.696 -19.577   6.814  0.00  0.00    -0.318 NA
ATOM      3  H1  GLU A  1       31.564 -19.179   5.879  0.00  0.00    +0.119 HD
ATOM      4  H2  GLU A  1       32.674 -19.360   7.040  0.00  0.00    +0.119 HD
ENDBRANCH   1   2
BRANCH   1   5
ATOM      5  C   GLU A  1       31.790 -18.177   8.834  0.00  0.00    +0.322 C 
ATOM      6  O   GLU A  1       31.984 -18.592   9.972  0.00  0.00    -0.249 OA
BRANCH   5   7
ATOM      7  OXT GLU A  1       32.368 -17.047   8.351  0.00  0.00    -0.479 OA
ATOM      8  HXT GLU A  1       32.772 -16.603   9.139  0.00  0.00    +0.295 HD
ENDBRANCH   5   7
ENDBRANCH   1   5
BRANCH   1   9
ATOM      9  CB  GLU A  1       29.774 -19.754   8.362  0.00  0.00    +0.041 C 
BRANCH   9  10
ATOM     10  CG  GLU A  1       30.015 -21.252   8.144  0.00  0.00    +0.122 C 
BRANCH  10  11
ATOM     11  CD  GLU A  1       30.998 -21.848   9.124  0.00  0.00    +0.305 C 
ATOM     12  OE1 GLU A  1       30.752 -22.107  10.291  0.00  0.00    -0.251 OA
BRANCH  11  13
ATOM     13  OE2 GLU A  1       32.201 -22.098   8.564  0.00  0.00    -0.481 OA
ATOM     14  HE2 GLU A  1       32.635 -21.307   8.188  0.00  0.00    +0.295 HD
ENDBRANCH  11  13
ENDBRANCH  10  11
ENDBRANCH   9  10
ENDBRANCH   1   9
TORSDOF 7
ENDMDL
MODEL 2
REMARK VINA RESULT:      -5.7      1.917      2.119
REMARK  Name = *****
REMARK                            x       y       z     vdW  Elec       q    Type
REMARK                         _______ _______ _______ _____ _____    ______ ____
ROOT
ATOM      1  CA  GLU A  1       30.715 -17.363   9.028  0.00  0.00    +0.161 C 
ENDROOT
BRANCH   1   2
ATOM      2  N   GLU A  1       32.171 -17.374   8.663  0.00  0.00    -0.318 NA
ATOM      3  H1  GLU A  1       32.728 -17.255   9.515  0.00  0.00    +0.119 HD
ATOM      4  H2  GLU A  1       32.390 -18.329   8.356  0.00  0.00    +0.119 HD
ENDBRANCH   1   2
BRANCH   1   5
ATOM      5  C   GLU A  1       30.610 -17.512  10.558  0.00  0.00    +0.322 C 
ATOM      6  O   GLU A  1       30.780 -18.550  11.190  0.00  0.00    -0.249 OA
BRANCH   5   7
ATOM      7  OXT GLU A  1       30.259 -16.338  11.145  0.00  0.00    -0.479 OA
ATOM      8  HXT GLU A  1       30.026 -15.733  10.397  0.00  0.00    +0.295 HD
ENDBRANCH   5   7
ENDBRANCH   1   5
BRANCH   1   9
ATOM      9  CB  GLU A  1       29.986 -18.442   8.208  0.00  0.00    +0.041 C 
BRANCH   9  10
ATOM     10  CG  GLU A  1       30.861 -19.587   7.686  0.00  0.00    +0.122 C 
BRANCH  10  11
ATOM     11  CD  GLU A  1       31.042 -20.704   8.686  0.00  0.00    +0.305 C 
ATOM     12  OE1 GLU A  1       30.239 -21.602   8.883  0.00  0.00    -0.251 OA
BRANCH  11  13
ATOM     13  OE2 GLU A  1       32.220 -20.627   9.341  0.00  0.00    -0.481 OA
ATOM     14  HE2 GLU A  1       32.136 -20.358  10.276  0.00  0.00    +0.295 HD
ENDBRANCH  11  13
ENDBRANCH  10  11
ENDBRANCH   9  10
ENDBRANCH   1   9
TORSDOF 7
ENDMDL
MODEL 3
REMARK VINA RESULT:      -5.7      1.189      3.784
REMARK  Name = *****
REMARK                            x       y       z     vdW  Elec       q    Type
REMARK                         _______ _______ _______ _____ _____    ______ ____
ROOT
ATOM      1  CA  GLU A  1       31.296 -19.544   8.346  0.00  0.00    +0.161 C 
ENDROOT
BRANCH   1   2
ATOM      2  N   GLU A  1       31.535 -19.674   6.870  0.00  0.00    -0.318 NA
ATOM      3  H1  GLU A  1       30.737 -20.157   6.445  0.00  0.00    +0.119 HD
ATOM      4  H2  GLU A  1       31.485 -18.726   6.480  0.00  0.00    +0.119 HD
ENDBRANCH   1   2
BRANCH   1   5
ATOM      5  C   GLU A  1       31.068 -20.959   8.915  0.00  0.00    +0.322 C 
ATOM      6  O   GLU A  1       30.007 -21.573   8.900  0.00  0.00    -0.249 OA
BRANCH   5   7
ATOM      7  OXT GLU A  1       32.199 -21.448   9.487  0.00  0.00    -0.479 OA
ATOM      8  HXT GLU A  1       32.550 -20.708  10.044  0.00  0.00    +0.295 HD
ENDBRANCH   5   7
ENDBRANCH   1   5
BRANCH   1   9
ATOM      9  CB  GLU A  1       30.149 -18.546   8.582  0.00  0.00    +0.041 C 
BRANCH   9  10
ATOM     10  CG  GLU A  1       30.481 -17.350   9.482  0.00  0.00    +0.122 C 
BRANCH  10  11
ATOM     11  CD  GLU A  1       31.965 -17.133   9.663  0.00  0.00    +0.305 C 
ATOM     12  OE1 GLU A  1       32.635 -17.603  10.568  0.00  0.00    -0.251 OA
BRANCH  11  13
ATOM     13  OE2 GLU A  1       32.499 -16.368   8.687  0.00  0.00    -0.481 OA
ATOM     14  HE2 GLU A  1       33.122 -16.846   8.105  0.00  0.00    +0.295 HD
ENDBRANCH  11  13
ENDBRANCH  10  11
ENDBRANCH   9  10
ENDBRANCH   1   9
TORSDOF 7
ENDMDL
MODEL 4
REMARK VINA RESULT:      -5.6      1.727      3.825
REMARK  Name = *****
REMARK                            x       y       z     vdW  Elec       q    Type
REMARK                         _______ _______ _______ _____ _____    ______ ____
ROOT
ATOM      1  CA  GLU A  1       31.250 -19.591   8.325  0.00  0.00    +0.161 C 
ENDROOT
BRANCH   1   2
ATOM      2  N   GLU A  1       31.413 -19.734   6.840  0.00  0.00    -0.318 NA
ATOM      3  H1  GLU A  1       32.222 -19.180   6.539  0.00  0.00    +0.119 HD
ATOM      4  H2  GLU A  1       31.700 -20.704   6.668  0.00  0.00    +0.119 HD
ENDBRANCH   1   2
BRANCH   1   5
ATOM      5  C   GLU A  1       31.088 -21.003   8.921  0.00  0.00    +0.322 C 
ATOM      6  O   GLU A  1       30.056 -21.665   8.922  0.00  0.00    -0.249 OA
BRANCH   5   7
ATOM      7  OXT GLU A  1       32.242 -21.430   9.497  0.00  0.00    -0.479 OA
ATOM      8  HXT GLU A  1       32.967 -20.998   8.979  0.00  0.00    +0.295 HD
ENDBRANCH   5   7
ENDBRANCH   1   5
BRANCH   1   9
ATOM      9  CB  GLU A  1       30.092 -18.618   8.610  0.00  0.00    +0.041 C 
BRANCH   9  10
ATOM     10  CG  GLU A  1       30.480 -17.307   9.302  0.00  0.00    +0.122 C 
BRANCH  10  11
ATOM     11  CD  GLU A  1       30.534 -17.419  10.807  0.00  0.00    +0.305 C 
ATOM     12  OE1 GLU A  1       30.718 -18.456  11.425  0.00  0.00    -0.251 OA
BRANCH  11  13
ATOM     13  OE2 GLU A  1       30.381 -16.226  11.422  0.00  0.00    -0.481 OA
ATOM     14  HE2 GLU A  1       30.950 -15.519  11.061  0.00  0.00    +0.295 HD
ENDBRANCH  11  13
ENDBRANCH  10  11
ENDBRANCH   9  10
ENDBRANCH   1   9
TORSDOF 7
ENDMDL
MODEL 5
REMARK VINA RESULT:      -5.5      2.686      4.111
REMARK  Name = *****
REMARK                            x       y       z     vdW  Elec       q    Type
REMARK                         _______ _______ _______ _____ _____    ______ ____
ROOT
ATOM      1  CA  GLU A  1       30.463 -20.766   8.395  0.00  0.00    +0.161 C 
ENDROOT
BRANCH   1   2
ATOM      2  N   GLU A  1       31.485 -20.177   7.468  0.00  0.00    -0.318 NA
ATOM      3  H1  GLU A  1       31.666 -20.840   6.707  0.00  0.00    +0.119 HD
ATOM      4  H2  GLU A  1       31.034 -19.382   7.000  0.00  0.00    +0.119 HD
ENDBRANCH   1   2
BRANCH   1   5
ATOM      5  C   GLU A  1       31.143 -21.898   9.190  0.00  0.00    +0.322 C 
ATOM      6  O   GLU A  1       30.769 -22.338  10.272  0.00  0.00    -0.249 OA
BRANCH   5   7
ATOM      7  OXT GLU A  1       32.260 -22.342   8.558  0.00  0.00    -0.479 OA
ATOM      8  HXT GLU A  1       32.995 -21.770   8.895  0.00  0.00    +0.295 HD
ENDBRANCH   5   7
ENDBRANCH   1   5
BRANCH   1   9
ATOM      9  CB  GLU A  1       29.228 -21.184   7.579  0.00  0.00    +0.041 C 
BRANCH   9  10
ATOM     10  CG  GLU A  1       28.253 -20.056   7.222  0.00  0.00    +0.122 C 
BRANCH  10  11
ATOM     11  CD  GLU A  1       28.474 -19.488   5.841  0.00  0.00    +0.305 C 
ATOM     12  OE1 GLU A  1       29.307 -18.641   5.558  0.00  0.00    -0.251 OA
BRANCH  11  13
ATOM     13  OE2 GLU A  1       27.659 -20.041   4.916  0.00  0.00    -0.481 OA
ATOM     14  HE2 GLU A  1       27.953 -20.918   4.603  0.00  0.00    +0.295 HD
ENDBRANCH  11  13
ENDBRANCH  10  11
ENDBRANCH   9  10
ENDBRANCH   1   9
TORSDOF 7
ENDMDL
MODEL 6
REMARK VINA RESULT:      -5.4      1.971      2.275
REMARK  Name = *****
REMARK                            x       y       z     vdW  Elec       q    Type
REMARK                         _______ _______ _______ _____ _____    ______ ____
ROOT
ATOM      1  CA  GLU A  1       31.715 -18.449   8.573  0.00  0.00    +0.161 C 
ENDROOT
BRANCH   1   2
ATOM      2  N   GLU A  1       32.027 -19.779   9.194  0.00  0.00    -0.318 NA
ATOM      3  H1  GLU A  1       32.858 -19.683   9.787  0.00  0.00    +0.119 HD
ATOM      4  H2  GLU A  1       31.271 -19.978   9.859  0.00  0.00    +0.119 HD
ENDBRANCH   1   2
BRANCH   1   5
ATOM      5  C   GLU A  1       32.319 -17.353   9.474  0.00  0.00    +0.322 C 
ATOM      6  O   GLU A  1       32.545 -17.458  10.674  0.00  0.00    -0.249 OA
BRANCH   5   7
ATOM      7  OXT GLU A  1       32.544 -16.210   8.775  0.00  0.00    -0.479 OA
ATOM      8  HXT GLU A  1       32.166 -15.485   9.334  0.00  0.00    +0.295 HD
ENDBRANCH   5   7
ENDBRANCH   1   5
BRANCH   1   9
ATOM      9  CB  GLU A  1       30.197 -18.349   8.341  0.00  0.00    +0.041 C 
BRANCH   9  10
ATOM     10  CG  GLU A  1       29.668 -19.051   7.086  0.00  0.00    +0.122 C 
BRANCH  10  11
ATOM     11  CD  GLU A  1       29.297 -20.496   7.321  0.00  0.00    +0.305 C 
ATOM     12  OE1 GLU A  1       29.252 -21.037   8.414  0.00  0.00    -0.251 OA
BRANCH  11  13
ATOM     13  OE2 GLU A  1       28.987 -21.144   6.177  0.00  0.00    -0.481 OA
ATOM     14  HE2 GLU A  1       29.691 -21.740   5.856  0.00  0.00    +0.295 HD
ENDBRANCH  11  13
ENDBRANCH  10  11
ENDBRANCH   9  10
ENDBRANCH   1   9
TORSDOF 7
ENDMDL
MODEL 7
REMARK VINA RESULT:      -5.3      2.714      3.694
REMARK  Name = *****
REMARK                            x       y       z     vdW  Elec       q    Type
REMARK                         _______ _______ _______ _____ _____    ______ ____
ROOT
ATOM      1  CA  GLU A  1       30.994 -19.671   8.648  0.00  0.00    +0.161 C 
ENDROOT
BRANCH   1   2
ATOM      2  N   GLU A  1       32.109 -18.845   9.220  0.00  0.00    -0.318 NA
ATOM      3  H1  GLU A  1       31.740 -17.926   9.486  0.00  0.00    +0.119 HD
ATOM      4  H2  GLU A  1       32.366 -19.277  10.115  0.00  0.00    +0.119 HD
ENDBRANCH   1   2
BRANCH   1   5
ATOM      5  C   GLU A  1       31.203 -21.128   9.105  0.00  0.00    +0.322 C 
ATOM      6  O   GLU A  1       32.281 -21.646   9.375  0.00  0.00    -0.249 OA
BRANCH   5   7
ATOM      7  OXT GLU A  1       30.026 -21.807   9.140  0.00  0.00    -0.479 OA
ATOM      8  HXT GLU A  1       30.248 -22.727   8.846  0.00  0.00    +0.295 HD
ENDBRANCH   5   7
ENDBRANCH   1   5
BRANCH   1   9
ATOM      9  CB  GLU A  1       30.944 -19.459   7.125  0.00  0.00    +0.041 C 
BRANCH   9  10
ATOM     10  CG  GLU A  1       29.593 -19.005   6.560  0.00  0.00    +0.122 C 
BRANCH  10  11
ATOM     11  CD  GLU A  1       28.695 -20.152   6.163  0.00  0.00    +0.305 C 
ATOM     12  OE1 GLU A  1       28.626 -21.221   6.749  0.00  0.00    -0.251 OA
BRANCH  11  13
ATOM     13  OE2 GLU A  1       27.937 -19.867   5.083  0.00  0.00    -0.481 OA
ATOM     14  HE2 GLU A  1       27.273 -20.552   4.873  0.00  0.00    +0.295 HD
ENDBRANCH  11  13
ENDBRANCH  10  11
ENDBRANCH   9  10
ENDBRANCH   1   9
TORSDOF 7
ENDMDL
MODEL 8
REMARK VINA RESULT:      -5.2      1.916      3.737
REMARK  Name = *****
REMARK                            x       y       z     vdW  Elec       q    Type
REMARK                         _______ _______ _______ _____ _____    ______ ____
ROOT
ATOM      1  CA  GLU A  1       29.482 -20.154   6.587  0.00  0.00    +0.161 C 
ENDROOT
BRANCH   1   2
ATOM      2  N   GLU A  1       28.263 -20.224   5.713  0.00  0.00    -0.318 NA
ATOM      3  H1  GLU A  1       27.437 -20.359   6.305  0.00  0.00    +0.119 HD
ATOM      4  H2  GLU A  1       28.132 -19.286   5.316  0.00  0.00    +0.119 HD
ENDBRANCH   1   2
BRANCH   1   5
ATOM      5  C   GLU A  1       29.253 -21.085   7.793  0.00  0.00    +0.322 C 
ATOM      6  O   GLU A  1       28.181 -21.276   8.357  0.00  0.00    -0.249 OA
BRANCH   5   7
ATOM      7  OXT GLU A  1       30.415 -21.659   8.201  0.00  0.00    -0.479 OA
ATOM      8  HXT GLU A  1       30.236 -21.989   9.117  0.00  0.00    +0.295 HD
ENDBRANCH   5   7
ENDBRANCH   1   5
BRANCH   1   9
ATOM      9  CB  GLU A  1       29.765 -18.682   6.934  0.00  0.00    +0.041 C 
BRANCH   9  10
ATOM     10  CG  GLU A  1       30.126 -18.401   8.397  0.00  0.00    +0.122 C 
BRANCH  10  11
ATOM     11  CD  GLU A  1       31.609 -18.487   8.673  0.00  0.00    +0.305 C 
ATOM     12  OE1 GLU A  1       32.165 -19.429   9.215  0.00  0.00    -0.251 OA
BRANCH  11  13
ATOM     13  OE2 GLU A  1       32.283 -17.404   8.229  0.00  0.00    -0.481 OA
ATOM     14  HE2 GLU A  1       33.230 -17.402   8.468  0.00  0.00    +0.295 HD
ENDBRANCH  11  13
ENDBRANCH  10  11
ENDBRANCH   9  10
ENDBRANCH   1   9
TORSDOF 7
ENDMDL
MODEL 9
REMARK VINA RESULT:      -5.2      6.773      8.391
REMARK  Name = *****
REMARK                            x       y       z     vdW  Elec       q    Type
REMARK                         _______ _______ _______ _____ _____    ______ ____
ROOT
ATOM      1  CA  GLU A  1       25.106 -24.156   5.819  0.00  0.00    +0.161 C 
ENDROOT
BRANCH   1   2
ATOM      2  N   GLU A  1       24.878 -22.889   5.046  0.00  0.00    -0.318 NA
ATOM      3  H1  GLU A  1       24.002 -22.461   5.362  0.00  0.00    +0.119 HD
ATOM      4  H2  GLU A  1       25.601 -22.226   5.349  0.00  0.00    +0.119 HD
ENDBRANCH   1   2
BRANCH   1   5
ATOM      5  C   GLU A  1       23.730 -24.784   6.113  0.00  0.00    +0.322 C 
ATOM      6  O   GLU A  1       22.853 -24.291   6.814  0.00  0.00    -0.249 OA
BRANCH   5   7
ATOM      7  OXT GLU A  1       23.608 -26.002   5.523  0.00  0.00    -0.479 OA
ATOM      8  HXT GLU A  1       23.643 -26.656   6.266  0.00  0.00    +0.295 HD
ENDBRANCH   5   7
ENDBRANCH   1   5
BRANCH   1   9
ATOM      9  CB  GLU A  1       25.965 -23.840   7.056  0.00  0.00    +0.041 C 
BRANCH   9  10
ATOM     10  CG  GLU A  1       26.315 -22.362   7.264  0.00  0.00    +0.122 C 
BRANCH  10  11
ATOM     11  CD  GLU A  1       25.452 -21.684   8.301  0.00  0.00    +0.305 C 
ATOM     12  OE1 GLU A  1       25.870 -21.137   9.309  0.00  0.00    -0.251 OA
BRANCH  11  13
ATOM     13  OE2 GLU A  1       24.139 -21.719   7.987  0.00  0.00    -0.481 OA
ATOM     14  HE2 GLU A  1       23.963 -21.889   7.041  0.00  0.00    +0.295 HD
ENDBRANCH  11  13
ENDBRANCH  10  11
ENDBRANCH   9  10
ENDBRANCH   1   9
TORSDOF 7
ENDMDL
