MODEL 1
REMARK VINA RESULT:      -9.7      0.000      0.000
REMARK  Name = *****
REMARK                            x       y       z     vdW  Elec       q    Type
REMARK                         _______ _______ _______ _____ _____    ______ ____
ROOT
ATOM      1  N   LIG    1       25.775 -21.683   5.750  0.00  0.00    -0.298 N 
ATOM      2  C   LIG    1       25.103 -22.928   6.037  0.00  0.00    +0.049 A 
ATOM      3  C   LIG    1       23.739 -22.976   6.395  0.00  0.00    +0.034 A 
ATOM      4  C   LIG    1       23.138 -24.205   6.701  0.00  0.00    +0.018 A 
ATOM      5  C   LIG    1       23.864 -25.391   6.589  0.00  0.00    +0.018 A 
ATOM      6  C   LIG    1       25.192 -25.359   6.159  0.00  0.00    +0.040 A 
ATOM      7  S   LIG    1       22.741 -21.495   6.469  0.00  0.00    -0.086 S 
ATOM      8  C   LIG    1       23.653 -20.456   5.337  0.00  0.00    +0.034 A 
ATOM      9  C   LIG    1       22.979 -19.435   4.662  0.00  0.00    +0.017 A 
ATOM     10  C   LIG    1       23.650 -18.625   3.744  0.00  0.00    +0.001 A 
ATOM     11  C   LIG    1       25.002 -18.849   3.480  0.00  0.00    +0.002 A 
ATOM     12  C   LIG    1       25.677 -19.869   4.140  0.00  0.00    +0.024 A 
ATOM     13  C   LIG    1       25.818 -24.128   5.914  0.00  0.00    +0.041 A 
ATOM     14  C   LIG    1       25.029 -20.661   5.102  0.00  0.00    +0.048 A 
ENDROOT
BRANCH   6  15
ATOM     15  S   LIG    1       26.074 -26.909   5.913  0.00  0.00    +0.051 S 
ATOM     16  O   LIG    1       26.542 -26.881   4.491  0.00  0.00    -0.252 OA
ATOM     17  C   LIG    1       24.636 -28.015   5.982  0.00  0.00    +0.127 C 
ENDBRANCH   6  15
BRANCH   1  18
ATOM     18  C   LIG    1       26.405 -21.221   7.043  0.00  0.00    +0.112 C 
BRANCH  18  19
ATOM     19  C   LIG    1       27.344 -19.992   6.965  0.00  0.00    +0.038 C 
BRANCH  19  22
ATOM     20  C   LIG    1       30.113 -18.852   6.358  0.00  0.00    +0.105 C 
ATOM     21  N   LIG    1       29.552 -18.983   7.703  0.00  0.00    -0.302 NA
ATOM     22  C   LIG    1       28.594 -20.106   7.884  0.00  0.00    +0.058 C 
ATOM     23  C   LIG    1       29.299 -21.473   7.803  0.00  0.00    +0.019 C 
ATOM     24  C   LIG    1       30.449 -21.563   8.809  0.00  0.00    +0.003 C 
ATOM     25  C   LIG    1       31.390 -20.367   8.716  0.00  0.00    +0.015 C 
ATOM     26  C   LIG    1       30.618 -19.046   8.718  0.00  0.00    +0.084 C 
ENDBRANCH  19  22
ENDBRANCH  18  19
ENDBRANCH   1  18
TORSDOF 4
ENDMDL
MODEL 2
REMARK VINA RESULT:      -9.3      3.185      6.748
REMARK  Name = *****
REMARK                            x       y       z     vdW  Elec       q    Type
REMARK                         _______ _______ _______ _____ _____    ______ ____
ROOT
ATOM      1  N   LIG    1       26.806 -20.934   7.496  0.00  0.00    -0.298 N 
ATOM      2  C   LIG    1       27.907 -20.118   7.045  0.00  0.00    +0.049 A 
ATOM      3  C   LIG    1       28.001 -19.659   5.713  0.00  0.00    +0.034 A 
ATOM      4  C   LIG    1       29.108 -18.900   5.310  0.00  0.00    +0.018 A 
ATOM      5  C   LIG    1       30.087 -18.536   6.236  0.00  0.00    +0.018 A 
ATOM      6  C   LIG    1       29.962 -18.920   7.572  0.00  0.00    +0.040 A 
ATOM      7  S   LIG    1       26.730 -20.023   4.510  0.00  0.00    -0.086 S 
ATOM      8  C   LIG    1       25.338 -20.273   5.602  0.00  0.00    +0.034 A 
ATOM      9  C   LIG    1       24.048 -20.039   5.120  0.00  0.00    +0.017 A 
ATOM     10  C   LIG    1       22.938 -20.190   5.953  0.00  0.00    +0.001 A 
ATOM     11  C   LIG    1       23.118 -20.559   7.288  0.00  0.00    +0.002 A 
ATOM     12  C   LIG    1       24.400 -20.784   7.777  0.00  0.00    +0.024 A 
ATOM     13  C   LIG    1       28.891 -19.735   7.967  0.00  0.00    +0.041 A 
ATOM     14  C   LIG    1       25.523 -20.683   6.940  0.00  0.00    +0.048 A 
ENDROOT
BRANCH   6  15
ATOM     15  S   LIG    1       31.177 -18.346   8.769  0.00  0.00    +0.051 S 
ATOM     16  O   LIG    1       31.851 -19.582   9.279  0.00  0.00    -0.252 OA
ATOM     17  C   LIG    1       30.010 -17.805  10.051  0.00  0.00    +0.127 C 
ENDBRANCH   6  15
BRANCH   1  18
ATOM     18  C   LIG    1       27.241 -22.373   7.346  0.00  0.00    +0.112 C 
BRANCH  18  19
ATOM     19  C   LIG    1       26.205 -23.461   7.723  0.00  0.00    +0.038 C 
BRANCH  19  22
ATOM     20  C   LIG    1       23.535 -24.254   6.468  0.00  0.00    +0.105 C 
ATOM     21  N   LIG    1       24.816 -24.278   5.762  0.00  0.00    -0.302 NA
ATOM     22  C   LIG    1       26.006 -24.537   6.617  0.00  0.00    +0.058 C 
ATOM     23  C   LIG    1       26.019 -25.983   7.149  0.00  0.00    +0.019 C 
ATOM     24  C   LIG    1       25.931 -26.995   6.004  0.00  0.00    +0.003 C 
ATOM     25  C   LIG    1       24.780 -26.689   5.052  0.00  0.00    +0.015 C 
ATOM     26  C   LIG    1       24.781 -25.218   4.629  0.00  0.00    +0.084 C 
ENDBRANCH  19  22
ENDBRANCH  18  19
ENDBRANCH   1  18
TORSDOF 4
ENDMDL
