MODEL 1
REMARK VINA RESULT:      -7.8      0.000      0.000
REMARK  Name = *****
REMARK                            x       y       z     vdW  Elec       q    Type
REMARK                         _______ _______ _______ _____ _____    ______ ____
ROOT
ATOM      1  N   LIG    1       28.424 -20.800   6.465  0.00  0.00    -0.236 NA
ATOM      2  H   LIG    1       28.321 -21.825   6.459  0.00  0.00    +0.145 HD
ENDROOT
BRANCH   1   4
ATOM      3  C   LIG    1       30.363 -19.351   6.858  0.00  0.00    +0.246 C 
ATOM      4  N   LIG    1       29.643 -20.512   7.106  0.00  0.00    -0.249 N 
ATOM      5  H   LIG    1       30.080 -21.199   7.730  0.00  0.00    +0.169 HD
ATOM      6  O   LIG    1       30.017 -18.475   6.064  0.00  0.00    -0.273 OA
BRANCH   3   7
ATOM      7  CA  LIG    1       31.581 -19.248   7.789  0.00  0.00    +0.165 C 
BRANCH   7   8
ATOM      8  N   LIG    1       31.973 -17.818   7.977  0.00  0.00    -0.318 NA
ATOM      9  H1  LIG    1       32.646 -17.582   7.242  0.00  0.00    +0.119 HD
ATOM     10  H2  LIG    1       31.148 -17.261   7.726  0.00  0.00    +0.119 HD
ENDBRANCH   7   8
BRANCH   7  11
ATOM     11  C   LIG    1       31.364 -19.933   9.141  0.00  0.00    +0.183 C 
BRANCH  11  12
ATOM     12  O   LIG    1       32.165 -21.120   9.209  0.00  0.00    -0.393 OA
ATOM     13  H   LIG    1       31.670 -21.773   9.735  0.00  0.00    +0.209 HD
ENDBRANCH  11  12
ENDBRANCH   7  11
ENDBRANCH   3   7
ENDBRANCH   1   4
BRANCH   1  14
ATOM     14  C   LIG    1       27.270 -20.251   7.203  0.00  0.00    +0.140 C 
BRANCH  14  15
ATOM     15  C   LIG    1       25.898 -20.653   6.694  0.00  0.00    +0.013 A 
ATOM     16  C   LIG    1       25.607 -20.536   5.331  0.00  0.00    +0.167 A 
ATOM     17  C   LIG    1       24.337 -20.820   4.838  0.00  0.00    +0.201 A 
ATOM     18  C   LIG    1       23.332 -21.260   5.688  0.00  0.00    +0.162 A 
ATOM     19  C   LIG    1       23.581 -21.385   7.049  0.00  0.00    +0.050 A 
ATOM     20  C   LIG    1       24.853 -21.061   7.549  0.00  0.00    +0.012 A 
BRANCH  16  21
ATOM     21  O   LIG    1       26.571 -20.131   4.446  0.00  0.00    -0.503 OA
ATOM     22  H   LIG    1       26.834 -20.952   3.981  0.00  0.00    +0.292 HD
ENDBRANCH  16  21
BRANCH  17  23
ATOM     23  O   LIG    1       24.092 -20.648   3.502  0.00  0.00    -0.501 OA
ATOM     24  H   LIG    1       24.527 -19.796   3.289  0.00  0.00    +0.292 HD
ENDBRANCH  17  23
BRANCH  18  25
ATOM     25  O   LIG    1       22.117 -21.553   5.136  0.00  0.00    -0.503 OA
ATOM     26  H   LIG    1       21.829 -22.416   5.482  0.00  0.00    +0.292 HD
ENDBRANCH  18  25
ENDBRANCH  14  15
ENDBRANCH   1  14
TORSDOF 10
ENDMDL
MODEL 2
REMARK VINA RESULT:      -7.7      1.922      2.534
REMARK  Name = *****
REMARK                            x       y       z     vdW  Elec       q    Type
REMARK                         _______ _______ _______ _____ _____    ______ ____
ROOT
ATOM      1  N   LIG    1       29.952 -20.193   7.126  0.00  0.00    -0.236 NA
ATOM      2  H   LIG    1       29.761 -21.083   7.607  0.00  0.00    +0.145 HD
ENDROOT
BRANCH   1   4
ATOM      3  C   LIG    1       31.018 -19.143   9.069  0.00  0.00    +0.246 C 
ATOM      4  N   LIG    1       30.010 -19.193   8.116  0.00  0.00    -0.249 N 
ATOM      5  H   LIG    1       29.256 -18.506   8.207  0.00  0.00    +0.169 HD
ATOM      6  O   LIG    1       31.942 -19.954   9.149  0.00  0.00    -0.273 OA
BRANCH   3   7
ATOM      7  CA  LIG    1       30.895 -17.878   9.935  0.00  0.00    +0.165 C 
BRANCH   7   8
ATOM      8  N   LIG    1       30.864 -18.242  11.384  0.00  0.00    -0.318 NA
ATOM      9  H1  LIG    1       30.457 -19.178  11.460  0.00  0.00    +0.119 HD
ATOM     10  H2  LIG    1       31.841 -18.387  11.663  0.00  0.00    +0.119 HD
ENDBRANCH   7   8
BRANCH   7  11
ATOM     11  C   LIG    1       31.994 -16.850   9.655  0.00  0.00    +0.183 C 
BRANCH  11  12
ATOM     12  O   LIG    1       32.482 -17.024   8.319  0.00  0.00    -0.393 OA
ATOM     13  H   LIG    1       31.707 -17.055   7.730  0.00  0.00    +0.209 HD
ENDBRANCH  11  12
ENDBRANCH   7  11
ENDBRANCH   3   7
ENDBRANCH   1   4
BRANCH   1  14
ATOM     14  C   LIG    1       28.846 -19.965   6.176  0.00  0.00    +0.140 C 
BRANCH  14  15
ATOM     15  C   LIG    1       27.458 -20.334   6.666  0.00  0.00    +0.013 A 
ATOM     16  C   LIG    1       26.402 -20.410   5.752  0.00  0.00    +0.167 A 
ATOM     17  C   LIG    1       25.101 -20.668   6.174  0.00  0.00    +0.201 A 
ATOM     18  C   LIG    1       24.825 -20.890   7.515  0.00  0.00    +0.162 A 
ATOM     19  C   LIG    1       25.847 -20.820   8.454  0.00  0.00    +0.050 A 
ATOM     20  C   LIG    1       27.152 -20.521   8.030  0.00  0.00    +0.012 A 
BRANCH  16  21
ATOM     21  O   LIG    1       26.625 -20.224   4.414  0.00  0.00    -0.503 OA
ATOM     22  H   LIG    1       27.071 -19.354   4.360  0.00  0.00    +0.292 HD
ENDBRANCH  16  21
BRANCH  17  23
ATOM     23  O   LIG    1       24.096 -20.688   5.243  0.00  0.00    -0.501 OA
ATOM     24  H   LIG    1       23.360 -21.148   5.699  0.00  0.00    +0.292 HD
ENDBRANCH  17  23
BRANCH  18  25
ATOM     25  O   LIG    1       23.532 -21.171   7.859  0.00  0.00    -0.503 OA
ATOM     26  H   LIG    1       23.398 -20.891   8.782  0.00  0.00    +0.292 HD
ENDBRANCH  18  25
ENDBRANCH  14  15
ENDBRANCH   1  14
TORSDOF 10
ENDMDL
MODEL 3
REMARK VINA RESULT:      -7.6      2.236      3.183
REMARK  Name = *****
REMARK                            x       y       z     vdW  Elec       q    Type
REMARK                         _______ _______ _______ _____ _____    ______ ____
ROOT
ATOM      1  N   LIG    1       30.191 -20.006   6.947  0.00  0.00    -0.236 NA
ATOM      2  H   LIG    1       29.786 -20.722   7.565  0.00  0.00    +0.145 HD
ENDROOT
BRANCH   1   4
ATOM      3  C   LIG    1       31.524 -19.278   8.873  0.00  0.00    +0.246 C 
ATOM      4  N   LIG    1       30.722 -18.998   7.775  0.00  0.00    -0.249 N 
ATOM      5  H   LIG    1       30.465 -18.016   7.631  0.00  0.00    +0.169 HD
ATOM      6  O   LIG    1       31.843 -20.413   9.231  0.00  0.00    -0.273 OA
BRANCH   3   7
ATOM      7  CA  LIG    1       32.058 -17.985   9.509  0.00  0.00    +0.165 C 
BRANCH   7   8
ATOM      8  N   LIG    1       32.297 -16.949   8.458  0.00  0.00    -0.318 NA
ATOM      9  H1  LIG    1       32.256 -16.032   8.912  0.00  0.00    +0.119 HD
ATOM     10  H2  LIG    1       33.285 -17.035   8.192  0.00  0.00    +0.119 HD
ENDBRANCH   7   8
BRANCH   7  11
ATOM     11  C   LIG    1       31.149 -17.439  10.613  0.00  0.00    +0.183 C 
BRANCH  11  12
ATOM     12  O   LIG    1       29.960 -18.235  10.689  0.00  0.00    -0.393 OA
ATOM     13  H   LIG    1       29.338 -17.770  11.278  0.00  0.00    +0.209 HD
ENDBRANCH  11  12
ENDBRANCH   7  11
ENDBRANCH   3   7
ENDBRANCH   1   4
BRANCH   1  14
ATOM     14  C   LIG    1       29.099 -19.499   6.093  0.00  0.00    +0.140 C 
BRANCH  14  15
ATOM     15  C   LIG    1       27.699 -19.962   6.454  0.00  0.00    +0.013 A 
ATOM     16  C   LIG    1       27.349 -20.115   7.800  0.00  0.00    +0.167 A 
ATOM     17  C   LIG    1       26.103 -20.611   8.168  0.00  0.00    +0.201 A 
ATOM     18  C   LIG    1       25.160 -20.938   7.203  0.00  0.00    +0.162 A 
ATOM     19  C   LIG    1       25.472 -20.804   5.856  0.00  0.00    +0.050 A 
ATOM     20  C   LIG    1       26.745 -20.338   5.487  0.00  0.00    +0.012 A 
BRANCH  16  21
ATOM     21  O   LIG    1       28.234 -19.782   8.791  0.00  0.00    -0.503 OA
ATOM     22  H   LIG    1       29.069 -20.222   8.529  0.00  0.00    +0.292 HD
ENDBRANCH  16  21
BRANCH  17  23
ATOM     23  O   LIG    1       25.826 -20.783   9.498  0.00  0.00    -0.501 OA
ATOM     24  H   LIG    1       25.913 -21.749   9.636  0.00  0.00    +0.292 HD
ENDBRANCH  17  23
BRANCH  18  25
ATOM     25  O   LIG    1       23.943 -21.390   7.632  0.00  0.00    -0.503 OA
ATOM     26  H   LIG    1       23.586 -21.987   6.951  0.00  0.00    +0.292 HD
ENDBRANCH  18  25
ENDBRANCH  14  15
ENDBRANCH   1  14
TORSDOF 10
ENDMDL
MODEL 4
REMARK VINA RESULT:      -7.6      6.417      8.461
REMARK  Name = *****
REMARK                            x       y       z     vdW  Elec       q    Type
REMARK                         _______ _______ _______ _____ _____    ______ ____
ROOT
ATOM      1  N   LIG    1       26.345 -27.151   7.003  0.00  0.00    -0.236 NA
ATOM      2  H   LIG    1       27.308 -27.512   7.042  0.00  0.00    +0.145 HD
ENDROOT
BRANCH   1   4
ATOM      3  C   LIG    1       25.017 -29.195   7.276  0.00  0.00    +0.246 C 
ATOM      4  N   LIG    1       25.538 -28.180   6.484  0.00  0.00    -0.249 N 
ATOM      5  H   LIG    1       25.371 -28.253   5.475  0.00  0.00    +0.169 HD
ATOM      6  O   LIG    1       25.209 -29.298   8.489  0.00  0.00    -0.273 OA
BRANCH   3   7
ATOM      7  CA  LIG    1       24.077 -30.100   6.465  0.00  0.00    +0.165 C 
BRANCH   7   8
ATOM      8  N   LIG    1       23.355 -29.302   5.427  0.00  0.00    -0.318 NA
ATOM      9  H1  LIG    1       23.049 -29.950   4.695  0.00  0.00    +0.119 HD
ATOM     10  H2  LIG    1       22.474 -29.003   5.859  0.00  0.00    +0.119 HD
ENDBRANCH   7   8
BRANCH   7  11
ATOM     11  C   LIG    1       24.793 -31.295   5.831  0.00  0.00    +0.183 C 
BRANCH  11  12
ATOM     12  O   LIG    1       26.135 -30.924   5.494  0.00  0.00    -0.393 OA
ATOM     13  H   LIG    1       26.731 -31.517   5.985  0.00  0.00    +0.209 HD
ENDBRANCH  11  12
ENDBRANCH   7  11
ENDBRANCH   3   7
ENDBRANCH   1   4
BRANCH   1  14
ATOM     14  C   LIG    1       26.359 -25.965   6.124  0.00  0.00    +0.140 C 
BRANCH  14  15
ATOM     15  C   LIG    1       25.531 -24.780   6.587  0.00  0.00    +0.013 A 
ATOM     16  C   LIG    1       24.145 -24.791   6.396  0.00  0.00    +0.167 A 
ATOM     17  C   LIG    1       23.363 -23.691   6.735  0.00  0.00    +0.201 A 
ATOM     18  C   LIG    1       23.938 -22.564   7.304  0.00  0.00    +0.162 A 
ATOM     19  C   LIG    1       25.312 -22.514   7.506  0.00  0.00    +0.050 A 
ATOM     20  C   LIG    1       26.104 -23.610   7.127  0.00  0.00    +0.012 A 
BRANCH  16  21
ATOM     21  O   LIG    1       23.525 -25.889   5.862  0.00  0.00    -0.503 OA
ATOM     22  H   LIG    1       24.098 -26.641   6.119  0.00  0.00    +0.292 HD
ENDBRANCH  16  21
BRANCH  17  23
ATOM     23  O   LIG    1       22.016 -23.736   6.487  0.00  0.00    -0.501 OA
ATOM     24  H   LIG    1       21.647 -23.032   7.059  0.00  0.00    +0.292 HD
ENDBRANCH  17  23
BRANCH  18  25
ATOM     25  O   LIG    1       23.109 -21.531   7.644  0.00  0.00    -0.503 OA
ATOM     26  H   LIG    1       22.345 -21.902   8.118  0.00  0.00    +0.292 HD
ENDBRANCH  18  25
ENDBRANCH  14  15
ENDBRANCH   1  14
TORSDOF 10
ENDMDL
MODEL 5
REMARK VINA RESULT:      -7.6      2.411      3.491
REMARK  Name = *****
REMARK                            x       y       z     vdW  Elec       q    Type
REMARK                         _______ _______ _______ _____ _____    ______ ____
ROOT
ATOM      1  N   LIG    1       27.135 -21.220   8.685  0.00  0.00    -0.236 NA
ATOM      2  H   LIG    1       27.100 -20.977   9.685  0.00  0.00    +0.145 HD
ENDROOT
BRANCH   1   4
ATOM      3  C   LIG    1       29.364 -20.424   8.043  0.00  0.00    +0.246 C 
ATOM      4  N   LIG    1       27.983 -20.284   8.063  0.00  0.00    -0.249 N 
ATOM      5  H   LIG    1       27.602 -19.419   7.666  0.00  0.00    +0.169 HD
ATOM      6  O   LIG    1       29.977 -21.359   8.561  0.00  0.00    -0.273 OA
BRANCH   3   7
ATOM      7  CA  LIG    1       30.016 -19.325   7.189  0.00  0.00    +0.165 C 
BRANCH   7   8
ATOM      8  N   LIG    1       31.436 -19.678   6.884  0.00  0.00    -0.318 NA
ATOM      9  H1  LIG    1       32.024 -19.249   7.604  0.00  0.00    +0.119 HD
ATOM     10  H2  LIG    1       31.528 -20.683   7.074  0.00  0.00    +0.119 HD
ENDBRANCH   7   8
BRANCH   7  11
ATOM     11  C   LIG    1       29.243 -19.025   5.902  0.00  0.00    +0.183 C 
BRANCH  11  12
ATOM     12  O   LIG    1       29.936 -18.021   5.151  0.00  0.00    -0.393 OA
ATOM     13  H   LIG    1       30.771 -18.417   4.841  0.00  0.00    +0.209 HD
ENDBRANCH  11  12
ENDBRANCH   7  11
ENDBRANCH   3   7
ENDBRANCH   1   4
BRANCH   1  14
ATOM     14  C   LIG    1       25.755 -21.142   8.169  0.00  0.00    +0.140 C 
BRANCH  14  15
ATOM     15  C   LIG    1       25.234 -22.381   7.464  0.00  0.00    +0.013 A 
ATOM     16  C   LIG    1       23.857 -22.537   7.271  0.00  0.00    +0.167 A 
ATOM     17  C   LIG    1       23.336 -23.694   6.700  0.00  0.00    +0.201 A 
ATOM     18  C   LIG    1       24.178 -24.713   6.277  0.00  0.00    +0.162 A 
ATOM     19  C   LIG    1       25.551 -24.596   6.455  0.00  0.00    +0.050 A 
ATOM     20  C   LIG    1       26.071 -23.444   7.067  0.00  0.00    +0.012 A 
BRANCH  16  21
ATOM     21  O   LIG    1       22.986 -21.549   7.648  0.00  0.00    -0.503 OA
ATOM     22  H   LIG    1       23.545 -20.749   7.727  0.00  0.00    +0.292 HD
ENDBRANCH  16  21
BRANCH  17  23
ATOM     23  O   LIG    1       21.978 -23.815   6.573  0.00  0.00    -0.501 OA
ATOM     24  H   LIG    1       21.625 -23.026   7.034  0.00  0.00    +0.292 HD
ENDBRANCH  17  23
BRANCH  18  25
ATOM     25  O   LIG    1       23.605 -25.808   5.694  0.00  0.00    -0.503 OA
ATOM     26  H   LIG    1       23.048 -26.248   6.361  0.00  0.00    +0.292 HD
ENDBRANCH  18  25
ENDBRANCH  14  15
ENDBRANCH   1  14
TORSDOF 10
ENDMDL
MODEL 6
REMARK VINA RESULT:      -7.5      4.055      6.559
REMARK  Name = *****
REMARK                            x       y       z     vdW  Elec       q    Type
REMARK                         _______ _______ _______ _____ _____    ______ ____
ROOT
ATOM      1  N   LIG    1       23.020 -21.729   5.211  0.00  0.00    -0.236 NA
ATOM      2  H   LIG    1       22.392 -21.569   6.011  0.00  0.00    +0.145 HD
ENDROOT
BRANCH   1   4
ATOM      3  C   LIG    1       23.311 -23.878   6.357  0.00  0.00    +0.246 C 
ATOM      4  N   LIG    1       23.767 -22.887   5.497  0.00  0.00    -0.249 N 
ATOM      5  H   LIG    1       24.718 -22.998   5.131  0.00  0.00    +0.169 HD
ATOM      6  O   LIG    1       22.230 -23.843   6.948  0.00  0.00    -0.273 OA
BRANCH   3   7
ATOM      7  CA  LIG    1       24.275 -25.075   6.379  0.00  0.00    +0.165 C 
BRANCH   7   8
ATOM      8  N   LIG    1       23.769 -26.166   5.491  0.00  0.00    -0.318 NA
ATOM      9  H1  LIG    1       24.413 -26.245   4.699  0.00  0.00    +0.119 HD
ATOM     10  H2  LIG    1       23.918 -27.043   6.003  0.00  0.00    +0.119 HD
ENDBRANCH   7   8
BRANCH   7  11
ATOM     11  C   LIG    1       25.711 -24.696   6.010  0.00  0.00    +0.183 C 
BRANCH  11  12
ATOM     12  O   LIG    1       26.245 -23.817   7.008  0.00  0.00    -0.393 OA
ATOM     13  H   LIG    1       25.787 -22.962   6.914  0.00  0.00    +0.209 HD
ENDBRANCH  11  12
ENDBRANCH   7  11
ENDBRANCH   3   7
ENDBRANCH   1   4
BRANCH   1  14
ATOM     14  C   LIG    1       23.879 -20.536   5.086  0.00  0.00    +0.140 C 
BRANCH  14  15
ATOM     15  C   LIG    1       25.134 -20.523   5.940  0.00  0.00    +0.013 A 
ATOM     16  C   LIG    1       25.020 -20.607   7.332  0.00  0.00    +0.167 A 
ATOM     17  C   LIG    1       26.141 -20.519   8.152  0.00  0.00    +0.201 A 
ATOM     18  C   LIG    1       27.408 -20.378   7.604  0.00  0.00    +0.162 A 
ATOM     19  C   LIG    1       27.561 -20.287   6.226  0.00  0.00    +0.050 A 
ATOM     20  C   LIG    1       26.424 -20.338   5.402  0.00  0.00    +0.012 A 
BRANCH  16  21
ATOM     21  O   LIG    1       23.795 -20.772   7.921  0.00  0.00    -0.503 OA
ATOM     22  H   LIG    1       23.269 -20.009   7.606  0.00  0.00    +0.292 HD
ENDBRANCH  16  21
BRANCH  17  23
ATOM     23  O   LIG    1       25.971 -20.563   9.511  0.00  0.00    -0.501 OA
ATOM     24  H   LIG    1       25.173 -20.017   9.667  0.00  0.00    +0.292 HD
ENDBRANCH  17  23
BRANCH  18  25
ATOM     25  O   LIG    1       28.470 -20.331   8.463  0.00  0.00    -0.503 OA
ATOM     26  H   LIG    1       29.281 -20.227   7.935  0.00  0.00    +0.292 HD
ENDBRANCH  18  25
ENDBRANCH  14  15
ENDBRANCH   1  14
TORSDOF 10
ENDMDL
MODEL 7
REMARK VINA RESULT:      -7.4      2.436      2.731
REMARK  Name = *****
REMARK                            x       y       z     vdW  Elec       q    Type
REMARK                         _______ _______ _______ _____ _____    ______ ____
ROOT
ATOM      1  N   LIG    1       27.199 -20.417   8.473  0.00  0.00    -0.236 NA
ATOM      2  H   LIG    1       26.972 -19.933   9.353  0.00  0.00    +0.145 HD
ENDROOT
BRANCH   1   4
ATOM      3  C   LIG    1       29.603 -20.352   7.993  0.00  0.00    +0.246 C 
ATOM      4  N   LIG    1       28.337 -19.786   7.936  0.00  0.00    -0.249 N 
ATOM      5  H   LIG    1       28.274 -18.839   7.548  0.00  0.00    +0.169 HD
ATOM      6  O   LIG    1       29.857 -21.441   8.512  0.00  0.00    -0.273 OA
BRANCH   3   7
ATOM      7  CA  LIG    1       30.623 -19.501   7.219  0.00  0.00    +0.165 C 
BRANCH   7   8
ATOM      8  N   LIG    1       29.919 -18.499   6.362  0.00  0.00    -0.318 NA
ATOM      9  H1  LIG    1       29.947 -18.843   5.397  0.00  0.00    +0.119 HD
ATOM     10  H2  LIG    1       28.924 -18.564   6.605  0.00  0.00    +0.119 HD
ENDBRANCH   7   8
BRANCH   7  11
ATOM     11  C   LIG    1       31.646 -18.815   8.128  0.00  0.00    +0.183 C 
BRANCH  11  12
ATOM     12  O   LIG    1       32.031 -19.713   9.176  0.00  0.00    -0.393 OA
ATOM     13  H   LIG    1       32.516 -19.190   9.840  0.00  0.00    +0.209 HD
ENDBRANCH  11  12
ENDBRANCH   7  11
ENDBRANCH   3   7
ENDBRANCH   1   4
BRANCH   1  14
ATOM     14  C   LIG    1       26.026 -20.285   7.588  0.00  0.00    +0.140 C 
BRANCH  14  15
ATOM     15  C   LIG    1       25.255 -21.562   7.304  0.00  0.00    +0.013 A 
ATOM     16  C   LIG    1       25.951 -22.721   6.946  0.00  0.00    +0.167 A 
ATOM     17  C   LIG    1       25.276 -23.888   6.602  0.00  0.00    +0.201 A 
ATOM     18  C   LIG    1       23.890 -23.939   6.639  0.00  0.00    +0.162 A 
ATOM     19  C   LIG    1       23.164 -22.807   6.987  0.00  0.00    +0.050 A 
ATOM     20  C   LIG    1       23.847 -21.619   7.296  0.00  0.00    +0.012 A 
BRANCH  16  21
ATOM     21  O   LIG    1       27.320 -22.731   6.919  0.00  0.00    -0.503 OA
ATOM     22  H   LIG    1       27.548 -22.417   6.019  0.00  0.00    +0.292 HD
ENDBRANCH  16  21
BRANCH  17  23
ATOM     23  O   LIG    1       26.003 -24.984   6.216  0.00  0.00    -0.501 OA
ATOM     24  H   LIG    1       26.909 -24.790   6.532  0.00  0.00    +0.292 HD
ENDBRANCH  17  23
BRANCH  18  25
ATOM     25  O   LIG    1       23.289 -25.126   6.322  0.00  0.00    -0.503 OA
ATOM     26  H   LIG    1       23.534 -25.779   7.002  0.00  0.00    +0.292 HD
ENDBRANCH  18  25
ENDBRANCH  14  15
ENDBRANCH   1  14
TORSDOF 10
ENDMDL
MODEL 8
REMARK VINA RESULT:      -7.3      2.566      7.018
REMARK  Name = *****
REMARK                            x       y       z     vdW  Elec       q    Type
REMARK                         _______ _______ _______ _____ _____    ______ ____
ROOT
ATOM      1  N   LIG    1       26.311 -20.323   6.573  0.00  0.00    -0.236 NA
ATOM      2  H   LIG    1       26.415 -20.109   7.575  0.00  0.00    +0.145 HD
ENDROOT
BRANCH   1   4
ATOM      3  C   LIG    1       24.721 -22.064   7.247  0.00  0.00    +0.246 C 
ATOM      4  N   LIG    1       25.795 -21.629   6.482  0.00  0.00    -0.249 N 
ATOM      5  H   LIG    1       26.253 -22.331   5.891  0.00  0.00    +0.169 HD
ATOM      6  O   LIG    1       24.126 -21.368   8.071  0.00  0.00    -0.273 OA
BRANCH   3   7
ATOM      7  CA  LIG    1       24.299 -23.486   6.845  0.00  0.00    +0.165 C 
BRANCH   7   8
ATOM      8  N   LIG    1       22.841 -23.522   6.515  0.00  0.00    -0.318 NA
ATOM      9  H1  LIG    1       22.538 -22.558   6.348  0.00  0.00    +0.119 HD
ATOM     10  H2  LIG    1       22.769 -23.955   5.587  0.00  0.00    +0.119 HD
ENDBRANCH   7   8
BRANCH   7  11
ATOM     11  C   LIG    1       25.131 -24.057   5.694  0.00  0.00    +0.183 C 
BRANCH  11  12
ATOM     12  O   LIG    1       24.698 -23.476   4.458  0.00  0.00    -0.393 OA
ATOM     13  H   LIG    1       24.502 -22.538   4.633  0.00  0.00    +0.209 HD
ENDBRANCH  11  12
ENDBRANCH   7  11
ENDBRANCH   3   7
ENDBRANCH   1   4
BRANCH   1  14
ATOM     14  C   LIG    1       27.650 -20.215   5.962  0.00  0.00    +0.140 C 
BRANCH  14  15
ATOM     15  C   LIG    1       28.829 -20.342   6.910  0.00  0.00    +0.013 A 
ATOM     16  C   LIG    1       29.863 -19.402   6.854  0.00  0.00    +0.167 A 
ATOM     17  C   LIG    1       30.996 -19.530   7.651  0.00  0.00    +0.201 A 
ATOM     18  C   LIG    1       31.113 -20.581   8.548  0.00  0.00    +0.162 A 
ATOM     19  C   LIG    1       30.109 -21.538   8.630  0.00  0.00    +0.050 A 
ATOM     20  C   LIG    1       28.984 -21.428   7.797  0.00  0.00    +0.012 A 
BRANCH  16  21
ATOM     21  O   LIG    1       29.784 -18.331   6.004  0.00  0.00    -0.503 OA
ATOM     22  H   LIG    1       29.034 -17.803   6.346  0.00  0.00    +0.292 HD
ENDBRANCH  16  21
BRANCH  17  23
ATOM     23  O   LIG    1       32.000 -18.605   7.527  0.00  0.00    -0.501 OA
ATOM     24  H   LIG    1       31.547 -17.810   7.177  0.00  0.00    +0.292 HD
ENDBRANCH  17  23
BRANCH  18  25
ATOM     25  O   LIG    1       32.237 -20.631   9.325  0.00  0.00    -0.503 OA
ATOM     26  H   LIG    1       32.745 -19.814   9.173  0.00  0.00    +0.292 HD
ENDBRANCH  18  25
ENDBRANCH  14  15
ENDBRANCH   1  14
TORSDOF 10
ENDMDL
MODEL 9
REMARK VINA RESULT:      -7.3      5.122      6.369
REMARK  Name = *****
REMARK                            x       y       z     vdW  Elec       q    Type
REMARK                         _______ _______ _______ _____ _____    ______ ____
ROOT
ATOM      1  N   LIG    1       22.817 -24.068   6.389  0.00  0.00    -0.236 NA
ATOM      2  H   LIG    1       21.975 -24.301   6.934  0.00  0.00    +0.145 HD
ENDROOT
BRANCH   1   4
ATOM      3  C   LIG    1       24.699 -25.417   5.581  0.00  0.00    +0.246 C 
ATOM      4  N   LIG    1       23.703 -25.154   6.513  0.00  0.00    -0.249 N 
ATOM      5  H   LIG    1       23.588 -25.837   7.269  0.00  0.00    +0.169 HD
ATOM      6  O   LIG    1       24.900 -24.744   4.569  0.00  0.00    -0.273 OA
BRANCH   3   7
ATOM      7  CA  LIG    1       25.587 -26.585   6.040  0.00  0.00    +0.165 C 
BRANCH   7   8
ATOM      8  N   LIG    1       24.755 -27.656   6.668  0.00  0.00    -0.318 NA
ATOM      9  H1  LIG    1       24.896 -27.604   7.681  0.00  0.00    +0.119 HD
ATOM     10  H2  LIG    1       23.778 -27.363   6.551  0.00  0.00    +0.119 HD
ENDBRANCH   7   8
BRANCH   7  11
ATOM     11  C   LIG    1       26.453 -27.158   4.915  0.00  0.00    +0.183 C 
BRANCH  11  12
ATOM     12  O   LIG    1       27.837 -27.002   5.251  0.00  0.00    -0.393 OA
ATOM     13  H   LIG    1       27.909 -26.216   5.822  0.00  0.00    +0.209 HD
ENDBRANCH  11  12
ENDBRANCH   7  11
ENDBRANCH   3   7
ENDBRANCH   1   4
BRANCH   1  14
ATOM     14  C   LIG    1       23.379 -22.830   6.963  0.00  0.00    +0.140 C 
BRANCH  14  15
ATOM     15  C   LIG    1       23.617 -21.689   5.990  0.00  0.00    +0.013 A 
ATOM     16  C   LIG    1       24.917 -21.420   5.549  0.00  0.00    +0.167 A 
ATOM     17  C   LIG    1       25.185 -20.336   4.719  0.00  0.00    +0.201 A 
ATOM     18  C   LIG    1       24.159 -19.510   4.282  0.00  0.00    +0.162 A 
ATOM     19  C   LIG    1       22.855 -19.743   4.702  0.00  0.00    +0.050 A 
ATOM     20  C   LIG    1       22.593 -20.816   5.570  0.00  0.00    +0.012 A 
BRANCH  16  21
ATOM     21  O   LIG    1       25.961 -22.220   5.931  0.00  0.00    -0.503 OA
ATOM     22  H   LIG    1       25.947 -22.186   6.909  0.00  0.00    +0.292 HD
ENDBRANCH  16  21
BRANCH  17  23
ATOM     23  O   LIG    1       26.482 -20.090   4.351  0.00  0.00    -0.501 OA
ATOM     24  H   LIG    1       26.467 -20.159   3.374  0.00  0.00    +0.292 HD
ENDBRANCH  17  23
BRANCH  18  25
ATOM     25  O   LIG    1       24.486 -18.482   3.443  0.00  0.00    -0.503 OA
ATOM     26  H   LIG    1       23.660 -18.121   3.073  0.00  0.00    +0.292 HD
ENDBRANCH  18  25
ENDBRANCH  14  15
ENDBRANCH   1  14
TORSDOF 10
ENDMDL
