MODEL 1
REMARK VINA RESULT:      -6.6      0.000      0.000
REMARK  Name = *****
REMARK                            x       y       z     vdW  Elec       q    Type
REMARK                         _______ _______ _______ _____ _____    ______ ____
ROOT
ATOM      1  C   LIG    1       27.028 -20.593   6.439  0.00  0.00    +0.048 C 
ATOM      2  C   LIG    1       25.931 -20.324   5.455  0.00  0.00    -0.009 A 
ATOM      3  C   LIG    1       24.645 -20.879   5.582  0.00  0.00    +0.126 A 
ATOM      4  C   LIG    1       23.590 -20.397   4.790  0.00  0.00    -0.009 A 
ATOM      5  C   LIG    1       22.149 -20.751   5.049  0.00  0.00    +0.048 C 
ATOM      6  C   LIG    1       23.872 -19.521   3.731  0.00  0.00    +0.007 A 
ATOM      7  C   LIG    1       25.177 -19.078   3.510  0.00  0.00    +0.001 A 
ATOM      8  C   LIG    1       26.188 -19.454   4.385  0.00  0.00    +0.007 A 
ENDROOT
BRANCH   3   9
ATOM      9  O   LIG    1       24.427 -21.857   6.527  0.00  0.00    -0.490 OA
BRANCH   9  10
ATOM     10  C   LIG    1       24.712 -23.165   5.981  0.00  0.00    +0.247 C 
BRANCH  10  11
ATOM     11  C   LIG    1       23.848 -24.237   6.686  0.00  0.00    +0.085 C 
ATOM     12  C   LIG    1       24.064 -25.612   6.054  0.00  0.00    +0.027 C 
BRANCH  11  13
ATOM     13  N   LIG    1       22.412 -23.917   6.626  0.00  0.00    -0.325 NA
ATOM     14  H   LIG    1       22.317 -22.900   6.612  0.00  0.00    +0.119 HD
ATOM     15  H   LIG    1       22.018 -24.246   5.746  0.00  0.00    +0.119 HD
ENDBRANCH  11  13
ENDBRANCH  10  11
ENDBRANCH   9  10
ENDBRANCH   3   9
TORSDOF 4
ENDMDL
MODEL 2
REMARK VINA RESULT:      -6.5      1.453      2.575
REMARK  Name = *****
REMARK                            x       y       z     vdW  Elec       q    Type
REMARK                         _______ _______ _______ _____ _____    ______ ____
ROOT
ATOM      1  C   LIG    1       25.893 -21.110   8.795  0.00  0.00    +0.048 C 
ATOM      2  C   LIG    1       26.470 -20.703   7.474  0.00  0.00    -0.009 A 
ATOM      3  C   LIG    1       25.712 -20.684   6.290  0.00  0.00    +0.126 A 
ATOM      4  C   LIG    1       26.219 -20.055   5.141  0.00  0.00    -0.009 A 
ATOM      5  C   LIG    1       25.373 -19.765   3.929  0.00  0.00    +0.048 C 
ATOM      6  C   LIG    1       27.561 -19.643   5.120  0.00  0.00    +0.007 A 
ATOM      7  C   LIG    1       28.362 -19.791   6.253  0.00  0.00    +0.001 A 
ATOM      8  C   LIG    1       27.809 -20.289   7.426  0.00  0.00    +0.007 A 
ENDROOT
BRANCH   3   9
ATOM      9  O   LIG    1       24.452 -21.240   6.290  0.00  0.00    -0.490 OA
BRANCH   9  10
ATOM     10  C   LIG    1       24.470 -22.544   5.666  0.00  0.00    +0.247 C 
BRANCH  10  11
ATOM     11  C   LIG    1       24.339 -23.651   6.738  0.00  0.00    +0.085 C 
ATOM     12  C   LIG    1       25.614 -24.492   6.811  0.00  0.00    +0.027 C 
BRANCH  11  13
ATOM     13  N   LIG    1       23.203 -24.549   6.472  0.00  0.00    -0.325 NA
ATOM     14  H   LIG    1       22.870 -24.361   5.524  0.00  0.00    +0.119 HD
ATOM     15  H   LIG    1       23.518 -25.518   6.470  0.00  0.00    +0.119 HD
ENDBRANCH  11  13
ENDBRANCH  10  11
ENDBRANCH   9  10
ENDBRANCH   3   9
TORSDOF 4
ENDMDL
MODEL 3
REMARK VINA RESULT:      -6.3      2.112      3.342
REMARK  Name = *****
REMARK                            x       y       z     vdW  Elec       q    Type
REMARK                         _______ _______ _______ _____ _____    ______ ____
ROOT
ATOM      1  C   LIG    1       23.031 -22.136   6.550  0.00  0.00    +0.048 C 
ATOM      2  C   LIG    1       23.242 -20.920   5.701  0.00  0.00    -0.009 A 
ATOM      3  C   LIG    1       24.510 -20.536   5.228  0.00  0.00    +0.126 A 
ATOM      4  C   LIG    1       24.620 -19.549   4.235  0.00  0.00    -0.009 A 
ATOM      5  C   LIG    1       25.905 -19.275   3.498  0.00  0.00    +0.048 C 
ATOM      6  C   LIG    1       23.486 -18.803   3.880  0.00  0.00    +0.007 A 
ATOM      7  C   LIG    1       22.246 -19.087   4.455  0.00  0.00    +0.001 A 
ATOM      8  C   LIG    1       22.124 -20.156   5.334  0.00  0.00    +0.007 A 
ENDROOT
BRANCH   3   9
ATOM      9  O   LIG    1       25.628 -21.178   5.712  0.00  0.00    -0.490 OA
BRANCH   9  10
ATOM     10  C   LIG    1       26.182 -20.457   6.837  0.00  0.00    +0.247 C 
BRANCH  10  11
ATOM     11  C   LIG    1       26.552 -21.442   7.971  0.00  0.00    +0.085 C 
ATOM     12  C   LIG    1       26.256 -22.884   7.557  0.00  0.00    +0.027 C 
BRANCH  11  13
ATOM     13  N   LIG    1       25.821 -21.155   9.216  0.00  0.00    -0.325 NA
ATOM     14  H   LIG    1       26.318 -21.609   9.985  0.00  0.00    +0.119 HD
ATOM     15  H   LIG    1       25.852 -20.156   9.415  0.00  0.00    +0.119 HD
ENDBRANCH  11  13
ENDBRANCH  10  11
ENDBRANCH   9  10
ENDBRANCH   3   9
TORSDOF 4
ENDMDL
MODEL 4
REMARK VINA RESULT:      -6.3      4.019      5.602
REMARK  Name = *****
REMARK                            x       y       z     vdW  Elec       q    Type
REMARK                         _______ _______ _______ _____ _____    ______ ____
ROOT
ATOM      1  C   LIG    1       29.528 -18.767   5.912  0.00  0.00    +0.048 C 
ATOM      2  C   LIG    1       28.246 -19.529   6.059  0.00  0.00    -0.009 A 
ATOM      3  C   LIG    1       27.860 -20.137   7.266  0.00  0.00    +0.126 A 
ATOM      4  C   LIG    1       26.547 -20.611   7.426  0.00  0.00    -0.009 A 
ATOM      5  C   LIG    1       25.989 -21.030   8.760  0.00  0.00    +0.048 C 
ATOM      6  C   LIG    1       25.699 -20.671   6.310  0.00  0.00    +0.007 A 
ATOM      7  C   LIG    1       26.130 -20.197   5.070  0.00  0.00    +0.001 A 
ATOM      8  C   LIG    1       27.381 -19.605   4.957  0.00  0.00    +0.007 A 
ENDROOT
BRANCH   3   9
ATOM      9  O   LIG    1       28.767 -20.211   8.300  0.00  0.00    -0.490 OA
BRANCH   9  10
ATOM     10  C   LIG    1       29.640 -21.352   8.132  0.00  0.00    +0.247 C 
BRANCH  10  11
ATOM     11  C   LIG    1       30.895 -21.198   9.022  0.00  0.00    +0.085 C 
ATOM     12  C   LIG    1       31.509 -19.807   8.863  0.00  0.00    +0.027 C 
BRANCH  11  13
ATOM     13  N   LIG    1       31.925 -22.201   8.706  0.00  0.00    -0.325 NA
ATOM     14  H   LIG    1       31.547 -23.123   8.934  0.00  0.00    +0.119 HD
ATOM     15  H   LIG    1       32.102 -22.214   7.702  0.00  0.00    +0.119 HD
ENDBRANCH  11  13
ENDBRANCH  10  11
ENDBRANCH   9  10
ENDBRANCH   3   9
TORSDOF 4
ENDMDL
MODEL 5
REMARK VINA RESULT:      -6.1      1.691      4.893
REMARK  Name = *****
REMARK                            x       y       z     vdW  Elec       q    Type
REMARK                         _______ _______ _______ _____ _____    ______ ____
ROOT
ATOM      1  C   LIG    1       22.080 -23.133   6.680  0.00  0.00    +0.048 C 
ATOM      2  C   LIG    1       23.517 -23.559   6.639  0.00  0.00    -0.009 A 
ATOM      3  C   LIG    1       24.580 -22.659   6.831  0.00  0.00    +0.126 A 
ATOM      4  C   LIG    1       25.881 -23.144   7.040  0.00  0.00    -0.009 A 
ATOM      5  C   LIG    1       27.012 -22.267   7.509  0.00  0.00    +0.048 C 
ATOM      6  C   LIG    1       26.146 -24.507   6.839  0.00  0.00    +0.007 A 
ATOM      7  C   LIG    1       25.113 -25.385   6.506  0.00  0.00    +0.001 A 
ATOM      8  C   LIG    1       23.807 -24.916   6.437  0.00  0.00    +0.007 A 
ENDROOT
BRANCH   3   9
ATOM      9  O   LIG    1       24.317 -21.308   6.866  0.00  0.00    -0.490 OA
BRANCH   9  10
ATOM     10  C   LIG    1       24.980 -20.632   5.772  0.00  0.00    +0.247 C 
BRANCH  10  11
ATOM     11  C   LIG    1       23.951 -20.238   4.687  0.00  0.00    +0.085 C 
ATOM     12  C   LIG    1       22.640 -19.777   5.321  0.00  0.00    +0.027 C 
BRANCH  11  13
ATOM     13  N   LIG    1       23.659 -21.353   3.770  0.00  0.00    -0.325 NA
ATOM     14  H   LIG    1       22.951 -21.036   3.105  0.00  0.00    +0.119 HD
ATOM     15  H   LIG    1       24.484 -21.573   3.214  0.00  0.00    +0.119 HD
ENDBRANCH  11  13
ENDBRANCH  10  11
ENDBRANCH   9  10
ENDBRANCH   3   9
TORSDOF 4
ENDMDL
MODEL 6
REMARK VINA RESULT:      -6.1      2.280      2.985
REMARK  Name = *****
REMARK                            x       y       z     vdW  Elec       q    Type
REMARK                         _______ _______ _______ _____ _____    ______ ____
ROOT
ATOM      1  C   LIG    1       26.208 -19.189   3.833  0.00  0.00    +0.048 C 
ATOM      2  C   LIG    1       24.839 -19.562   4.317  0.00  0.00    -0.009 A 
ATOM      3  C   LIG    1       24.628 -20.501   5.342  0.00  0.00    +0.126 A 
ATOM      4  C   LIG    1       23.360 -20.623   5.933  0.00  0.00    -0.009 A 
ATOM      5  C   LIG    1       23.121 -21.407   7.196  0.00  0.00    +0.048 C 
ATOM      6  C   LIG    1       22.266 -19.965   5.351  0.00  0.00    +0.007 A 
ATOM      7  C   LIG    1       22.448 -19.140   4.240  0.00  0.00    +0.001 A 
ATOM      8  C   LIG    1       23.729 -18.919   3.750  0.00  0.00    +0.007 A 
ENDROOT
BRANCH   3   9
ATOM      9  O   LIG    1       25.690 -21.254   5.791  0.00  0.00    -0.490 OA
BRANCH   9  10
ATOM     10  C   LIG    1       26.464 -20.515   6.764  0.00  0.00    +0.247 C 
BRANCH  10  11
ATOM     11  C   LIG    1       26.695 -21.377   8.027  0.00  0.00    +0.085 C 
ATOM     12  C   LIG    1       26.244 -22.818   7.793  0.00  0.00    +0.027 C 
BRANCH  11  13
ATOM     13  N   LIG    1       25.975 -20.848   9.198  0.00  0.00    -0.325 NA
ATOM     14  H   LIG    1       25.514 -21.632   9.664  0.00  0.00    +0.119 HD
ATOM     15  H   LIG    1       26.639 -20.473   9.875  0.00  0.00    +0.119 HD
ENDBRANCH  11  13
ENDBRANCH  10  11
ENDBRANCH   9  10
ENDBRANCH   3   9
TORSDOF 4
ENDMDL
MODEL 7
REMARK VINA RESULT:      -6.1      2.995      4.757
REMARK  Name = *****
REMARK                            x       y       z     vdW  Elec       q    Type
REMARK                         _______ _______ _______ _____ _____    ______ ____
ROOT
ATOM      1  C   LIG    1       25.480 -19.706   3.597  0.00  0.00    +0.048 C 
ATOM      2  C   LIG    1       24.865 -20.181   4.879  0.00  0.00    -0.009 A 
ATOM      3  C   LIG    1       25.632 -20.660   5.955  0.00  0.00    +0.126 A 
ATOM      4  C   LIG    1       25.037 -20.846   7.214  0.00  0.00    -0.009 A 
ATOM      5  C   LIG    1       25.837 -21.100   8.464  0.00  0.00    +0.048 C 
ATOM      6  C   LIG    1       23.642 -20.762   7.332  0.00  0.00    +0.007 A 
ATOM      7  C   LIG    1       22.859 -20.426   6.226  0.00  0.00    +0.001 A 
ATOM      8  C   LIG    1       23.471 -20.109   5.021  0.00  0.00    +0.007 A 
ENDROOT
BRANCH   3   9
ATOM      9  O   LIG    1       26.978 -20.888   5.771  0.00  0.00    -0.490 OA
BRANCH   9  10
ATOM     10  C   LIG    1       27.726 -19.657   5.901  0.00  0.00    +0.247 C 
BRANCH  10  11
ATOM     11  C   LIG    1       28.923 -19.859   6.860  0.00  0.00    +0.085 C 
ATOM     12  C   LIG    1       30.130 -19.041   6.402  0.00  0.00    +0.027 C 
BRANCH  11  13
ATOM     13  N   LIG    1       29.326 -21.272   6.952  0.00  0.00    -0.325 NA
ATOM     14  H   LIG    1       29.530 -21.604   6.008  0.00  0.00    +0.119 HD
ATOM     15  H   LIG    1       30.200 -21.352   7.470  0.00  0.00    +0.119 HD
ENDBRANCH  11  13
ENDBRANCH  10  11
ENDBRANCH   9  10
ENDBRANCH   3   9
TORSDOF 4
ENDMDL
MODEL 8
REMARK VINA RESULT:      -6.0      1.361      2.997
REMARK  Name = *****
REMARK                            x       y       z     vdW  Elec       q    Type
REMARK                         _______ _______ _______ _____ _____    ______ ____
ROOT
ATOM      1  C   LIG    1       25.414 -20.068   4.083  0.00  0.00    +0.048 C 
ATOM      2  C   LIG    1       26.173 -20.152   5.372  0.00  0.00    -0.009 A 
ATOM      3  C   LIG    1       25.596 -20.634   6.561  0.00  0.00    +0.126 A 
ATOM      4  C   LIG    1       26.410 -20.935   7.665  0.00  0.00    -0.009 A 
ATOM      5  C   LIG    1       25.907 -21.693   8.866  0.00  0.00    +0.048 C 
ATOM      6  C   LIG    1       27.758 -20.548   7.649  0.00  0.00    +0.007 A 
ATOM      7  C   LIG    1       28.303 -19.936   6.520  0.00  0.00    +0.001 A 
ATOM      8  C   LIG    1       27.522 -19.769   5.383  0.00  0.00    +0.007 A 
ENDROOT
BRANCH   3   9
ATOM      9  O   LIG    1       24.237 -20.857   6.604  0.00  0.00    -0.490 OA
BRANCH   9  10
ATOM     10  C   LIG    1       23.891 -22.040   5.847  0.00  0.00    +0.247 C 
BRANCH  10  11
ATOM     11  C   LIG    1       23.595 -23.218   6.804  0.00  0.00    +0.085 C 
ATOM     12  C   LIG    1       24.583 -24.362   6.581  0.00  0.00    +0.027 C 
BRANCH  11  13
ATOM     13  N   LIG    1       22.229 -23.742   6.632  0.00  0.00    -0.325 NA
ATOM     14  H   LIG    1       22.302 -24.707   6.303  0.00  0.00    +0.119 HD
ATOM     15  H   LIG    1       21.759 -23.791   7.535  0.00  0.00    +0.119 HD
ENDBRANCH  11  13
ENDBRANCH  10  11
ENDBRANCH   9  10
ENDBRANCH   3   9
TORSDOF 4
ENDMDL
MODEL 9
REMARK VINA RESULT:      -6.0      2.660      4.566
REMARK  Name = *****
REMARK                            x       y       z     vdW  Elec       q    Type
REMARK                         _______ _______ _______ _____ _____    ______ ____
ROOT
ATOM      1  C   LIG    1       25.761 -23.329   7.528  0.00  0.00    +0.048 C 
ATOM      2  C   LIG    1       24.976 -22.283   6.796  0.00  0.00    -0.009 A 
ATOM      3  C   LIG    1       25.589 -21.260   6.050  0.00  0.00    +0.126 A 
ATOM      4  C   LIG    1       24.820 -20.469   5.180  0.00  0.00    -0.009 A 
ATOM      5  C   LIG    1       25.435 -19.542   4.165  0.00  0.00    +0.048 C 
ATOM      6  C   LIG    1       23.421 -20.560   5.225  0.00  0.00    +0.007 A 
ATOM      7  C   LIG    1       22.801 -21.479   6.073  0.00  0.00    +0.001 A 
ATOM      8  C   LIG    1       23.576 -22.352   6.827  0.00  0.00    +0.007 A 
ENDROOT
BRANCH   3   9
ATOM      9  O   LIG    1       26.951 -21.085   6.144  0.00  0.00    -0.490 OA
BRANCH   9  10
ATOM     10  C   LIG    1       27.287 -20.330   7.331  0.00  0.00    +0.247 C 
BRANCH  10  11
ATOM     11  C   LIG    1       28.785 -19.946   7.313  0.00  0.00    +0.085 C 
ATOM     12  C   LIG    1       29.115 -19.097   6.086  0.00  0.00    +0.027 C 
BRANCH  11  13
ATOM     13  N   LIG    1       29.660 -21.131   7.309  0.00  0.00    -0.325 NA
ATOM     14  H   LIG    1       30.087 -21.209   8.234  0.00  0.00    +0.119 HD
ATOM     15  H   LIG    1       29.103 -21.975   7.187  0.00  0.00    +0.119 HD
ENDBRANCH  11  13
ENDBRANCH  10  11
ENDBRANCH   9  10
ENDBRANCH   3   9
TORSDOF 4
ENDMDL
