MODEL 1
REMARK VINA RESULT:      -7.5      0.000      0.000
REMARK  Name = *****
REMARK                            x       y       z     vdW  Elec       q    Type
REMARK                         _______ _______ _______ _____ _____    ______ ____
ROOT
ATOM      1  C   LIG    1       26.273 -21.315   8.005  0.00  0.00    +0.165 C 
ENDROOT
BRANCH   1   4
ATOM      2  C   LIG    1       25.350 -24.764   6.621  0.00  0.00    +0.121 A 
ATOM      3  C   LIG    1       26.067 -23.645   7.061  0.00  0.00    +0.055 A 
ATOM      4  C   LIG    1       25.420 -22.438   7.407  0.00  0.00    +0.027 A 
ATOM      5  C   LIG    1       24.027 -22.359   7.223  0.00  0.00    +0.126 A 
ATOM      6  C   LIG    1       23.317 -23.480   6.761  0.00  0.00    +0.049 A 
ATOM      7  C   LIG    1       23.973 -24.675   6.468  0.00  0.00    +0.049 A 
BRANCH   2   9
ATOM      8  C   LIG    1       25.588 -26.445   4.991  0.00  0.00    +0.277 C 
ATOM      9  O   LIG    1       25.904 -25.973   6.297  0.00  0.00    -0.495 OA
ENDBRANCH   2   9
BRANCH   5  10
ATOM     10  O   LIG    1       23.432 -21.162   7.515  0.00  0.00    -0.495 OA
ATOM     11  C   LIG    1       23.065 -20.343   6.411  0.00  0.00    +0.277 C 
ENDBRANCH   5  10
ENDBRANCH   1   4
BRANCH   1  12
ATOM     12  O   LIG    1       25.842 -20.861   9.292  0.00  0.00    -0.386 OA
ATOM     13  H   LIG    1       24.969 -20.450   9.165  0.00  0.00    +0.210 HD
ENDBRANCH   1  12
BRANCH   1  14
ATOM     14  C   LIG    1       27.788 -21.629   8.069  0.00  0.00    +0.140 C 
BRANCH  14  15
ATOM     15  N   LIG    1       28.630 -20.659   7.381  0.00  0.00    -0.311 N 
ATOM     16  H   LIG    1       28.264 -20.277   6.510  0.00  0.00    +0.149 HD
ATOM     17  C   LIG    1       29.893 -20.331   7.811  0.00  0.00    +0.227 C 
ATOM     18  O   LIG    1       30.430 -20.832   8.816  0.00  0.00    -0.274 OA
BRANCH  17  19
ATOM     19  C   LIG    1       30.590 -19.263   6.949  0.00  0.00    +0.174 C 
BRANCH  19  20
ATOM     20  N   LIG    1       31.823 -18.784   7.601  0.00  0.00    -0.323 NA
ATOM     21  H   LIG    1       31.753 -18.993   8.600  0.00  0.00    +0.119 HD
ATOM     22  H   LIG    1       32.589 -19.384   7.284  0.00  0.00    +0.119 HD
ENDBRANCH  19  20
ENDBRANCH  17  19
ENDBRANCH  14  15
ENDBRANCH   1  14
TORSDOF 8
ENDMDL
MODEL 2
REMARK VINA RESULT:      -7.2      3.437      6.307
REMARK  Name = *****
REMARK                            x       y       z     vdW  Elec       q    Type
REMARK                         _______ _______ _______ _____ _____    ______ ____
ROOT
ATOM      1  C   LIG    1       24.283 -24.243   6.557  0.00  0.00    +0.165 C 
ENDROOT
BRANCH   1   4
ATOM      2  C   LIG    1       26.909 -21.681   7.652  0.00  0.00    +0.121 A 
ATOM      3  C   LIG    1       26.121 -22.834   7.556  0.00  0.00    +0.055 A 
ATOM      4  C   LIG    1       25.002 -22.899   6.695  0.00  0.00    +0.027 A 
ATOM      5  C   LIG    1       24.648 -21.736   5.984  0.00  0.00    +0.126 A 
ATOM      6  C   LIG    1       25.433 -20.577   6.102  0.00  0.00    +0.049 A 
ATOM      7  C   LIG    1       26.558 -20.552   6.925  0.00  0.00    +0.049 A 
BRANCH   2   9
ATOM      8  C   LIG    1       29.207 -21.180   7.745  0.00  0.00    +0.277 C 
ATOM      9  O   LIG    1       28.021 -21.555   8.440  0.00  0.00    -0.495 OA
ENDBRANCH   2   9
BRANCH   5  10
ATOM     10  O   LIG    1       23.530 -21.810   5.198  0.00  0.00    -0.495 OA
ATOM     11  C   LIG    1       22.557 -20.786   5.372  0.00  0.00    +0.277 C 
ENDBRANCH   5  10
ENDBRANCH   1   4
BRANCH   1  12
ATOM     12  O   LIG    1       22.855 -24.156   6.547  0.00  0.00    -0.386 OA
ATOM     13  H   LIG    1       22.539 -24.654   7.321  0.00  0.00    +0.210 HD
ENDBRANCH   1  12
BRANCH   1  14
ATOM     14  C   LIG    1       24.739 -25.090   5.343  0.00  0.00    +0.140 C 
BRANCH  14  15
ATOM     15  N   LIG    1       24.538 -26.525   5.504  0.00  0.00    -0.311 N 
ATOM     16  H   LIG    1       23.665 -26.814   5.943  0.00  0.00    +0.149 HD
ATOM     17  C   LIG    1       25.497 -27.451   5.178  0.00  0.00    +0.227 C 
ATOM     18  O   LIG    1       26.618 -27.154   4.725  0.00  0.00    -0.274 OA
BRANCH  17  19
ATOM     19  C   LIG    1       25.060 -28.910   5.403  0.00  0.00    +0.174 C 
BRANCH  19  20
ATOM     20  N   LIG    1       23.590 -29.029   5.377  0.00  0.00    -0.323 NA
ATOM     21  H   LIG    1       23.349 -29.819   4.774  0.00  0.00    +0.119 HD
ATOM     22  H   LIG    1       23.293 -29.337   6.306  0.00  0.00    +0.119 HD
ENDBRANCH  19  20
ENDBRANCH  17  19
ENDBRANCH  14  15
ENDBRANCH   1  14
TORSDOF 8
ENDMDL
MODEL 3
REMARK VINA RESULT:      -6.9      2.839      5.608
REMARK  Name = *****
REMARK                            x       y       z     vdW  Elec       q    Type
REMARK                         _______ _______ _______ _____ _____    ______ ____
ROOT
ATOM      1  C   LIG    1       24.486 -22.168   7.567  0.00  0.00    +0.165 C 
ENDROOT
BRANCH   1   4
ATOM      2  C   LIG    1       28.182 -21.178   7.728  0.00  0.00    +0.121 A 
ATOM      3  C   LIG    1       26.918 -21.694   8.040  0.00  0.00    +0.055 A 
ATOM      4  C   LIG    1       25.794 -21.453   7.218  0.00  0.00    +0.027 A 
ATOM      5  C   LIG    1       25.960 -20.606   6.105  0.00  0.00    +0.126 A 
ATOM      6  C   LIG    1       27.227 -20.077   5.811  0.00  0.00    +0.049 A 
ATOM      7  C   LIG    1       28.330 -20.366   6.613  0.00  0.00    +0.049 A 
BRANCH   2   9
ATOM      8  C   LIG    1       30.406 -20.530   8.141  0.00  0.00    +0.277 C 
ATOM      9  O   LIG    1       29.319 -21.394   8.458  0.00  0.00    -0.495 OA
ENDBRANCH   2   9
BRANCH   5  10
ATOM     10  O   LIG    1       24.844 -20.346   5.356  0.00  0.00    -0.495 OA
ATOM     11  C   LIG    1       25.033 -20.208   3.953  0.00  0.00    +0.277 C 
ENDBRANCH   5  10
ENDBRANCH   1   4
BRANCH   1  12
ATOM     12  O   LIG    1       23.342 -21.313   7.642  0.00  0.00    -0.386 OA
ATOM     13  H   LIG    1       23.547 -20.524   7.111  0.00  0.00    +0.210 HD
ENDBRANCH   1  12
BRANCH   1  14
ATOM     14  C   LIG    1       24.151 -23.370   6.649  0.00  0.00    +0.140 C 
BRANCH  14  15
ATOM     15  N   LIG    1       25.019 -24.525   6.833  0.00  0.00    -0.311 N 
ATOM     16  H   LIG    1       25.372 -24.683   7.777  0.00  0.00    +0.149 HD
ATOM     17  C   LIG    1       25.432 -25.319   5.791  0.00  0.00    +0.227 C 
ATOM     18  O   LIG    1       25.110 -25.123   4.605  0.00  0.00    -0.274 OA
BRANCH  17  19
ATOM     19  C   LIG    1       26.322 -26.500   6.219  0.00  0.00    +0.174 C 
BRANCH  19  20
ATOM     20  N   LIG    1       27.080 -27.031   5.071  0.00  0.00    -0.323 NA
ATOM     21  H   LIG    1       26.454 -27.634   4.533  0.00  0.00    +0.119 HD
ATOM     22  H   LIG    1       27.263 -26.249   4.438  0.00  0.00    +0.119 HD
ENDBRANCH  19  20
ENDBRANCH  17  19
ENDBRANCH  14  15
ENDBRANCH   1  14
TORSDOF 8
ENDMDL
MODEL 4
REMARK VINA RESULT:      -6.8      1.900      3.653
REMARK  Name = *****
REMARK                            x       y       z     vdW  Elec       q    Type
REMARK                         _______ _______ _______ _____ _____    ______ ____
ROOT
ATOM      1  C   LIG    1       26.899 -20.941   6.274  0.00  0.00    +0.165 C 
ENDROOT
BRANCH   1   4
ATOM      2  C   LIG    1       23.131 -20.698   5.633  0.00  0.00    +0.121 A 
ATOM      3  C   LIG    1       24.491 -20.391   5.760  0.00  0.00    +0.055 A 
ATOM      4  C   LIG    1       25.414 -21.314   6.300  0.00  0.00    +0.027 A 
ATOM      5  C   LIG    1       24.916 -22.537   6.787  0.00  0.00    +0.126 A 
ATOM      6  C   LIG    1       23.546 -22.830   6.675  0.00  0.00    +0.049 A 
ATOM      7  C   LIG    1       22.662 -21.920   6.097  0.00  0.00    +0.049 A 
BRANCH   2   9
ATOM      8  C   LIG    1       22.707 -18.760   4.367  0.00  0.00    +0.277 C 
ATOM      9  O   LIG    1       22.186 -19.869   5.094  0.00  0.00    -0.495 OA
ENDBRANCH   2   9
BRANCH   5  10
ATOM     10  O   LIG    1       25.822 -23.392   7.354  0.00  0.00    -0.495 OA
ATOM     11  C   LIG    1       25.897 -24.702   6.806  0.00  0.00    +0.277 C 
ENDBRANCH   5  10
ENDBRANCH   1   4
BRANCH   1  12
ATOM     12  O   LIG    1       27.288 -20.125   5.165  0.00  0.00    -0.386 OA
ATOM     13  H   LIG    1       27.010 -20.596   4.360  0.00  0.00    +0.210 HD
ENDBRANCH   1  12
BRANCH   1  14
ATOM     14  C   LIG    1       27.416 -20.287   7.580  0.00  0.00    +0.140 C 
BRANCH  14  15
ATOM     15  N   LIG    1       28.770 -19.755   7.487  0.00  0.00    -0.311 N 
ATOM     16  H   LIG    1       28.890 -18.918   6.918  0.00  0.00    +0.149 HD
ATOM     17  C   LIG    1       29.856 -20.381   8.048  0.00  0.00    +0.227 C 
ATOM     18  O   LIG    1       29.785 -21.453   8.676  0.00  0.00    -0.274 OA
BRANCH  17  19
ATOM     19  C   LIG    1       31.183 -19.626   7.852  0.00  0.00    +0.174 C 
BRANCH  19  20
ATOM     20  N   LIG    1       31.976 -19.625   9.095  0.00  0.00    -0.323 NA
ATOM     21  H   LIG    1       32.944 -19.404   8.850  0.00  0.00    +0.119 HD
ATOM     22  H   LIG    1       31.678 -18.816   9.646  0.00  0.00    +0.119 HD
ENDBRANCH  19  20
ENDBRANCH  17  19
ENDBRANCH  14  15
ENDBRANCH   1  14
TORSDOF 8
ENDMDL
MODEL 5
REMARK VINA RESULT:      -6.8      2.673      4.461
REMARK  Name = *****
REMARK                            x       y       z     vdW  Elec       q    Type
REMARK                         _______ _______ _______ _____ _____    ______ ____
ROOT
ATOM      1  C   LIG    1       22.934 -22.033   6.988  0.00  0.00    +0.165 C 
ENDROOT
BRANCH   1   4
ATOM      2  C   LIG    1       24.336 -25.539   6.356  0.00  0.00    +0.121 A 
ATOM      3  C   LIG    1       23.470 -24.466   6.594  0.00  0.00    +0.055 A 
ATOM      4  C   LIG    1       23.954 -23.168   6.874  0.00  0.00    +0.027 A 
ATOM      5  C   LIG    1       25.347 -22.994   6.986  0.00  0.00    +0.126 A 
ATOM      6  C   LIG    1       26.209 -24.080   6.765  0.00  0.00    +0.049 A 
ATOM      7  C   LIG    1       25.707 -25.342   6.447  0.00  0.00    +0.049 A 
BRANCH   2   9
ATOM      8  C   LIG    1       24.913 -27.590   5.356  0.00  0.00    +0.277 C 
ATOM      9  O   LIG    1       23.942 -26.813   6.050  0.00  0.00    -0.495 OA
ENDBRANCH   2   9
BRANCH   5  10
ATOM     10  O   LIG    1       25.787 -21.739   7.311  0.00  0.00    -0.495 OA
ATOM     11  C   LIG    1       27.196 -21.559   7.402  0.00  0.00    +0.277 C 
ENDBRANCH   5  10
ENDBRANCH   1   4
BRANCH   1  12
ATOM     12  O   LIG    1       23.267 -21.027   7.949  0.00  0.00    -0.386 OA
ATOM     13  H   LIG    1       22.522 -20.979   8.573  0.00  0.00    +0.210 HD
ENDBRANCH   1  12
BRANCH   1  14
ATOM     14  C   LIG    1       22.592 -21.344   5.643  0.00  0.00    +0.140 C 
BRANCH  14  15
ATOM     15  N   LIG    1       23.753 -20.883   4.893  0.00  0.00    -0.311 N 
ATOM     16  H   LIG    1       24.560 -21.506   4.879  0.00  0.00    +0.149 HD
ATOM     17  C   LIG    1       23.818 -19.642   4.309  0.00  0.00    +0.227 C 
ATOM     18  O   LIG    1       22.901 -18.802   4.371  0.00  0.00    -0.274 OA
BRANCH  17  19
ATOM     19  C   LIG    1       25.127 -19.378   3.544  0.00  0.00    +0.174 C 
BRANCH  19  20
ATOM     20  N   LIG    1       26.270 -20.020   4.219  0.00  0.00    -0.323 NA
ATOM     21  H   LIG    1       25.899 -20.683   4.903  0.00  0.00    +0.119 HD
ATOM     22  H   LIG    1       26.734 -20.618   3.531  0.00  0.00    +0.119 HD
ENDBRANCH  19  20
ENDBRANCH  17  19
ENDBRANCH  14  15
ENDBRANCH   1  14
TORSDOF 8
ENDMDL
MODEL 6
REMARK VINA RESULT:      -6.6      2.673      6.070
REMARK  Name = *****
REMARK                            x       y       z     vdW  Elec       q    Type
REMARK                         _______ _______ _______ _____ _____    ______ ____
ROOT
ATOM      1  C   LIG    1       25.707 -21.018   8.304  0.00  0.00    +0.165 C 
ENDROOT
BRANCH   1   4
ATOM      2  C   LIG    1       29.159 -19.579   7.484  0.00  0.00    +0.121 A 
ATOM      3  C   LIG    1       28.024 -20.030   8.167  0.00  0.00    +0.055 A 
ATOM      4  C   LIG    1       26.848 -20.413   7.483  0.00  0.00    +0.027 A 
ATOM      5  C   LIG    1       26.818 -20.254   6.084  0.00  0.00    +0.126 A 
ATOM      6  C   LIG    1       27.955 -19.782   5.408  0.00  0.00    +0.049 A 
ATOM      7  C   LIG    1       29.118 -19.453   6.102  0.00  0.00    +0.049 A 
BRANCH   2   9
ATOM      8  C   LIG    1       30.298 -17.997   8.802  0.00  0.00    +0.277 C 
ATOM      9  O   LIG    1       30.341 -19.221   8.075  0.00  0.00    -0.495 OA
ENDBRANCH   2   9
BRANCH   5  10
ATOM     10  O   LIG    1       25.649 -20.582   5.451  0.00  0.00    -0.495 OA
ATOM     11  C   LIG    1       25.397 -19.946   4.203  0.00  0.00    +0.277 C 
ENDBRANCH   5  10
ENDBRANCH   1   4
BRANCH   1  12
ATOM     12  O   LIG    1       24.396 -20.675   7.845  0.00  0.00    -0.386 OA
ATOM     13  H   LIG    1       24.189 -19.802   8.221  0.00  0.00    +0.210 HD
ENDBRANCH   1  12
BRANCH   1  14
ATOM     14  C   LIG    1       25.789 -22.556   8.475  0.00  0.00    +0.140 C 
BRANCH  14  15
ATOM     15  N   LIG    1       25.850 -23.296   7.221  0.00  0.00    -0.311 N 
ATOM     16  H   LIG    1       26.774 -23.419   6.810  0.00  0.00    +0.149 HD
ATOM     17  C   LIG    1       24.728 -23.731   6.559  0.00  0.00    +0.227 C 
ATOM     18  O   LIG    1       23.567 -23.531   6.963  0.00  0.00    -0.274 OA
BRANCH  17  19
ATOM     19  C   LIG    1       25.027 -24.516   5.270  0.00  0.00    +0.174 C 
BRANCH  19  20
ATOM     20  N   LIG    1       24.170 -25.713   5.171  0.00  0.00    -0.323 NA
ATOM     21  H   LIG    1       24.524 -26.408   5.830  0.00  0.00    +0.119 HD
ATOM     22  H   LIG    1       23.254 -25.464   5.553  0.00  0.00    +0.119 HD
ENDBRANCH  19  20
ENDBRANCH  17  19
ENDBRANCH  14  15
ENDBRANCH   1  14
TORSDOF 8
ENDMDL
MODEL 7
REMARK VINA RESULT:      -6.4      2.612      4.107
REMARK  Name = *****
REMARK                            x       y       z     vdW  Elec       q    Type
REMARK                         _______ _______ _______ _____ _____    ______ ____
ROOT
ATOM      1  C   LIG    1       28.538 -20.294   7.000  0.00  0.00    +0.165 C 
ENDROOT
BRANCH   1   4
ATOM      2  C   LIG    1       25.635 -19.891   4.536  0.00  0.00    +0.121 A 
ATOM      3  C   LIG    1       26.806 -19.678   5.273  0.00  0.00    +0.055 A 
ATOM      4  C   LIG    1       27.175 -20.525   6.342  0.00  0.00    +0.027 A 
ATOM      5  C   LIG    1       26.286 -21.554   6.706  0.00  0.00    +0.126 A 
ATOM      6  C   LIG    1       25.103 -21.748   5.975  0.00  0.00    +0.049 A 
ATOM      7  C   LIG    1       24.783 -20.927   4.895  0.00  0.00    +0.049 A 
BRANCH   2   9
ATOM      8  C   LIG    1       23.857 -18.754   3.496  0.00  0.00    +0.277 C 
ATOM      9  O   LIG    1       25.229 -19.133   3.471  0.00  0.00    -0.495 OA
ENDBRANCH   2   9
BRANCH   5  10
ATOM     10  O   LIG    1       26.641 -22.326   7.779  0.00  0.00    -0.495 OA
ATOM     11  C   LIG    1       25.944 -22.090   8.996  0.00  0.00    +0.277 C 
ENDBRANCH   5  10
ENDBRANCH   1   4
BRANCH   1  12
ATOM     12  O   LIG    1       29.439 -21.401   6.906  0.00  0.00    -0.386 OA
ATOM     13  H   LIG    1       29.136 -21.946   6.159  0.00  0.00    +0.210 HD
ENDBRANCH   1  12
BRANCH   1  14
ATOM     14  C   LIG    1       29.269 -19.014   6.524  0.00  0.00    +0.140 C 
BRANCH  14  15
ATOM     15  N   LIG    1       30.065 -18.360   7.555  0.00  0.00    -0.311 N 
ATOM     16  H   LIG    1       29.666 -17.521   7.974  0.00  0.00    +0.149 HD
ATOM     17  C   LIG    1       31.329 -18.777   7.895  0.00  0.00    +0.227 C 
ATOM     18  O   LIG    1       31.907 -19.738   7.355  0.00  0.00    -0.274 OA
BRANCH  17  19
ATOM     19  C   LIG    1       31.974 -17.959   9.028  0.00  0.00    +0.174 C 
BRANCH  19  20
ATOM     20  N   LIG    1       32.404 -16.634   8.543  0.00  0.00    -0.323 NA
ATOM     21  H   LIG    1       33.426 -16.621   8.530  0.00  0.00    +0.119 HD
ATOM     22  H   LIG    1       32.150 -16.575   7.554  0.00  0.00    +0.119 HD
ENDBRANCH  19  20
ENDBRANCH  17  19
ENDBRANCH  14  15
ENDBRANCH   1  14
TORSDOF 8
ENDMDL
MODEL 8
REMARK VINA RESULT:      -6.4      2.697      4.629
REMARK  Name = *****
REMARK                            x       y       z     vdW  Elec       q    Type
REMARK                         _______ _______ _______ _____ _____    ______ ____
ROOT
ATOM      1  C   LIG    1       29.435 -19.912   8.228  0.00  0.00    +0.165 C 
ENDROOT
BRANCH   1   4
ATOM      2  C   LIG    1       25.824 -20.990   7.552  0.00  0.00    +0.121 A 
ATOM      3  C   LIG    1       27.070 -20.787   8.155  0.00  0.00    +0.055 A 
ATOM      4  C   LIG    1       28.154 -20.220   7.448  0.00  0.00    +0.027 A 
ATOM      5  C   LIG    1       27.973 -19.932   6.082  0.00  0.00    +0.126 A 
ATOM      6  C   LIG    1       26.725 -20.159   5.479  0.00  0.00    +0.049 A 
ATOM      7  C   LIG    1       25.657 -20.678   6.209  0.00  0.00    +0.049 A 
BRANCH   2   9
ATOM      8  C   LIG    1       23.556 -21.592   7.367  0.00  0.00    +0.277 C 
ATOM      9  O   LIG    1       24.722 -21.505   8.180  0.00  0.00    -0.495 OA
ENDBRANCH   2   9
BRANCH   5  10
ATOM     10  O   LIG    1       29.054 -19.434   5.407  0.00  0.00    -0.495 OA
ATOM     11  C   LIG    1       29.020 -18.050   5.075  0.00  0.00    +0.277 C 
ENDBRANCH   5  10
ENDBRANCH   1   4
BRANCH   1  12
ATOM     12  O   LIG    1       30.643 -20.293   7.563  0.00  0.00    -0.386 OA
ATOM     13  H   LIG    1       31.051 -20.991   8.104  0.00  0.00    +0.210 HD
ENDBRANCH   1  12
BRANCH   1  14
ATOM     14  C   LIG    1       29.563 -18.439   8.691  0.00  0.00    +0.140 C 
BRANCH  14  15
ATOM     15  N   LIG    1       30.933 -18.003   8.928  0.00  0.00    -0.311 N 
ATOM     16  H   LIG    1       31.661 -18.480   8.398  0.00  0.00    +0.149 HD
ATOM     17  C   LIG    1       31.262 -17.069   9.880  0.00  0.00    +0.227 C 
ATOM     18  O   LIG    1       30.428 -16.518  10.622  0.00  0.00    -0.274 OA
BRANCH  17  19
ATOM     19  C   LIG    1       32.764 -16.738   9.939  0.00  0.00    +0.174 C 
BRANCH  19  20
ATOM     20  N   LIG    1       33.025 -15.380   9.426  0.00  0.00    -0.323 NA
ATOM     21  H   LIG    1       32.462 -14.724   9.972  0.00  0.00    +0.119 HD
ATOM     22  H   LIG    1       33.987 -15.139   9.677  0.00  0.00    +0.119 HD
ENDBRANCH  19  20
ENDBRANCH  17  19
ENDBRANCH  14  15
ENDBRANCH   1  14
TORSDOF 8
ENDMDL
MODEL 9
REMARK VINA RESULT:      -6.4      2.626      3.588
REMARK  Name = *****
REMARK                            x       y       z     vdW  Elec       q    Type
REMARK                         _______ _______ _______ _____ _____    ______ ____
ROOT
ATOM      1  C   LIG    1       27.430 -20.362   5.567  0.00  0.00    +0.165 C 
ENDROOT
BRANCH   1   4
ATOM      2  C   LIG    1       23.769 -21.220   6.287  0.00  0.00    +0.121 A 
ATOM      3  C   LIG    1       25.168 -21.206   6.297  0.00  0.00    +0.055 A 
ATOM      4  C   LIG    1       25.910 -20.416   5.391  0.00  0.00    +0.027 A 
ATOM      5  C   LIG    1       25.202 -19.693   4.413  0.00  0.00    +0.126 A 
ATOM      6  C   LIG    1       23.798 -19.728   4.396  0.00  0.00    +0.049 A 
ATOM      7  C   LIG    1       23.087 -20.481   5.329  0.00  0.00    +0.049 A 
BRANCH   2   9
ATOM      8  C   LIG    1       22.889 -23.327   6.860  0.00  0.00    +0.277 C 
ATOM      9  O   LIG    1       22.984 -21.935   7.150  0.00  0.00    -0.495 OA
ENDBRANCH   2   9
BRANCH   5  10
ATOM     10  O   LIG    1       25.946 -18.978   3.514  0.00  0.00    -0.495 OA
ATOM     11  C   LIG    1       25.573 -17.620   3.310  0.00  0.00    +0.277 C 
ENDBRANCH   5  10
ENDBRANCH   1   4
BRANCH   1  12
ATOM     12  O   LIG    1       28.024 -19.106   5.229  0.00  0.00    -0.386 OA
ATOM     13  H   LIG    1       28.321 -19.176   4.305  0.00  0.00    +0.210 HD
ENDBRANCH   1  12
BRANCH   1  14
ATOM     14  C   LIG    1       27.927 -20.787   6.971  0.00  0.00    +0.140 C 
BRANCH  14  15
ATOM     15  N   LIG    1       29.369 -20.687   7.152  0.00  0.00    -0.311 N 
ATOM     16  H   LIG    1       29.942 -21.316   6.592  0.00  0.00    +0.149 HD
ATOM     17  C   LIG    1       29.946 -19.865   8.089  0.00  0.00    +0.227 C 
ATOM     18  O   LIG    1       29.296 -19.141   8.866  0.00  0.00    -0.274 OA
BRANCH  17  19
ATOM     19  C   LIG    1       31.485 -19.896   8.086  0.00  0.00    +0.174 C 
BRANCH  19  20
ATOM     20  N   LIG    1       31.996 -20.773   9.157  0.00  0.00    -0.323 NA
ATOM     21  H   LIG    1       31.222 -21.358   9.479  0.00  0.00    +0.119 HD
ATOM     22  H   LIG    1       32.637 -21.441   8.723  0.00  0.00    +0.119 HD
ENDBRANCH  19  20
ENDBRANCH  17  19
ENDBRANCH  14  15
ENDBRANCH   1  14
TORSDOF 8
ENDMDL
