MODEL 1
REMARK VINA RESULT:      -3.9      0.000      0.000
REMARK  Name = *****
REMARK                            x       y       z     vdW  Elec       q    Type
REMARK                         _______ _______ _______ _____ _____    ______ ____
ROOT
ATOM      1  C   LIG    1       31.638 -18.383   8.949  0.00  0.00    +0.304 C 
ATOM      2  O   LIG    1       32.102 -19.480   9.223  0.00  0.00    -0.251 OA
ENDROOT
BRANCH   1   4
ATOM      3  C   LIG    1       30.376 -17.395  10.854  0.00  0.00    +0.015 C 
ATOM      4  C   LIG    1       30.296 -17.891   9.425  0.00  0.00    +0.117 C 
ENDBRANCH   1   4
BRANCH   1   5
ATOM      5  O   LIG    1       32.304 -17.479   8.196  0.00  0.00    -0.481 OA
ATOM      6  H   LIG    1       32.685 -17.851   7.378  0.00  0.00    +0.295 HD
ENDBRANCH   1   5
TORSDOF 2
ENDMDL
MODEL 2
REMARK VINA RESULT:      -3.7      1.347      1.525
REMARK  Name = *****
REMARK                            x       y       z     vdW  Elec       q    Type
REMARK                         _______ _______ _______ _____ _____    ______ ____
ROOT
ATOM      1  C   LIG    1       31.364 -19.324   8.356  0.00  0.00    +0.304 C 
ATOM      2  O   LIG    1       32.084 -19.563   9.313  0.00  0.00    -0.251 OA
ENDROOT
BRANCH   1   4
ATOM      3  C   LIG    1       30.285 -17.391   9.495  0.00  0.00    +0.015 C 
ATOM      4  C   LIG    1       30.142 -18.446   8.417  0.00  0.00    +0.117 C 
ENDBRANCH   1   4
BRANCH   1   5
ATOM      5  O   LIG    1       31.610 -19.815   7.121  0.00  0.00    -0.481 OA
ATOM      6  H   LIG    1       31.067 -20.594   6.891  0.00  0.00    +0.295 HD
ENDBRANCH   1   5
TORSDOF 2
ENDMDL
MODEL 3
REMARK VINA RESULT:      -3.7      1.418      2.069
REMARK  Name = *****
REMARK                            x       y       z     vdW  Elec       q    Type
REMARK                         _______ _______ _______ _____ _____    ______ ____
ROOT
ATOM      1  C   LIG    1       31.602 -18.559   8.595  0.00  0.00    +0.304 C 
ATOM      2  O   LIG    1       32.113 -19.465   9.235  0.00  0.00    -0.251 OA
ENDROOT
BRANCH   1   4
ATOM      3  C   LIG    1       29.990 -18.815   6.715  0.00  0.00    +0.015 C 
ATOM      4  C   LIG    1       30.151 -18.523   8.193  0.00  0.00    +0.117 C 
ENDBRANCH   1   4
BRANCH   1   5
ATOM      5  O   LIG    1       32.295 -17.469   8.196  0.00  0.00    -0.481 OA
ATOM      6  H   LIG    1       32.155 -17.234   7.259  0.00  0.00    +0.295 HD
ENDBRANCH   1   5
TORSDOF 2
ENDMDL
MODEL 4
REMARK VINA RESULT:      -3.7      3.126      3.620
REMARK  Name = *****
REMARK                            x       y       z     vdW  Elec       q    Type
REMARK                         _______ _______ _______ _____ _____    ______ ____
ROOT
ATOM      1  C   LIG    1       31.202 -21.839   9.157  0.00  0.00    +0.304 C 
ATOM      2  O   LIG    1       30.776 -22.132  10.264  0.00  0.00    -0.251 OA
ENDROOT
BRANCH   1   4
ATOM      3  C   LIG    1       31.303 -19.368   8.866  0.00  0.00    +0.015 C 
ATOM      4  C   LIG    1       30.715 -20.665   8.348  0.00  0.00    +0.117 C 
ENDBRANCH   1   4
BRANCH   1   5
ATOM      5  O   LIG    1       32.184 -22.539   8.547  0.00  0.00    -0.481 OA
ATOM      6  H   LIG    1       33.085 -22.252   8.792  0.00  0.00    +0.295 HD
ENDBRANCH   1   5
TORSDOF 2
ENDMDL
MODEL 5
REMARK VINA RESULT:      -3.5      9.638     10.130
REMARK  Name = *****
REMARK                            x       y       z     vdW  Elec       q    Type
REMARK                         _______ _______ _______ _____ _____    ______ ____
ROOT
ATOM      1  C   LIG    1       23.428 -24.283   6.635  0.00  0.00    +0.304 C 
ATOM      2  O   LIG    1       23.670 -25.451   6.374  0.00  0.00    -0.251 OA
ENDROOT
BRANCH   1   4
ATOM      3  C   LIG    1       25.851 -23.888   7.055  0.00  0.00    +0.015 C 
ATOM      4  C   LIG    1       24.482 -23.249   6.934  0.00  0.00    +0.117 C 
ENDBRANCH   1   4
BRANCH   1   5
ATOM      5  O   LIG    1       22.170 -23.789   6.663  0.00  0.00    -0.481 OA
ATOM      6  H   LIG    1       22.111 -22.846   6.416  0.00  0.00    +0.295 HD
ENDBRANCH   1   5
TORSDOF 2
ENDMDL
MODEL 6
REMARK VINA RESULT:      -3.5     10.206     10.344
REMARK  Name = *****
REMARK                            x       y       z     vdW  Elec       q    Type
REMARK                         _______ _______ _______ _____ _____    ______ ____
ROOT
ATOM      1  C   LIG    1       25.086 -25.273   5.140  0.00  0.00    +0.304 C 
ATOM      2  O   LIG    1       26.032 -26.019   4.938  0.00  0.00    -0.251 OA
ENDROOT
BRANCH   1   4
ATOM      3  C   LIG    1       23.462 -24.172   6.672  0.00  0.00    +0.015 C 
ATOM      4  C   LIG    1       24.055 -25.489   6.216  0.00  0.00    +0.117 C 
ENDBRANCH   1   4
BRANCH   1   5
ATOM      5  O   LIG    1       24.879 -24.150   4.417  0.00  0.00    -0.481 OA
ATOM      6  H   LIG    1       23.991 -23.762   4.537  0.00  0.00    +0.295 HD
ENDBRANCH   1   5
TORSDOF 2
ENDMDL
MODEL 7
REMARK VINA RESULT:      -3.4      2.562      3.068
REMARK  Name = *****
REMARK                            x       y       z     vdW  Elec       q    Type
REMARK                         _______ _______ _______ _____ _____    ______ ____
ROOT
ATOM      1  C   LIG    1       30.981 -20.169   8.408  0.00  0.00    +0.304 C 
ATOM      2  O   LIG    1       30.003 -20.847   8.683  0.00  0.00    -0.251 OA
ENDROOT
BRANCH   1   4
ATOM      3  C   LIG    1       29.755 -18.953   6.615  0.00  0.00    +0.015 C 
ATOM      4  C   LIG    1       31.115 -19.352   7.150  0.00  0.00    +0.117 C 
ENDBRANCH   1   4
BRANCH   1   5
ATOM      5  O   LIG    1       32.050 -20.067   9.230  0.00  0.00    -0.481 OA
ATOM      6  H   LIG    1       32.908 -20.100   8.766  0.00  0.00    +0.295 HD
ENDBRANCH   1   5
TORSDOF 2
ENDMDL
MODEL 8
REMARK VINA RESULT:      -3.4      9.829     10.337
REMARK  Name = *****
REMARK                            x       y       z     vdW  Elec       q    Type
REMARK                         _______ _______ _______ _____ _____    ______ ____
ROOT
ATOM      1  C   LIG    1       23.939 -25.078   6.278  0.00  0.00    +0.304 C 
ATOM      2  O   LIG    1       23.070 -24.385   6.783  0.00  0.00    -0.251 OA
ENDROOT
BRANCH   1   4
ATOM      3  C   LIG    1       25.716 -23.608   7.217  0.00  0.00    +0.015 C 
ATOM      4  C   LIG    1       25.407 -24.955   6.595  0.00  0.00    +0.117 C 
ENDBRANCH   1   4
BRANCH   1   5
ATOM      5  O   LIG    1       23.664 -26.055   5.386  0.00  0.00    -0.481 OA
ATOM      6  H   LIG    1       22.832 -25.918   4.895  0.00  0.00    +0.295 HD
ENDBRANCH   1   5
TORSDOF 2
ENDMDL
MODEL 9
REMARK VINA RESULT:      -3.4      8.090      8.715
REMARK  Name = *****
REMARK                            x       y       z     vdW  Elec       q    Type
REMARK                         _______ _______ _______ _____ _____    ______ ____
ROOT
ATOM      1  C   LIG    1       26.724 -14.554   3.214  0.00  0.00    +0.304 C 
ATOM      2  O   LIG    1       26.644 -14.360   2.010  0.00  0.00    -0.251 OA
ENDROOT
BRANCH   1   4
ATOM      3  C   LIG    1       24.367 -14.463   4.011  0.00  0.00    +0.015 C 
ATOM      4  C   LIG    1       25.781 -13.962   4.228  0.00  0.00    +0.117 C 
ENDBRANCH   1   4
BRANCH   1   5
ATOM      5  O   LIG    1       27.671 -15.348   3.762  0.00  0.00    -0.481 OA
ATOM      6  H   LIG    1       27.310 -16.103   4.264  0.00  0.00    +0.295 HD
ENDBRANCH   1   5
TORSDOF 2
ENDMDL
