MODEL 1
REMARK VINA RESULT:      -8.2      0.000      0.000
REMARK  Name = *****
REMARK                            x       y       z     vdW  Elec       q    Type
REMARK                         _______ _______ _______ _____ _____    ______ ____
ROOT
ATOM      1  C   LIG    1       25.331 -22.814   6.842  0.00  0.00    +0.045 C 
ATOM      2  C   LIG    1       25.408 -24.097   6.399  0.00  0.00    +0.046 C 
ATOM      3  C   LIG    1       24.810 -24.551   5.076  0.00  0.00    +0.188 C 
ATOM      4  O   LIG    1       24.503 -23.823   4.151  0.00  0.00    -0.287 OA
ATOM      5  C   LIG    1       24.589 -26.022   4.938  0.00  0.00    +0.054 C 
ATOM      6  C   LIG    1       25.108 -26.884   5.819  0.00  0.00    +0.042 C 
ATOM      7  C   LIG    1       25.918 -26.436   6.916  0.00  0.00    +0.124 C 
ATOM      8  F   LIG    1       26.517 -27.367   7.682  0.00  0.00    -0.205 F 
ATOM      9  C   LIG    1       26.066 -25.137   7.200  0.00  0.00    +0.052 C 
ENDROOT
BRANCH   1  10
ATOM     10  C   LIG    1       24.675 -21.741   6.052  0.00  0.00    -0.003 A 
ATOM     11  C   LIG    1       23.327 -21.426   6.288  0.00  0.00    +0.011 A 
ATOM     12  C   LIG    1       22.713 -20.378   5.597  0.00  0.00    +0.020 A 
ATOM     13  C   LIG    1       23.448 -19.632   4.679  0.00  0.00    +0.041 A 
ATOM     14 CL   LIG    1       22.697 -18.324   3.847  0.00  0.00    -0.084 Cl
ATOM     15  C   LIG    1       24.788 -19.929   4.437  0.00  0.00    +0.020 A 
ATOM     16  C   LIG    1       25.399 -20.988   5.117  0.00  0.00    +0.011 A 
ENDBRANCH   1  10
BRANCH   1  17
ATOM     17  N   LIG    1       25.771 -22.425   8.113  0.00  0.00    -0.343 N 
ATOM     18  H   LIG    1       25.135 -22.696   8.853  0.00  0.00    +0.146 HD
BRANCH  17  19
ATOM     19  C   LIG    1       26.688 -21.341   8.438  0.00  0.00    +0.102 C 
BRANCH  19  20
ATOM     20  C   LIG    1       28.032 -21.528   7.725  0.00  0.00    +0.028 C 
BRANCH  20  21
ATOM     21  C   LIG    1       28.643 -20.247   7.155  0.00  0.00    +0.097 C 
BRANCH  21  25
ATOM     22  N   LIG    1       30.997 -20.356   7.692  0.00  0.00    -0.329 N 
ATOM     23  H   LIG    1       31.077 -21.122   7.034  0.00  0.00    +0.145 HD
ATOM     24  H   LIG    1       31.792 -20.147   8.282  0.00  0.00    +0.145 HD
ATOM     25  C   LIG    1       29.806 -19.768   7.991  0.00  0.00    +0.210 C 
ATOM     26  O   LIG    1       29.695 -18.953   8.903  0.00  0.00    -0.276 OA
ENDBRANCH  21  25
ENDBRANCH  20  21
ENDBRANCH  19  20
ENDBRANCH  17  19
ENDBRANCH   1  17
TORSDOF 6
ENDMDL
MODEL 2
REMARK VINA RESULT:      -7.3      3.455      5.309
REMARK  Name = *****
REMARK                            x       y       z     vdW  Elec       q    Type
REMARK                         _______ _______ _______ _____ _____    ______ ____
ROOT
ATOM      1  C   LIG    1       25.140 -21.312   5.387  0.00  0.00    +0.045 C 
ATOM      2  C   LIG    1       23.952 -20.674   5.218  0.00  0.00    +0.046 C 
ATOM      3  C   LIG    1       22.610 -21.364   5.412  0.00  0.00    +0.188 C 
ATOM      4  O   LIG    1       22.429 -22.400   6.023  0.00  0.00    -0.287 OA
ATOM      5  C   LIG    1       21.439 -20.687   4.778  0.00  0.00    +0.054 C 
ATOM      6  C   LIG    1       21.538 -19.446   4.292  0.00  0.00    +0.042 C 
ATOM      7  C   LIG    1       22.763 -18.704   4.381  0.00  0.00    +0.124 C 
ATOM      8  F   LIG    1       22.753 -17.414   3.993  0.00  0.00    -0.205 F 
ATOM      9  C   LIG    1       23.900 -19.266   4.810  0.00  0.00    +0.052 C 
ENDROOT
BRANCH   1  10
ATOM     10  C   LIG    1       25.225 -22.735   5.803  0.00  0.00    -0.003 A 
ATOM     11  C   LIG    1       24.985 -23.752   4.864  0.00  0.00    +0.011 A 
ATOM     12  C   LIG    1       25.120 -25.095   5.223  0.00  0.00    +0.020 A 
ATOM     13  C   LIG    1       25.510 -25.428   6.518  0.00  0.00    +0.041 A 
ATOM     14 CL   LIG    1       25.701 -27.082   6.953  0.00  0.00    -0.084 Cl
ATOM     15  C   LIG    1       25.756 -24.430   7.460  0.00  0.00    +0.020 A 
ATOM     16  C   LIG    1       25.605 -23.085   7.106  0.00  0.00    +0.011 A 
ENDBRANCH   1  10
BRANCH   1  17
ATOM     17  N   LIG    1       26.370 -20.712   5.088  0.00  0.00    -0.343 N 
ATOM     18  H   LIG    1       26.840 -21.142   4.301  0.00  0.00    +0.146 HD
BRANCH  17  19
ATOM     19  C   LIG    1       27.223 -19.948   5.988  0.00  0.00    +0.102 C 
BRANCH  19  20
ATOM     20  C   LIG    1       28.424 -20.784   6.444  0.00  0.00    +0.028 C 
BRANCH  20  21
ATOM     21  C   LIG    1       29.194 -20.209   7.635  0.00  0.00    +0.097 C 
BRANCH  21  25
ATOM     22  N   LIG    1       31.605 -20.098   7.768  0.00  0.00    -0.329 N 
ATOM     23  H   LIG    1       31.563 -20.799   8.498  0.00  0.00    +0.145 HD
ATOM     24  H   LIG    1       32.493 -19.646   7.588  0.00  0.00    +0.145 HD
ATOM     25  C   LIG    1       30.488 -19.565   7.199  0.00  0.00    +0.210 C 
ATOM     26  O   LIG    1       30.545 -18.607   6.433  0.00  0.00    -0.276 OA
ENDBRANCH  21  25
ENDBRANCH  20  21
ENDBRANCH  19  20
ENDBRANCH  17  19
ENDBRANCH   1  17
TORSDOF 6
ENDMDL
MODEL 3
REMARK VINA RESULT:      -7.3      3.385      6.001
REMARK  Name = *****
REMARK                            x       y       z     vdW  Elec       q    Type
REMARK                         _______ _______ _______ _____ _____    ______ ____
ROOT
ATOM      1  C   LIG    1       25.407 -21.257   6.476  0.00  0.00    +0.045 C 
ATOM      2  C   LIG    1       24.476 -20.779   5.608  0.00  0.00    +0.046 C 
ATOM      3  C   LIG    1       24.715 -19.560   4.731  0.00  0.00    +0.188 C 
ATOM      4  O   LIG    1       25.801 -19.086   4.458  0.00  0.00    -0.287 OA
ATOM      5  C   LIG    1       23.488 -18.911   4.180  0.00  0.00    +0.054 C 
ATOM      6  C   LIG    1       22.294 -19.509   4.259  0.00  0.00    +0.042 C 
ATOM      7  C   LIG    1       22.147 -20.808   4.852  0.00  0.00    +0.124 C 
ATOM      8  F   LIG    1       20.943 -21.406   4.776  0.00  0.00    -0.205 F 
ATOM      9  C   LIG    1       23.158 -21.412   5.487  0.00  0.00    +0.052 C 
ENDROOT
BRANCH   1  10
ATOM     10  C   LIG    1       26.750 -20.639   6.618  0.00  0.00    -0.003 A 
ATOM     11  C   LIG    1       27.220 -20.276   7.891  0.00  0.00    +0.011 A 
ATOM     12  C   LIG    1       28.505 -19.751   8.049  0.00  0.00    +0.020 A 
ATOM     13  C   LIG    1       29.330 -19.600   6.938  0.00  0.00    +0.041 A 
ATOM     14 CL   LIG    1       30.923 -18.976   7.136  0.00  0.00    -0.084 Cl
ATOM     15  C   LIG    1       28.880 -19.959   5.668  0.00  0.00    +0.020 A 
ATOM     16  C   LIG    1       27.588 -20.471   5.507  0.00  0.00    +0.011 A 
ENDBRANCH   1  10
BRANCH   1  17
ATOM     17  N   LIG    1       25.141 -22.301   7.371  0.00  0.00    -0.343 N 
ATOM     18  H   LIG    1       24.856 -21.975   8.287  0.00  0.00    +0.146 HD
BRANCH  17  19
ATOM     19  C   LIG    1       25.658 -23.662   7.321  0.00  0.00    +0.102 C 
BRANCH  19  20
ATOM     20  C   LIG    1       25.147 -24.396   6.076  0.00  0.00    +0.028 C 
BRANCH  20  21
ATOM     21  C   LIG    1       24.858 -25.884   6.279  0.00  0.00    +0.097 C 
BRANCH  21  25
ATOM     22  N   LIG    1       26.204 -27.524   7.437  0.00  0.00    -0.329 N 
ATOM     23  H   LIG    1       25.506 -27.529   8.171  0.00  0.00    +0.145 HD
ATOM     24  H   LIG    1       27.073 -28.018   7.599  0.00  0.00    +0.145 HD
ATOM     25  C   LIG    1       26.132 -26.689   6.363  0.00  0.00    +0.210 C 
ATOM     26  O   LIG    1       27.060 -26.578   5.565  0.00  0.00    -0.276 OA
ENDBRANCH  21  25
ENDBRANCH  20  21
ENDBRANCH  19  20
ENDBRANCH  17  19
ENDBRANCH   1  17
TORSDOF 6
ENDMDL
MODEL 4
REMARK VINA RESULT:      -7.1      4.327      6.137
REMARK  Name = *****
REMARK                            x       y       z     vdW  Elec       q    Type
REMARK                         _______ _______ _______ _____ _____    ______ ____
ROOT
ATOM      1  C   LIG    1       26.217 -20.175   5.392  0.00  0.00    +0.045 C 
ATOM      2  C   LIG    1       25.072 -20.623   5.972  0.00  0.00    +0.046 C 
ATOM      3  C   LIG    1       25.031 -21.205   7.377  0.00  0.00    +0.188 C 
ATOM      4  O   LIG    1       25.883 -21.051   8.231  0.00  0.00    -0.287 OA
ATOM      5  C   LIG    1       23.832 -22.036   7.696  0.00  0.00    +0.054 C 
ATOM      6  C   LIG    1       22.769 -22.057   6.885  0.00  0.00    +0.042 C 
ATOM      7  C   LIG    1       22.725 -21.263   5.691  0.00  0.00    +0.124 C 
ATOM      8  F   LIG    1       21.573 -21.229   4.995  0.00  0.00    -0.205 F 
ATOM      9  C   LIG    1       23.794 -20.589   5.250  0.00  0.00    +0.052 C 
ENDROOT
BRANCH   1  10
ATOM     10  C   LIG    1       27.524 -20.194   6.098  0.00  0.00    -0.003 A 
ATOM     11  C   LIG    1       28.337 -19.049   6.089  0.00  0.00    +0.011 A 
ATOM     12  C   LIG    1       29.540 -19.030   6.800  0.00  0.00    +0.020 A 
ATOM     13  C   LIG    1       29.927 -20.149   7.533  0.00  0.00    +0.041 A 
ATOM     14 CL   LIG    1       31.397 -20.115   8.429  0.00  0.00    -0.084 Cl
ATOM     15  C   LIG    1       29.129 -21.291   7.555  0.00  0.00    +0.020 A 
ATOM     16  C   LIG    1       27.931 -21.316   6.831  0.00  0.00    +0.011 A 
ENDBRANCH   1  10
BRANCH   1  17
ATOM     17  N   LIG    1       26.275 -19.756   4.057  0.00  0.00    -0.343 N 
ATOM     18  H   LIG    1       27.108 -20.074   3.577  0.00  0.00    +0.146 HD
BRANCH  17  19
ATOM     19  C   LIG    1       25.607 -18.608   3.460  0.00  0.00    +0.102 C 
BRANCH  19  20
ATOM     20  C   LIG    1       26.537 -17.390   3.428  0.00  0.00    +0.028 C 
BRANCH  20  21
ATOM     21  C   LIG    1       25.825 -16.037   3.374  0.00  0.00    +0.097 C 
BRANCH  21  25
ATOM     22  N   LIG    1       27.777 -14.711   3.897  0.00  0.00    -0.329 N 
ATOM     23  H   LIG    1       27.821 -15.189   4.789  0.00  0.00    +0.145 HD
ATOM     24  H   LIG    1       28.388 -13.918   3.748  0.00  0.00    +0.145 HD
ATOM     25  C   LIG    1       26.776 -14.925   2.999  0.00  0.00    +0.210 C 
ATOM     26  O   LIG    1       26.643 -14.229   1.996  0.00  0.00    -0.276 OA
ENDBRANCH  21  25
ENDBRANCH  20  21
ENDBRANCH  19  20
ENDBRANCH  17  19
ENDBRANCH   1  17
TORSDOF 6
ENDMDL
MODEL 5
REMARK VINA RESULT:      -7.1      3.241      4.899
REMARK  Name = *****
REMARK                            x       y       z     vdW  Elec       q    Type
REMARK                         _______ _______ _______ _____ _____    ______ ____
ROOT
ATOM      1  C   LIG    1       25.117 -20.955   6.901  0.00  0.00    +0.045 C 
ATOM      2  C   LIG    1       24.834 -22.285   6.933  0.00  0.00    +0.046 C 
ATOM      3  C   LIG    1       25.911 -23.359   6.923  0.00  0.00    +0.188 C 
ATOM      4  O   LIG    1       27.082 -23.189   7.204  0.00  0.00    -0.287 OA
ATOM      5  C   LIG    1       25.457 -24.724   6.523  0.00  0.00    +0.054 C 
ATOM      6  C   LIG    1       24.156 -25.018   6.421  0.00  0.00    +0.042 C 
ATOM      7  C   LIG    1       23.145 -24.044   6.717  0.00  0.00    +0.124 C 
ATOM      8  F   LIG    1       21.860 -24.448   6.726  0.00  0.00    -0.205 F 
ATOM      9  C   LIG    1       23.446 -22.762   6.956  0.00  0.00    +0.052 C 
ENDROOT
BRANCH   1  10
ATOM     10  C   LIG    1       26.511 -20.442   6.880  0.00  0.00    -0.003 A 
ATOM     11  C   LIG    1       27.213 -20.282   8.085  0.00  0.00    +0.011 A 
ATOM     12  C   LIG    1       28.545 -19.859   8.078  0.00  0.00    +0.020 A 
ATOM     13  C   LIG    1       29.184 -19.608   6.867  0.00  0.00    +0.041 A 
ATOM     14 CL   LIG    1       30.832 -19.111   6.858  0.00  0.00    -0.084 Cl
ATOM     15  C   LIG    1       28.501 -19.766   5.662  0.00  0.00    +0.020 A 
ATOM     16  C   LIG    1       27.163 -20.174   5.668  0.00  0.00    +0.011 A 
ENDBRANCH   1  10
BRANCH   1  17
ATOM     17  N   LIG    1       24.126 -19.973   6.784  0.00  0.00    -0.343 N 
ATOM     18  H   LIG    1       24.131 -19.312   7.551  0.00  0.00    +0.146 HD
BRANCH  17  19
ATOM     19  C   LIG    1       22.878 -20.060   6.038  0.00  0.00    +0.102 C 
BRANCH  19  20
ATOM     20  C   LIG    1       23.143 -20.076   4.529  0.00  0.00    +0.028 C 
BRANCH  20  21
ATOM     21  C   LIG    1       23.485 -18.714   3.920  0.00  0.00    +0.097 C 
BRANCH  21  25
ATOM     22  N   LIG    1       25.422 -19.899   3.093  0.00  0.00    -0.329 N 
ATOM     23  H   LIG    1       24.934 -20.765   3.286  0.00  0.00    +0.145 HD
ATOM     24  H   LIG    1       26.400 -19.948   2.834  0.00  0.00    +0.145 HD
ATOM     25  C   LIG    1       24.903 -18.679   3.405  0.00  0.00    +0.210 C 
ATOM     26  O   LIG    1       25.567 -17.649   3.314  0.00  0.00    -0.276 OA
ENDBRANCH  21  25
ENDBRANCH  20  21
ENDBRANCH  19  20
ENDBRANCH  17  19
ENDBRANCH   1  17
TORSDOF 6
ENDMDL
MODEL 6
REMARK VINA RESULT:      -7.0      3.415      5.185
REMARK  Name = *****
REMARK                            x       y       z     vdW  Elec       q    Type
REMARK                         _______ _______ _______ _____ _____    ______ ____
ROOT
ATOM      1  C   LIG    1       23.909 -22.066   6.651  0.00  0.00    +0.045 C 
ATOM      2  C   LIG    1       23.679 -21.285   5.562  0.00  0.00    +0.046 C 
ATOM      3  C   LIG    1       23.968 -21.743   4.141  0.00  0.00    +0.188 C 
ATOM      4  O   LIG    1       24.114 -22.897   3.786  0.00  0.00    -0.287 OA
ATOM      5  C   LIG    1       24.083 -20.656   3.123  0.00  0.00    +0.054 C 
ATOM      6  C   LIG    1       23.715 -19.402   3.407  0.00  0.00    +0.042 C 
ATOM      7  C   LIG    1       23.172 -19.054   4.689  0.00  0.00    +0.124 C 
ATOM      8  F   LIG    1       22.699 -17.805   4.858  0.00  0.00    -0.205 F 
ATOM      9  C   LIG    1       23.151 -19.923   5.706  0.00  0.00    +0.052 C 
ENDROOT
BRANCH   1  10
ATOM     10  C   LIG    1       24.440 -23.449   6.536  0.00  0.00    -0.003 A 
ATOM     11  C   LIG    1       23.551 -24.532   6.439  0.00  0.00    +0.011 A 
ATOM     12  C   LIG    1       24.034 -25.832   6.269  0.00  0.00    +0.020 A 
ATOM     13  C   LIG    1       25.406 -26.053   6.181  0.00  0.00    +0.041 A 
ATOM     14 CL   LIG    1       25.999 -27.652   5.946  0.00  0.00    -0.084 Cl
ATOM     15  C   LIG    1       26.301 -24.988   6.272  0.00  0.00    +0.020 A 
ATOM     16  C   LIG    1       25.819 -23.688   6.458  0.00  0.00    +0.011 A 
ENDBRANCH   1  10
BRANCH   1  17
ATOM     17  N   LIG    1       23.761 -21.599   7.962  0.00  0.00    -0.343 N 
ATOM     18  H   LIG    1       22.843 -21.210   8.143  0.00  0.00    +0.146 HD
BRANCH  17  19
ATOM     19  C   LIG    1       24.813 -21.176   8.875  0.00  0.00    +0.102 C 
BRANCH  19  20
ATOM     20  C   LIG    1       25.899 -20.389   8.131  0.00  0.00    +0.028 C 
BRANCH  20  21
ATOM     21  C   LIG    1       27.256 -21.091   8.042  0.00  0.00    +0.097 C 
BRANCH  21  25
ATOM     22  N   LIG    1       29.314 -21.038   6.777  0.00  0.00    -0.329 N 
ATOM     23  H   LIG    1       29.787 -21.405   7.593  0.00  0.00    +0.145 HD
ATOM     24  H   LIG    1       29.879 -20.725   5.997  0.00  0.00    +0.145 HD
ATOM     25  C   LIG    1       27.991 -20.715   6.778  0.00  0.00    +0.210 C 
ATOM     26  O   LIG    1       27.466 -20.123   5.838  0.00  0.00    -0.276 OA
ENDBRANCH  21  25
ENDBRANCH  20  21
ENDBRANCH  19  20
ENDBRANCH  17  19
ENDBRANCH   1  17
TORSDOF 6
ENDMDL
MODEL 7
REMARK VINA RESULT:      -7.0      2.474      5.330
REMARK  Name = *****
REMARK                            x       y       z     vdW  Elec       q    Type
REMARK                         _______ _______ _______ _____ _____    ______ ____
ROOT
ATOM      1  C   LIG    1       25.968 -21.862   7.036  0.00  0.00    +0.045 C 
ATOM      2  C   LIG    1       27.177 -21.241   7.093  0.00  0.00    +0.046 C 
ATOM      3  C   LIG    1       27.492 -19.976   6.310  0.00  0.00    +0.188 C 
ATOM      4  O   LIG    1       26.671 -19.218   5.830  0.00  0.00    -0.287 OA
ATOM      5  C   LIG    1       28.944 -19.674   6.129  0.00  0.00    +0.054 C 
ATOM      6  C   LIG    1       29.879 -20.339   6.815  0.00  0.00    +0.042 C 
ATOM      7  C   LIG    1       29.527 -21.350   7.771  0.00  0.00    +0.124 C 
ATOM      8  F   LIG    1       30.510 -21.881   8.522  0.00  0.00    -0.205 F 
ATOM      9  C   LIG    1       28.268 -21.783   7.910  0.00  0.00    +0.052 C 
ENDROOT
BRANCH   1  10
ATOM     10  C   LIG    1       24.844 -21.336   6.220  0.00  0.00    -0.003 A 
ATOM     11  C   LIG    1       23.801 -20.632   6.842  0.00  0.00    +0.011 A 
ATOM     12  C   LIG    1       22.768 -20.078   6.082  0.00  0.00    +0.020 A 
ATOM     13  C   LIG    1       22.781 -20.213   4.696  0.00  0.00    +0.041 A 
ATOM     14 CL   LIG    1       21.522 -19.509   3.757  0.00  0.00    -0.084 Cl
ATOM     15  C   LIG    1       23.812 -20.906   4.063  0.00  0.00    +0.020 A 
ATOM     16  C   LIG    1       24.839 -21.475   4.825  0.00  0.00    +0.011 A 
ENDBRANCH   1  10
BRANCH   1  17
ATOM     17  N   LIG    1       25.720 -23.092   7.658  0.00  0.00    -0.343 N 
ATOM     18  H   LIG    1       25.755 -23.040   8.669  0.00  0.00    +0.146 HD
BRANCH  17  19
ATOM     19  C   LIG    1       25.900 -24.422   7.092  0.00  0.00    +0.102 C 
BRANCH  19  20
ATOM     20  C   LIG    1       24.692 -24.821   6.237  0.00  0.00    +0.028 C 
BRANCH  20  21
ATOM     21  C   LIG    1       25.037 -25.385   4.857  0.00  0.00    +0.097 C 
BRANCH  21  25
ATOM     22  N   LIG    1       24.810 -27.755   5.277  0.00  0.00    -0.329 N 
ATOM     23  H   LIG    1       23.842 -27.585   5.520  0.00  0.00    +0.145 HD
ATOM     24  H   LIG    1       25.194 -28.675   5.454  0.00  0.00    +0.145 HD
ATOM     25  C   LIG    1       25.674 -26.750   4.962  0.00  0.00    +0.210 C 
ATOM     26  O   LIG    1       26.878 -26.949   4.825  0.00  0.00    -0.276 OA
ENDBRANCH  21  25
ENDBRANCH  20  21
ENDBRANCH  19  20
ENDBRANCH  17  19
ENDBRANCH   1  17
TORSDOF 6
ENDMDL
MODEL 8
REMARK VINA RESULT:      -6.9      4.157      6.001
REMARK  Name = *****
REMARK                            x       y       z     vdW  Elec       q    Type
REMARK                         _______ _______ _______ _____ _____    ______ ____
ROOT
ATOM      1  C   LIG    1       26.881 -20.120   5.565  0.00  0.00    +0.045 C 
ATOM      2  C   LIG    1       28.033 -20.348   6.249  0.00  0.00    +0.046 C 
ATOM      3  C   LIG    1       28.136 -21.363   7.378  0.00  0.00    +0.188 C 
ATOM      4  O   LIG    1       27.358 -22.275   7.582  0.00  0.00    -0.287 OA
ATOM      5  C   LIG    1       29.300 -21.189   8.298  0.00  0.00    +0.054 C 
ATOM      6  C   LIG    1       30.299 -20.353   7.998  0.00  0.00    +0.042 C 
ATOM      7  C   LIG    1       30.309 -19.610   6.770  0.00  0.00    +0.124 C 
ATOM      8  F   LIG    1       31.409 -18.893   6.472  0.00  0.00    -0.205 F 
ATOM      9  C   LIG    1       29.256 -19.597   5.944  0.00  0.00    +0.052 C 
ENDROOT
BRANCH   1  10
ATOM     10  C   LIG    1       25.629 -20.867   5.849  0.00  0.00    -0.003 A 
ATOM     11  C   LIG    1       25.310 -22.008   5.094  0.00  0.00    +0.011 A 
ATOM     12  C   LIG    1       24.168 -22.757   5.390  0.00  0.00    +0.020 A 
ATOM     13  C   LIG    1       23.348 -22.377   6.449  0.00  0.00    +0.041 A 
ATOM     14 CL   LIG    1       21.955 -23.315   6.828  0.00  0.00    -0.084 Cl
ATOM     15  C   LIG    1       23.653 -21.250   7.210  0.00  0.00    +0.020 A 
ATOM     16  C   LIG    1       24.788 -20.490   6.906  0.00  0.00    +0.011 A 
ENDBRANCH   1  10
BRANCH   1  17
ATOM     17  N   LIG    1       26.755 -19.101   4.613  0.00  0.00    -0.343 N 
ATOM     18  H   LIG    1       27.270 -18.264   4.858  0.00  0.00    +0.146 HD
BRANCH  17  19
ATOM     19  C   LIG    1       25.676 -18.916   3.653  0.00  0.00    +0.102 C 
BRANCH  19  20
ATOM     20  C   LIG    1       25.437 -17.427   3.379  0.00  0.00    +0.028 C 
BRANCH  20  21
ATOM     21  C   LIG    1       26.683 -16.545   3.479  0.00  0.00    +0.097 C 
BRANCH  21  25
ATOM     22  N   LIG    1       25.678 -14.439   4.110  0.00  0.00    -0.329 N 
ATOM     23  H   LIG    1       25.315 -14.898   4.936  0.00  0.00    +0.145 HD
ATOM     24  H   LIG    1       25.357 -13.501   3.903  0.00  0.00    +0.145 HD
ATOM     25  C   LIG    1       26.370 -15.106   3.145  0.00  0.00    +0.210 C 
ATOM     26  O   LIG    1       26.666 -14.578   2.076  0.00  0.00    -0.276 OA
ENDBRANCH  21  25
ENDBRANCH  20  21
ENDBRANCH  19  20
ENDBRANCH  17  19
ENDBRANCH   1  17
TORSDOF 6
ENDMDL
MODEL 9
REMARK VINA RESULT:      -6.7      5.629      8.460
REMARK  Name = *****
REMARK                            x       y       z     vdW  Elec       q    Type
REMARK                         _______ _______ _______ _____ _____    ______ ____
ROOT
ATOM      1  C   LIG    1       25.037 -30.124   7.123  0.00  0.00    +0.045 C 
ATOM      2  C   LIG    1       25.628 -31.208   6.552  0.00  0.00    +0.046 C 
ATOM      3  C   LIG    1       26.637 -32.079   7.285  0.00  0.00    +0.188 C 
ATOM      4  O   LIG    1       26.788 -32.125   8.490  0.00  0.00    -0.287 OA
ATOM      5  C   LIG    1       27.503 -32.932   6.417  0.00  0.00    +0.054 C 
ATOM      6  C   LIG    1       27.236 -33.091   5.116  0.00  0.00    +0.042 C 
ATOM      7  C   LIG    1       26.094 -32.471   4.507  0.00  0.00    +0.124 C 
ATOM      8  F   LIG    1       25.810 -32.783   3.228  0.00  0.00    -0.205 F 
ATOM      9  C   LIG    1       25.334 -31.587   5.165  0.00  0.00    +0.052 C 
ENDROOT
BRANCH   1  10
ATOM     10  C   LIG    1       25.312 -29.718   8.525  0.00  0.00    -0.003 A 
ATOM     11  C   LIG    1       26.361 -28.826   8.799  0.00  0.00    +0.011 A 
ATOM     12  C   LIG    1       26.594 -28.386  10.105  0.00  0.00    +0.020 A 
ATOM     13  C   LIG    1       25.770 -28.823  11.138  0.00  0.00    +0.041 A 
ATOM     14 CL   LIG    1       26.041 -28.261  12.742  0.00  0.00    -0.084 Cl
ATOM     15  C   LIG    1       24.721 -29.705  10.881  0.00  0.00    +0.020 A 
ATOM     16  C   LIG    1       24.497 -30.159   9.576  0.00  0.00    +0.011 A 
ENDBRANCH   1  10
BRANCH   1  17
ATOM     17  N   LIG    1       24.205 -29.253   6.409  0.00  0.00    -0.343 N 
ATOM     18  H   LIG    1       23.278 -29.629   6.252  0.00  0.00    +0.146 HD
BRANCH  17  19
ATOM     19  C   LIG    1       24.611 -28.184   5.506  0.00  0.00    +0.102 C 
BRANCH  19  20
ATOM     20  C   LIG    1       24.420 -26.812   6.162  0.00  0.00    +0.028 C 
BRANCH  20  21
ATOM     21  C   LIG    1       25.716 -26.061   6.473  0.00  0.00    +0.097 C 
BRANCH  21  25
ATOM     22  N   LIG    1       25.003 -24.322   4.953  0.00  0.00    -0.329 N 
ATOM     23  H   LIG    1       24.758 -25.048   4.291  0.00  0.00    +0.145 HD
ATOM     24  H   LIG    1       24.981 -23.360   4.639  0.00  0.00    +0.145 HD
ATOM     25  C   LIG    1       25.595 -24.591   6.150  0.00  0.00    +0.210 C 
ATOM     26  O   LIG    1       26.033 -23.699   6.872  0.00  0.00    -0.276 OA
ENDBRANCH  21  25
ENDBRANCH  20  21
ENDBRANCH  19  20
ENDBRANCH  17  19
ENDBRANCH   1  17
TORSDOF 6
ENDMDL
