MODEL 1
REMARK VINA RESULT:      -7.8      0.000      0.000
REMARK  Name = *****
REMARK                            x       y       z     vdW  Elec       q    Type
REMARK                         _______ _______ _______ _____ _____    ______ ____
ROOT
ATOM      1  O   LIG    1       23.208 -20.947   6.608  0.00  0.00    -0.375 OA
ENDROOT
BRANCH   1   2
ATOM      2  C   LIG    1       23.624 -22.113   7.250  0.00  0.00    +0.188 C 
BRANCH   2   3
ATOM      3  C   LIG    1       22.785 -23.367   6.928  0.00  0.00    +0.188 C 
BRANCH   3   4
ATOM      4  O   LIG    1       23.493 -24.538   6.497  0.00  0.00    -0.374 OA
BRANCH   4   5
ATOM      5  C   LIG    1       24.671 -24.354   5.715  0.00  0.00    +0.201 C 
BRANCH   5   6
ATOM      6  C   LIG    1       25.925 -24.820   6.386  0.00  0.00    +0.257 C 
BRANCH   6   7
ATOM      7  O   LIG    1       26.356 -26.023   5.800  0.00  0.00    -0.490 OA
BRANCH   7  11
ATOM      8  C   LIG    1       24.348 -30.137   7.599  0.00  0.00    -0.047 A 
ATOM      9  C   LIG    1       25.698 -29.206   8.561  0.00  0.00    +0.007 A 
ATOM     10  C   LIG    1       26.122 -27.561   7.948  0.00  0.00    +0.046 A 
ATOM     11  C   LIG    1       25.799 -27.081   6.361  0.00  0.00    +0.121 A 
ATOM     12  C   LIG    1       24.826 -27.991   5.388  0.00  0.00    +0.046 A 
ATOM     13  C   LIG    1       24.121 -29.425   5.972  0.00  0.00    +0.007 A 
BRANCH   8  14
ATOM     14  C   LIG    1       23.674 -31.645   8.739  0.00  0.00    +0.035 C 
BRANCH  14  15
ATOM     15  C   LIG    1       24.700 -32.089  10.361  0.00  0.00    +0.005 C 
BRANCH  15  16
ATOM     16  C   LIG    1       24.930 -31.156  11.571  0.00  0.00    +0.000 C 
BRANCH  16  17
ATOM     17  C   LIG    1       23.667 -30.566  12.048  0.00  0.00    +0.000 C 
BRANCH  17  18
ATOM     18  C   LIG    1       23.761 -29.063  11.956  0.00  0.00    -0.000 C 
BRANCH  18  19
ATOM     19  C   LIG    1       23.725 -28.369  13.311  0.00  0.00    -0.000 C 
BRANCH  19  20
ATOM     20  C   LIG    1       23.323 -26.889  13.245  0.00  0.00    -0.000 C 
BRANCH  20  22
ATOM     21  C   LIG    1       20.823 -27.060  12.947  0.00  0.00    +0.004 C 
ATOM     22  C   LIG    1       21.948 -26.594  13.860  0.00  0.00    -0.003 C 
ENDBRANCH  20  22
ENDBRANCH  19  20
ENDBRANCH  18  19
ENDBRANCH  17  18
ENDBRANCH  16  17
ENDBRANCH  15  16
ENDBRANCH  14  15
ENDBRANCH   8  14
ENDBRANCH   7  11
ENDBRANCH   6   7
ENDBRANCH   5   6
ENDBRANCH   4   5
ENDBRANCH   3   4
ENDBRANCH   2   3
ENDBRANCH   1   2
BRANCH   1  23
ATOM     23  C   LIG    1       22.493 -21.154   5.370  0.00  0.00    +0.188 C 
BRANCH  23  24
ATOM     24  C   LIG    1       21.971 -19.944   4.674  0.00  0.00    +0.188 C 
BRANCH  24  25
ATOM     25  O   LIG    1       22.441 -18.656   5.238  0.00  0.00    -0.375 OA
BRANCH  25  26
ATOM     26  C   LIG    1       22.036 -17.406   4.444  0.00  0.00    +0.188 C 
BRANCH  26  27
ATOM     27  C   LIG    1       23.193 -15.353   4.608  0.00  0.00    +0.188 C 
BRANCH  27  28
ATOM     28  O   LIG    1       23.705 -14.429   3.782  0.00  0.00    -0.375 OA
BRANCH  28  29
ATOM     29  C   LIG    1       25.073 -14.243   4.059  0.00  0.00    +0.188 C 
BRANCH  29  30
ATOM     30  C   LIG    1       26.259 -15.284   3.375  0.00  0.00    +0.188 C 
BRANCH  30  31
ATOM     31  O   LIG    1       26.654 -16.994   3.418  0.00  0.00    -0.375 OA
BRANCH  31  32
ATOM     32  C   LIG    1       25.530 -18.060   3.324  0.00  0.00    +0.188 C 
BRANCH  32  33
ATOM     33  C   LIG    1       25.409 -19.625   3.604  0.00  0.00    +0.188 C 
BRANCH  33  34
ATOM     34  O   LIG    1       25.924 -20.404   4.836  0.00  0.00    -0.375 OA
BRANCH  34  35
ATOM     35  C   LIG    1       27.061 -20.045   5.860  0.00  0.00    +0.188 C 
BRANCH  35  36
ATOM     36  C   LIG    1       27.522 -21.136   7.234  0.00  0.00    +0.188 C 
BRANCH  36  37
ATOM     37  O   LIG    1       29.129 -20.768   8.337  0.00  0.00    -0.375 OA
BRANCH  37  38
ATOM     38  C   LIG    1       30.030 -19.012   8.278  0.00  0.00    +0.188 C 
BRANCH  38  39
ATOM     39  C   LIG    1       31.566 -18.735   8.486  0.00  0.00    +0.188 C 
BRANCH  39  40
ATOM     40  O   LIG    1       31.949 -18.474   9.865  0.00  0.00    -0.375 OA
BRANCH  40  41
ATOM     41  C   LIG    1       30.876 -17.963  10.604  0.00  0.00    +0.187 C 
BRANCH  41  42
ATOM     42  C   LIG    1       30.898 -16.445  10.761  0.00  0.00    +0.184 C 
BRANCH  42  43
ATOM     43  O   LIG    1       31.190 -15.997  12.082  0.00  0.00    -0.393 OA
ATOM     44  H   LIG    1       31.007 -15.039  12.099  0.00  0.00    +0.209 HD
ENDBRANCH  42  43
ENDBRANCH  41  42
ENDBRANCH  40  41
ENDBRANCH  39  40
ENDBRANCH  38  39
ENDBRANCH  37  38
ENDBRANCH  36  37
ENDBRANCH  35  36
ENDBRANCH  34  35
ENDBRANCH  33  34
ENDBRANCH  32  33
ENDBRANCH  31  32
ENDBRANCH  30  31
ENDBRANCH  29  30
ENDBRANCH  28  29
ENDBRANCH  27  28
ENDBRANCH  26  27
ENDBRANCH  25  26
ENDBRANCH  24  25
ENDBRANCH  23  24
ENDBRANCH   1  23
TORSDOF 36
ENDMDL
MODEL 2
REMARK VINA RESULT:      -7.6      2.670      5.531
REMARK  Name = *****
REMARK                            x       y       z     vdW  Elec       q    Type
REMARK                         _______ _______ _______ _____ _____    ______ ____
ROOT
ATOM      1  O   LIG    1       24.576 -27.397   4.996  0.00  0.00    -0.375 OA
ENDROOT
BRANCH   1   2
ATOM      2  C   LIG    1       24.997 -28.713   5.190  0.00  0.00    +0.188 C 
BRANCH   2   3
ATOM      3  C   LIG    1       24.335 -29.438   6.379  0.00  0.00    +0.188 C 
BRANCH   3   4
ATOM      4  O   LIG    1       23.379 -30.463   6.074  0.00  0.00    -0.374 OA
BRANCH   4   5
ATOM      5  C   LIG    1       23.725 -31.811   6.383  0.00  0.00    +0.201 C 
BRANCH   5   6
ATOM      6  C   LIG    1       24.801 -31.940   7.416  0.00  0.00    +0.257 C 
BRANCH   6   7
ATOM      7  O   LIG    1       24.333 -32.715   8.491  0.00  0.00    -0.490 OA
BRANCH   7  11
ATOM      8  C   LIG    1       21.488 -30.398  11.768  0.00  0.00    -0.047 A 
ATOM      9  C   LIG    1       23.257 -29.799  11.412  0.00  0.00    +0.007 A 
ATOM     10  C   LIG    1       24.073 -30.535   9.979  0.00  0.00    +0.046 A 
ATOM     11  C   LIG    1       23.587 -32.014   9.326  0.00  0.00    +0.121 A 
ATOM     12  C   LIG    1       22.166 -32.712   9.790  0.00  0.00    +0.046 A 
ATOM     13  C   LIG    1       21.160 -31.945  10.928  0.00  0.00    +0.007 A 
BRANCH   8  14
ATOM     14  C   LIG    1       20.610 -29.097  13.018  0.00  0.00    +0.035 C 
BRANCH  14  15
ATOM     15  C   LIG    1       21.083 -27.193  12.831  0.00  0.00    +0.005 C 
BRANCH  15  16
ATOM     16  C   LIG    1       22.201 -26.457  13.603  0.00  0.00    +0.000 C 
BRANCH  16  17
ATOM     17  C   LIG    1       23.396 -27.303  13.763  0.00  0.00    +0.000 C 
BRANCH  17  18
ATOM     18  C   LIG    1       24.628 -26.455  13.560  0.00  0.00    -0.000 C 
BRANCH  18  19
ATOM     19  C   LIG    1       25.874 -27.025  14.226  0.00  0.00    -0.000 C 
BRANCH  19  20
ATOM     20  C   LIG    1       27.087 -27.135  13.291  0.00  0.00    -0.000 C 
BRANCH  20  22
ATOM     21  C   LIG    1       27.096 -28.711  11.321  0.00  0.00    +0.004 C 
ATOM     22  C   LIG    1       26.713 -27.323  11.814  0.00  0.00    -0.003 C 
ENDBRANCH  20  22
ENDBRANCH  19  20
ENDBRANCH  18  19
ENDBRANCH  17  18
ENDBRANCH  16  17
ENDBRANCH  15  16
ENDBRANCH  14  15
ENDBRANCH   8  14
ENDBRANCH   7  11
ENDBRANCH   6   7
ENDBRANCH   5   6
ENDBRANCH   4   5
ENDBRANCH   3   4
ENDBRANCH   2   3
ENDBRANCH   1   2
BRANCH   1  23
ATOM     23  C   LIG    1       25.625 -26.406   5.044  0.00  0.00    +0.188 C 
BRANCH  23  24
ATOM     24  C   LIG    1       26.217 -26.103   6.378  0.00  0.00    +0.188 C 
BRANCH  24  25
ATOM     25  O   LIG    1       25.728 -24.850   7.000  0.00  0.00    -0.375 OA
BRANCH  25  26
ATOM     26  C   LIG    1       24.450 -24.266   6.381  0.00  0.00    +0.188 C 
BRANCH  26  27
ATOM     27  C   LIG    1       24.482 -22.741   4.576  0.00  0.00    +0.188 C 
BRANCH  27  28
ATOM     28  O   LIG    1       24.673 -21.428   4.385  0.00  0.00    -0.375 OA
BRANCH  28  29
ATOM     29  C   LIG    1       23.475 -20.729   4.629  0.00  0.00    +0.188 C 
BRANCH  29  30
ATOM     30  C   LIG    1       23.023 -20.289   6.230  0.00  0.00    +0.188 C 
BRANCH  30  31
ATOM     31  O   LIG    1       23.710 -20.402   7.841  0.00  0.00    -0.375 OA
BRANCH  31  32
ATOM     32  C   LIG    1       24.795 -21.466   8.157  0.00  0.00    +0.188 C 
BRANCH  32  33
ATOM     33  C   LIG    1       26.338 -21.444   8.558  0.00  0.00    +0.188 C 
BRANCH  33  34
ATOM     34  O   LIG    1       27.551 -21.758   7.653  0.00  0.00    -0.375 OA
BRANCH  34  35
ATOM     35  C   LIG    1       28.953 -21.053   7.555  0.00  0.00    +0.188 C 
BRANCH  35  36
ATOM     36  C   LIG    1       29.263 -19.638   6.463  0.00  0.00    +0.188 C 
BRANCH  36  37
ATOM     37  O   LIG    1       30.576 -18.235   6.955  0.00  0.00    -0.375 OA
BRANCH  37  38
ATOM     38  C   LIG    1       30.994 -17.843   8.845  0.00  0.00    +0.188 C 
BRANCH  38  39
ATOM     39  C   LIG    1       29.962 -17.664  10.019  0.00  0.00    +0.188 C 
BRANCH  39  40
ATOM     40  O   LIG    1       30.297 -16.605  10.959  0.00  0.00    -0.375 OA
BRANCH  40  41
ATOM     41  C   LIG    1       31.683 -16.452  11.081  0.00  0.00    +0.187 C 
BRANCH  41  42
ATOM     42  C   LIG    1       32.153 -16.157  12.503  0.00  0.00    +0.184 C 
BRANCH  42  43
ATOM     43  O   LIG    1       31.394 -15.156  13.175  0.00  0.00    -0.393 OA
ATOM     44  H   LIG    1       30.718 -14.847  12.543  0.00  0.00    +0.209 HD
ENDBRANCH  42  43
ENDBRANCH  41  42
ENDBRANCH  40  41
ENDBRANCH  39  40
ENDBRANCH  38  39
ENDBRANCH  37  38
ENDBRANCH  36  37
ENDBRANCH  35  36
ENDBRANCH  34  35
ENDBRANCH  33  34
ENDBRANCH  32  33
ENDBRANCH  31  32
ENDBRANCH  30  31
ENDBRANCH  29  30
ENDBRANCH  28  29
ENDBRANCH  27  28
ENDBRANCH  26  27
ENDBRANCH  25  26
ENDBRANCH  24  25
ENDBRANCH  23  24
ENDBRANCH   1  23
TORSDOF 36
ENDMDL
MODEL 3
REMARK VINA RESULT:      -7.4      1.340      2.089
REMARK  Name = *****
REMARK                            x       y       z     vdW  Elec       q    Type
REMARK                         _______ _______ _______ _____ _____    ______ ____
ROOT
ATOM      1  O   LIG    1       23.133 -21.031   6.622  0.00  0.00    -0.375 OA
ENDROOT
BRANCH   1   2
ATOM      2  C   LIG    1       23.319 -22.186   7.383  0.00  0.00    +0.188 C 
BRANCH   2   3
ATOM      3  C   LIG    1       22.564 -23.429   6.871  0.00  0.00    +0.188 C 
BRANCH   3   4
ATOM      4  O   LIG    1       23.343 -24.601   6.593  0.00  0.00    -0.374 OA
BRANCH   4   5
ATOM      5  C   LIG    1       24.621 -24.424   5.986  0.00  0.00    +0.201 C 
BRANCH   5   6
ATOM      6  C   LIG    1       25.657 -25.396   6.457  0.00  0.00    +0.257 C 
BRANCH   6   7
ATOM      7  O   LIG    1       25.445 -26.645   5.849  0.00  0.00    -0.490 OA
BRANCH   7  11
ATOM      8  C   LIG    1       25.015 -30.495   8.881  0.00  0.00    -0.047 A 
ATOM      9  C   LIG    1       26.335 -29.159   9.178  0.00  0.00    +0.007 A 
ATOM     10  C   LIG    1       26.184 -27.656   8.186  0.00  0.00    +0.046 A 
ATOM     11  C   LIG    1       25.325 -27.619   6.733  0.00  0.00    +0.121 A 
ATOM     12  C   LIG    1       24.348 -28.875   6.301  0.00  0.00    +0.046 A 
ATOM     13  C   LIG    1       24.181 -30.228   7.319  0.00  0.00    +0.007 A 
BRANCH   8  14
ATOM     14  C   LIG    1       25.052 -31.783  10.419  0.00  0.00    +0.035 C 
BRANCH  14  15
ATOM     15  C   LIG    1       24.351 -31.156  12.150  0.00  0.00    +0.005 C 
BRANCH  15  16
ATOM     16  C   LIG    1       23.299 -30.042  12.351  0.00  0.00    +0.000 C 
BRANCH  16  17
ATOM     17  C   LIG    1       22.241 -30.460  13.287  0.00  0.00    +0.000 C 
BRANCH  17  18
ATOM     18  C   LIG    1       21.391 -29.261  13.633  0.00  0.00    -0.000 C 
BRANCH  18  19
ATOM     19  C   LIG    1       21.803 -27.993  12.898  0.00  0.00    -0.000 C 
BRANCH  19  20
ATOM     20  C   LIG    1       20.855 -26.806  13.120  0.00  0.00    -0.000 C 
BRANCH  20  22
ATOM     21  C   LIG    1       18.520 -26.139  13.806  0.00  0.00    +0.004 C 
ATOM     22  C   LIG    1       19.652 -27.136  14.014  0.00  0.00    -0.003 C 
ENDBRANCH  20  22
ENDBRANCH  19  20
ENDBRANCH  18  19
ENDBRANCH  17  18
ENDBRANCH  16  17
ENDBRANCH  15  16
ENDBRANCH  14  15
ENDBRANCH   8  14
ENDBRANCH   7  11
ENDBRANCH   6   7
ENDBRANCH   5   6
ENDBRANCH   4   5
ENDBRANCH   3   4
ENDBRANCH   2   3
ENDBRANCH   1   2
BRANCH   1  23
ATOM     23  C   LIG    1       22.564 -21.248   5.312  0.00  0.00    +0.188 C 
BRANCH  23  24
ATOM     24  C   LIG    1       22.003 -20.061   4.608  0.00  0.00    +0.188 C 
BRANCH  24  25
ATOM     25  O   LIG    1       22.404 -18.755   5.182  0.00  0.00    -0.375 OA
BRANCH  25  26
ATOM     26  C   LIG    1       22.053 -17.528   4.329  0.00  0.00    +0.188 C 
BRANCH  26  27
ATOM     27  C   LIG    1       23.064 -15.416   4.645  0.00  0.00    +0.188 C 
BRANCH  27  28
ATOM     28  O   LIG    1       23.581 -14.436   3.889  0.00  0.00    -0.375 OA
BRANCH  28  29
ATOM     29  C   LIG    1       24.937 -14.242   4.219  0.00  0.00    +0.188 C 
BRANCH  29  30
ATOM     30  C   LIG    1       26.174 -15.129   3.417  0.00  0.00    +0.188 C 
BRANCH  30  31
ATOM     31  O   LIG    1       26.522 -16.809   3.046  0.00  0.00    -0.375 OA
BRANCH  31  32
ATOM     32  C   LIG    1       25.530 -17.926   3.465  0.00  0.00    +0.188 C 
BRANCH  32  33
ATOM     33  C   LIG    1       25.650 -19.427   3.990  0.00  0.00    +0.188 C 
BRANCH  33  34
ATOM     34  O   LIG    1       26.640 -19.981   5.039  0.00  0.00    -0.375 OA
BRANCH  34  35
ATOM     35  C   LIG    1       26.368 -20.736   6.390  0.00  0.00    +0.188 C 
BRANCH  35  36
ATOM     36  C   LIG    1       27.236 -20.331   7.931  0.00  0.00    +0.188 C 
BRANCH  36  37
ATOM     37  O   LIG    1       28.817 -21.377   8.519  0.00  0.00    -0.375 OA
BRANCH  37  38
ATOM     38  C   LIG    1       30.652 -20.704   8.235  0.00  0.00    +0.188 C 
BRANCH  38  39
ATOM     39  C   LIG    1       31.190 -19.266   8.579  0.00  0.00    +0.188 C 
BRANCH  39  40
ATOM     40  O   LIG    1       30.763 -18.226   7.655  0.00  0.00    -0.375 OA
BRANCH  40  41
ATOM     41  C   LIG    1       29.730 -18.676   6.826  0.00  0.00    +0.187 C 
BRANCH  41  42
ATOM     42  C   LIG    1       29.944 -18.372   5.345  0.00  0.00    +0.184 C 
BRANCH  42  43
ATOM     43  O   LIG    1       28.761 -17.993   4.648  0.00  0.00    -0.393 OA
ATOM     44  H   LIG    1       29.012 -17.886   3.711  0.00  0.00    +0.209 HD
ENDBRANCH  42  43
ENDBRANCH  41  42
ENDBRANCH  40  41
ENDBRANCH  39  40
ENDBRANCH  38  39
ENDBRANCH  37  38
ENDBRANCH  36  37
ENDBRANCH  35  36
ENDBRANCH  34  35
ENDBRANCH  33  34
ENDBRANCH  32  33
ENDBRANCH  31  32
ENDBRANCH  30  31
ENDBRANCH  29  30
ENDBRANCH  28  29
ENDBRANCH  27  28
ENDBRANCH  26  27
ENDBRANCH  25  26
ENDBRANCH  24  25
ENDBRANCH  23  24
ENDBRANCH   1  23
TORSDOF 36
ENDMDL
MODEL 4
REMARK VINA RESULT:      -7.4      3.398     11.822
REMARK  Name = *****
REMARK                            x       y       z     vdW  Elec       q    Type
REMARK                         _______ _______ _______ _____ _____    ______ ____
ROOT
ATOM      1  O   LIG    1       24.383 -26.383   4.961  0.00  0.00    -0.375 OA
ENDROOT
BRANCH   1   2
ATOM      2  C   LIG    1       25.076 -25.236   5.348  0.00  0.00    +0.188 C 
BRANCH   2   3
ATOM      3  C   LIG    1       24.469 -24.487   6.551  0.00  0.00    +0.188 C 
BRANCH   3   4
ATOM      4  O   LIG    1       23.040 -24.371   6.600  0.00  0.00    -0.374 OA
BRANCH   4   5
ATOM      5  C   LIG    1       22.485 -23.093   6.903  0.00  0.00    +0.201 C 
BRANCH   5   6
ATOM      6  C   LIG    1       22.636 -22.089   5.804  0.00  0.00    +0.257 C 
BRANCH   6   7
ATOM      7  O   LIG    1       23.020 -20.850   6.345  0.00  0.00    -0.490 OA
BRANCH   7  11
ATOM      8  C   LIG    1       27.876 -20.283   6.888  0.00  0.00    -0.047 A 
ATOM      9  C   LIG    1       26.735 -20.444   8.401  0.00  0.00    +0.007 A 
ATOM     10  C   LIG    1       25.036 -20.956   8.065  0.00  0.00    +0.046 A 
ATOM     11  C   LIG    1       24.324 -20.772   6.545  0.00  0.00    +0.121 A 
ATOM     12  C   LIG    1       25.238 -20.383   5.229  0.00  0.00    +0.046 A 
ATOM     13  C   LIG    1       26.919 -20.169   5.380  0.00  0.00    +0.007 A 
BRANCH   8  14
ATOM     14  C   LIG    1       29.780 -20.246   7.524  0.00  0.00    +0.035 C 
BRANCH  14  15
ATOM     15  C   LIG    1       30.661 -18.489   7.659  0.00  0.00    +0.005 C 
BRANCH  15  16
ATOM     16  C   LIG    1       31.766 -18.105   8.669  0.00  0.00    +0.000 C 
BRANCH  16  17
ATOM     17  C   LIG    1       31.398 -16.910   9.446  0.00  0.00    +0.000 C 
BRANCH  17  18
ATOM     18  C   LIG    1       30.562 -17.332  10.630  0.00  0.00    -0.000 C 
BRANCH  18  19
ATOM     19  C   LIG    1       31.328 -17.327  11.946  0.00  0.00    -0.000 C 
BRANCH  19  20
ATOM     20  C   LIG    1       31.768 -15.930  12.407  0.00  0.00    -0.000 C 
BRANCH  20  22
ATOM     21  C   LIG    1       32.412 -17.207  14.485  0.00  0.00    +0.004 C 
ATOM     22  C   LIG    1       32.641 -15.943  13.669  0.00  0.00    -0.003 C 
ENDBRANCH  20  22
ENDBRANCH  19  20
ENDBRANCH  18  19
ENDBRANCH  17  18
ENDBRANCH  16  17
ENDBRANCH  15  16
ENDBRANCH  14  15
ENDBRANCH   8  14
ENDBRANCH   7  11
ENDBRANCH   6   7
ENDBRANCH   5   6
ENDBRANCH   4   5
ENDBRANCH   3   4
ENDBRANCH   2   3
ENDBRANCH   1   2
BRANCH   1  23
ATOM     23  C   LIG    1       24.308 -27.420   5.964  0.00  0.00    +0.188 C 
BRANCH  23  24
ATOM     24  C   LIG    1       24.467 -28.828   5.503  0.00  0.00    +0.188 C 
BRANCH  24  25
ATOM     25  O   LIG    1       23.638 -29.815   6.235  0.00  0.00    -0.375 OA
BRANCH  25  26
ATOM     26  C   LIG    1       24.411 -30.978   6.872  0.00  0.00    +0.188 C 
BRANCH  26  27
ATOM     27  C   LIG    1       25.975 -30.674   8.617  0.00  0.00    +0.188 C 
BRANCH  27  28
ATOM     28  O   LIG    1       26.424 -29.673   9.389  0.00  0.00    -0.375 OA
BRANCH  28  29
ATOM     29  C   LIG    1       26.848 -30.180  10.633  0.00  0.00    +0.188 C 
BRANCH  29  30
ATOM     30  C   LIG    1       28.129 -29.428  11.500  0.00  0.00    +0.188 C 
BRANCH  30  31
ATOM     31  O   LIG    1       28.598 -29.210  13.176  0.00  0.00    -0.375 OA
BRANCH  31  32
ATOM     32  C   LIG    1       27.674 -29.707  14.320  0.00  0.00    +0.188 C 
BRANCH  32  33
ATOM     33  C   LIG    1       26.319 -29.207  14.996  0.00  0.00    +0.188 C 
BRANCH  33  34
ATOM     34  O   LIG    1       24.885 -29.324  14.430  0.00  0.00    -0.375 OA
BRANCH  34  35
ATOM     35  C   LIG    1       24.336 -30.173  13.226  0.00  0.00    +0.188 C 
BRANCH  35  36
ATOM     36  C   LIG    1       23.229 -29.484  11.966  0.00  0.00    +0.188 C 
BRANCH  36  37
ATOM     37  O   LIG    1       21.828 -28.163  12.447  0.00  0.00    -0.375 OA
BRANCH  37  38
ATOM     38  C   LIG    1       22.285 -26.477  13.366  0.00  0.00    +0.188 C 
BRANCH  38  39
ATOM     39  C   LIG    1       23.542 -26.211  14.275  0.00  0.00    +0.188 C 
BRANCH  39  40
ATOM     40  O   LIG    1       24.790 -26.052  13.544  0.00  0.00    -0.375 OA
BRANCH  40  41
ATOM     41  C   LIG    1       25.768 -25.439  14.336  0.00  0.00    +0.187 C 
BRANCH  41  42
ATOM     42  C   LIG    1       27.199 -25.798  13.943  0.00  0.00    +0.184 C 
BRANCH  42  43
ATOM     43  O   LIG    1       27.899 -24.760  13.264  0.00  0.00    -0.393 OA
ATOM     44  H   LIG    1       28.089 -25.092  12.367  0.00  0.00    +0.209 HD
ENDBRANCH  42  43
ENDBRANCH  41  42
ENDBRANCH  40  41
ENDBRANCH  39  40
ENDBRANCH  38  39
ENDBRANCH  37  38
ENDBRANCH  36  37
ENDBRANCH  35  36
ENDBRANCH  34  35
ENDBRANCH  33  34
ENDBRANCH  32  33
ENDBRANCH  31  32
ENDBRANCH  30  31
ENDBRANCH  29  30
ENDBRANCH  28  29
ENDBRANCH  27  28
ENDBRANCH  26  27
ENDBRANCH  25  26
ENDBRANCH  24  25
ENDBRANCH  23  24
ENDBRANCH   1  23
TORSDOF 36
ENDMDL
MODEL 5
REMARK VINA RESULT:      -7.2      3.571     11.915
REMARK  Name = *****
REMARK                            x       y       z     vdW  Elec       q    Type
REMARK                         _______ _______ _______ _____ _____    ______ ____
ROOT
ATOM      1  O   LIG    1       25.638 -25.969   4.999  0.00  0.00    -0.375 OA
ENDROOT
BRANCH   1   2
ATOM      2  C   LIG    1       25.141 -24.679   5.190  0.00  0.00    +0.188 C 
BRANCH   2   3
ATOM      3  C   LIG    1       24.440 -24.447   6.544  0.00  0.00    +0.188 C 
BRANCH   3   4
ATOM      4  O   LIG    1       23.020 -24.248   6.523  0.00  0.00    -0.374 OA
BRANCH   4   5
ATOM      5  C   LIG    1       22.520 -22.966   6.898  0.00  0.00    +0.201 C 
BRANCH   5   6
ATOM      6  C   LIG    1       22.524 -21.964   5.786  0.00  0.00    +0.257 C 
BRANCH   6   7
ATOM      7  O   LIG    1       22.982 -20.726   6.268  0.00  0.00    -0.490 OA
BRANCH   7  11
ATOM      8  C   LIG    1       27.858 -20.412   6.835  0.00  0.00    -0.047 A 
ATOM      9  C   LIG    1       26.706 -20.572   8.340  0.00  0.00    +0.007 A 
ATOM     10  C   LIG    1       24.985 -20.990   7.985  0.00  0.00    +0.046 A 
ATOM     11  C   LIG    1       24.287 -20.718   6.471  0.00  0.00    +0.121 A 
ATOM     12  C   LIG    1       25.222 -20.325   5.171  0.00  0.00    +0.046 A 
ATOM     13  C   LIG    1       26.911 -20.198   5.331  0.00  0.00    +0.007 A 
BRANCH   8  14
ATOM     14  C   LIG    1       29.759 -20.489   7.473  0.00  0.00    +0.035 C 
BRANCH  14  15
ATOM     15  C   LIG    1       30.801 -18.817   7.435  0.00  0.00    +0.005 C 
BRANCH  15  16
ATOM     16  C   LIG    1       31.826 -18.364   8.498  0.00  0.00    +0.000 C 
BRANCH  16  17
ATOM     17  C   LIG    1       31.288 -17.285   9.344  0.00  0.00    +0.000 C 
BRANCH  17  18
ATOM     18  C   LIG    1       32.302 -16.170   9.421  0.00  0.00    -0.000 C 
BRANCH  18  19
ATOM     19  C   LIG    1       32.704 -15.813  10.846  0.00  0.00    -0.000 C 
BRANCH  19  20
ATOM     20  C   LIG    1       31.667 -16.212  11.906  0.00  0.00    -0.000 C 
BRANCH  20  22
ATOM     21  C   LIG    1       32.456 -15.844  14.275  0.00  0.00    +0.004 C 
ATOM     22  C   LIG    1       32.280 -16.860  13.155  0.00  0.00    -0.003 C 
ENDBRANCH  20  22
ENDBRANCH  19  20
ENDBRANCH  18  19
ENDBRANCH  17  18
ENDBRANCH  16  17
ENDBRANCH  15  16
ENDBRANCH  14  15
ENDBRANCH   8  14
ENDBRANCH   7  11
ENDBRANCH   6   7
ENDBRANCH   5   6
ENDBRANCH   4   5
ENDBRANCH   3   4
ENDBRANCH   2   3
ENDBRANCH   1   2
BRANCH   1  23
ATOM     23  C   LIG    1       26.309 -26.540   6.144  0.00  0.00    +0.188 C 
BRANCH  23  24
ATOM     24  C   LIG    1       25.626 -27.664   6.844  0.00  0.00    +0.188 C 
BRANCH  24  25
ATOM     25  O   LIG    1       24.243 -27.932   6.380  0.00  0.00    -0.375 OA
BRANCH  25  26
ATOM     26  C   LIG    1       23.993 -29.349   5.848  0.00  0.00    +0.188 C 
BRANCH  26  27
ATOM     27  C   LIG    1       25.744 -30.831   5.278  0.00  0.00    +0.188 C 
BRANCH  27  28
ATOM     28  O   LIG    1       26.232 -32.005   5.704  0.00  0.00    -0.375 OA
BRANCH  28  29
ATOM     29  C   LIG    1       25.178 -32.915   5.914  0.00  0.00    +0.188 C 
BRANCH  29  30
ATOM     30  C   LIG    1       24.833 -33.514   7.490  0.00  0.00    +0.188 C 
BRANCH  30  31
ATOM     31  O   LIG    1       25.224 -33.086   9.146  0.00  0.00    -0.375 OA
BRANCH  31  32
ATOM     32  C   LIG    1       24.442 -31.958   9.870  0.00  0.00    +0.188 C 
BRANCH  32  33
ATOM     33  C   LIG    1       24.344 -30.371   9.746  0.00  0.00    +0.188 C 
BRANCH  33  34
ATOM     34  O   LIG    1       25.029 -29.313  10.641  0.00  0.00    -0.375 OA
BRANCH  34  35
ATOM     35  C   LIG    1       26.442 -28.637  10.510  0.00  0.00    +0.188 C 
BRANCH  35  36
ATOM     36  C   LIG    1       27.775 -28.915  11.709  0.00  0.00    +0.188 C 
BRANCH  36  37
ATOM     37  O   LIG    1       27.705 -28.108  13.521  0.00  0.00    -0.375 OA
BRANCH  37  38
ATOM     38  C   LIG    1       27.093 -26.251  13.791  0.00  0.00    +0.188 C 
BRANCH  38  39
ATOM     39  C   LIG    1       25.644 -25.787  14.196  0.00  0.00    +0.188 C 
BRANCH  39  40
ATOM     40  O   LIG    1       24.598 -26.206  13.275  0.00  0.00    -0.375 OA
BRANCH  40  41
ATOM     41  C   LIG    1       23.365 -26.323  13.925  0.00  0.00    +0.187 C 
BRANCH  41  42
ATOM     42  C   LIG    1       22.358 -27.206  13.191  0.00  0.00    +0.184 C 
BRANCH  42  43
ATOM     43  O   LIG    1       22.932 -28.342  12.552  0.00  0.00    -0.393 OA
ATOM     44  H   LIG    1       23.797 -28.058  12.202  0.00  0.00    +0.209 HD
ENDBRANCH  42  43
ENDBRANCH  41  42
ENDBRANCH  40  41
ENDBRANCH  39  40
ENDBRANCH  38  39
ENDBRANCH  37  38
ENDBRANCH  36  37
ENDBRANCH  35  36
ENDBRANCH  34  35
ENDBRANCH  33  34
ENDBRANCH  32  33
ENDBRANCH  31  32
ENDBRANCH  30  31
ENDBRANCH  29  30
ENDBRANCH  28  29
ENDBRANCH  27  28
ENDBRANCH  26  27
ENDBRANCH  25  26
ENDBRANCH  24  25
ENDBRANCH  23  24
ENDBRANCH   1  23
TORSDOF 36
ENDMDL
MODEL 6
REMARK VINA RESULT:      -7.1      3.632     12.705
REMARK  Name = *****
REMARK                            x       y       z     vdW  Elec       q    Type
REMARK                         _______ _______ _______ _____ _____    ______ ____
ROOT
ATOM      1  O   LIG    1       25.621 -25.501   4.730  0.00  0.00    -0.375 OA
ENDROOT
BRANCH   1   2
ATOM      2  C   LIG    1       25.053 -24.428   5.417  0.00  0.00    +0.188 C 
BRANCH   2   3
ATOM      3  C   LIG    1       24.028 -24.820   6.501  0.00  0.00    +0.188 C 
BRANCH   3   4
ATOM      4  O   LIG    1       22.790 -24.096   6.526  0.00  0.00    -0.374 OA
BRANCH   4   5
ATOM      5  C   LIG    1       22.817 -22.746   6.982  0.00  0.00    +0.201 C 
BRANCH   5   6
ATOM      6  C   LIG    1       22.666 -21.733   5.891  0.00  0.00    +0.257 C 
BRANCH   6   7
ATOM      7  O   LIG    1       23.212 -20.506   6.306  0.00  0.00    -0.490 OA
BRANCH   7  11
ATOM      8  C   LIG    1       28.073 -20.560   7.058  0.00  0.00    -0.047 A 
ATOM      9  C   LIG    1       26.858 -20.542   8.520  0.00  0.00    +0.007 A 
ATOM     10  C   LIG    1       25.122 -20.837   8.116  0.00  0.00    +0.046 A 
ATOM     11  C   LIG    1       24.505 -20.593   6.563  0.00  0.00    +0.121 A 
ATOM     12  C   LIG    1       25.517 -20.351   5.284  0.00  0.00    +0.046 A 
ATOM     13  C   LIG    1       27.204 -20.353   5.506  0.00  0.00    +0.007 A 
BRANCH   8  14
ATOM     14  C   LIG    1       29.936 -20.757   7.777  0.00  0.00    +0.035 C 
BRANCH  14  15
ATOM     15  C   LIG    1       31.228 -19.328   7.363  0.00  0.00    +0.005 C 
BRANCH  15  16
ATOM     16  C   LIG    1       31.777 -18.285   8.363  0.00  0.00    +0.000 C 
BRANCH  16  17
ATOM     17  C   LIG    1       31.047 -18.324   9.642  0.00  0.00    +0.000 C 
BRANCH  17  18
ATOM     18  C   LIG    1       30.534 -16.940   9.956  0.00  0.00    -0.000 C 
BRANCH  18  19
ATOM     19  C   LIG    1       30.914 -16.454  11.348  0.00  0.00    -0.000 C 
BRANCH  19  20
ATOM     20  C   LIG    1       32.392 -16.672  11.704  0.00  0.00    -0.000 C 
BRANCH  20  22
ATOM     21  C   LIG    1       32.453 -16.037  14.145  0.00  0.00    +0.004 C 
ATOM     22  C   LIG    1       32.929 -15.680  12.744  0.00  0.00    -0.003 C 
ENDBRANCH  20  22
ENDBRANCH  19  20
ENDBRANCH  18  19
ENDBRANCH  17  18
ENDBRANCH  16  17
ENDBRANCH  15  16
ENDBRANCH  14  15
ENDBRANCH   8  14
ENDBRANCH   7  11
ENDBRANCH   6   7
ENDBRANCH   5   6
ENDBRANCH   4   5
ENDBRANCH   3   4
ENDBRANCH   2   3
ENDBRANCH   1   2
BRANCH   1  23
ATOM     23  C   LIG    1       26.137 -26.558   5.567  0.00  0.00    +0.188 C 
BRANCH  23  24
ATOM     24  C   LIG    1       25.900 -27.959   5.120  0.00  0.00    +0.188 C 
BRANCH  24  25
ATOM     25  O   LIG    1       24.484 -28.395   5.178  0.00  0.00    -0.375 OA
BRANCH  25  26
ATOM     26  C   LIG    1       24.177 -29.493   6.205  0.00  0.00    +0.188 C 
BRANCH  26  27
ATOM     27  C   LIG    1       24.568 -31.786   5.785  0.00  0.00    +0.188 C 
BRANCH  27  28
ATOM     28  O   LIG    1       25.322 -32.775   6.285  0.00  0.00    -0.375 OA
BRANCH  28  29
ATOM     29  C   LIG    1       26.558 -32.260   6.723  0.00  0.00    +0.188 C 
BRANCH  29  30
ATOM     30  C   LIG    1       27.142 -32.601   8.305  0.00  0.00    +0.188 C 
BRANCH  30  31
ATOM     31  O   LIG    1       27.242 -31.772   9.849  0.00  0.00    -0.375 OA
BRANCH  31  32
ATOM     32  C   LIG    1       26.059 -30.903  10.350  0.00  0.00    +0.188 C 
BRANCH  32  33
ATOM     33  C   LIG    1       24.760 -31.142  11.244  0.00  0.00    +0.188 C 
BRANCH  33  34
ATOM     34  O   LIG    1       24.406 -30.468  12.590  0.00  0.00    -0.375 OA
BRANCH  34  35
ATOM     35  C   LIG    1       24.363 -28.946  12.981  0.00  0.00    +0.188 C 
BRANCH  35  36
ATOM     36  C   LIG    1       22.817 -28.001  13.069  0.00  0.00    +0.188 C 
BRANCH  36  37
ATOM     37  O   LIG    1       21.787 -27.879  14.760  0.00  0.00    -0.375 OA
BRANCH  37  38
ATOM     38  C   LIG    1       20.291 -29.111  15.137  0.00  0.00    +0.188 C 
BRANCH  38  39
ATOM     39  C   LIG    1       18.828 -29.017  14.564  0.00  0.00    +0.188 C 
BRANCH  39  40
ATOM     40  O   LIG    1       17.966 -28.077  15.266  0.00  0.00    -0.375 OA
BRANCH  40  41
ATOM     41  C   LIG    1       17.498 -27.077  14.406  0.00  0.00    +0.187 C 
BRANCH  41  42
ATOM     42  C   LIG    1       18.553 -26.042  14.024  0.00  0.00    +0.184 C 
BRANCH  42  43
ATOM     43  O   LIG    1       19.327 -26.389  12.880  0.00  0.00    -0.393 OA
ATOM     44  H   LIG    1       18.955 -25.890  12.129  0.00  0.00    +0.209 HD
ENDBRANCH  42  43
ENDBRANCH  41  42
ENDBRANCH  40  41
ENDBRANCH  39  40
ENDBRANCH  38  39
ENDBRANCH  37  38
ENDBRANCH  36  37
ENDBRANCH  35  36
ENDBRANCH  34  35
ENDBRANCH  33  34
ENDBRANCH  32  33
ENDBRANCH  31  32
ENDBRANCH  30  31
ENDBRANCH  29  30
ENDBRANCH  28  29
ENDBRANCH  27  28
ENDBRANCH  26  27
ENDBRANCH  25  26
ENDBRANCH  24  25
ENDBRANCH  23  24
ENDBRANCH   1  23
TORSDOF 36
ENDMDL
MODEL 7
REMARK VINA RESULT:      -7.1      3.675     12.587
REMARK  Name = *****
REMARK                            x       y       z     vdW  Elec       q    Type
REMARK                         _______ _______ _______ _____ _____    ______ ____
ROOT
ATOM      1  O   LIG    1       24.444 -26.274   4.873  0.00  0.00    -0.375 OA
ENDROOT
BRANCH   1   2
ATOM      2  C   LIG    1       25.001 -25.073   5.313  0.00  0.00    +0.188 C 
BRANCH   2   3
ATOM      3  C   LIG    1       24.361 -24.490   6.589  0.00  0.00    +0.188 C 
BRANCH   3   4
ATOM      4  O   LIG    1       22.960 -24.185   6.541  0.00  0.00    -0.374 OA
BRANCH   4   5
ATOM      5  C   LIG    1       22.553 -22.868   6.908  0.00  0.00    +0.201 C 
BRANCH   5   6
ATOM      6  C   LIG    1       22.655 -21.869   5.798  0.00  0.00    +0.257 C 
BRANCH   6   7
ATOM      7  O   LIG    1       23.141 -20.651   6.302  0.00  0.00    -0.490 OA
BRANCH   7  11
ATOM      8  C   LIG    1       28.001 -20.522   7.052  0.00  0.00    -0.047 A 
ATOM      9  C   LIG    1       26.790 -20.675   8.510  0.00  0.00    +0.007 A 
ATOM     10  C   LIG    1       25.070 -21.024   8.083  0.00  0.00    +0.046 A 
ATOM     11  C   LIG    1       24.437 -20.694   6.552  0.00  0.00    +0.121 A 
ATOM     12  C   LIG    1       25.433 -20.306   5.296  0.00  0.00    +0.046 A 
ATOM     13  C   LIG    1       27.119 -20.242   5.520  0.00  0.00    +0.007 A 
BRANCH   8  14
ATOM     14  C   LIG    1       29.874 -20.681   7.756  0.00  0.00    +0.035 C 
BRANCH  14  15
ATOM     15  C   LIG    1       30.857 -19.011   8.114  0.00  0.00    +0.005 C 
BRANCH  15  16
ATOM     16  C   LIG    1       30.224 -17.627   8.382  0.00  0.00    +0.000 C 
BRANCH  16  17
ATOM     17  C   LIG    1       30.323 -17.253   9.803  0.00  0.00    +0.000 C 
BRANCH  17  18
ATOM     18  C   LIG    1       31.609 -17.805  10.368  0.00  0.00    -0.000 C 
BRANCH  18  19
ATOM     19  C   LIG    1       32.752 -16.798  10.369  0.00  0.00    -0.000 C 
BRANCH  19  20
ATOM     20  C   LIG    1       32.674 -15.767  11.504  0.00  0.00    -0.000 C 
BRANCH  20  22
ATOM     21  C   LIG    1       32.574 -15.845  14.024  0.00  0.00    +0.004 C 
ATOM     22  C   LIG    1       31.887 -16.254  12.728  0.00  0.00    -0.003 C 
ENDBRANCH  20  22
ENDBRANCH  19  20
ENDBRANCH  18  19
ENDBRANCH  17  18
ENDBRANCH  16  17
ENDBRANCH  15  16
ENDBRANCH  14  15
ENDBRANCH   8  14
ENDBRANCH   7  11
ENDBRANCH   6   7
ENDBRANCH   5   6
ENDBRANCH   4   5
ENDBRANCH   3   4
ENDBRANCH   2   3
ENDBRANCH   1   2
BRANCH   1  23
ATOM     23  C   LIG    1       24.414 -27.331   5.857  0.00  0.00    +0.188 C 
BRANCH  23  24
ATOM     24  C   LIG    1       24.347 -28.731   5.353  0.00  0.00    +0.188 C 
BRANCH  24  25
ATOM     25  O   LIG    1       23.627 -29.674   6.242  0.00  0.00    -0.375 OA
BRANCH  25  26
ATOM     26  C   LIG    1       24.493 -30.774   6.871  0.00  0.00    +0.188 C 
BRANCH  26  27
ATOM     27  C   LIG    1       26.022 -30.356   8.623  0.00  0.00    +0.188 C 
BRANCH  27  28
ATOM     28  O   LIG    1       26.337 -29.349   9.450  0.00  0.00    -0.375 OA
BRANCH  28  29
ATOM     29  C   LIG    1       26.638 -29.856  10.730  0.00  0.00    +0.188 C 
BRANCH  29  30
ATOM     30  C   LIG    1       28.072 -29.378  11.551  0.00  0.00    +0.188 C 
BRANCH  30  31
ATOM     31  O   LIG    1       28.622 -29.242  13.212  0.00  0.00    -0.375 OA
BRANCH  31  32
ATOM     32  C   LIG    1       27.596 -29.185  14.375  0.00  0.00    +0.188 C 
BRANCH  32  33
ATOM     33  C   LIG    1       26.202 -28.457  14.638  0.00  0.00    +0.188 C 
BRANCH  33  34
ATOM     34  O   LIG    1       24.795 -28.934  14.209  0.00  0.00    -0.375 OA
BRANCH  34  35
ATOM     35  C   LIG    1       24.335 -30.302  13.587  0.00  0.00    +0.188 C 
BRANCH  35  36
ATOM     36  C   LIG    1       23.190 -30.404  12.183  0.00  0.00    +0.188 C 
BRANCH  36  37
ATOM     37  O   LIG    1       21.565 -29.269  12.104  0.00  0.00    -0.375 OA
BRANCH  37  38
ATOM     38  C   LIG    1       21.510 -27.498  12.976  0.00  0.00    +0.188 C 
BRANCH  38  39
ATOM     39  C   LIG    1       20.294 -26.499  12.999  0.00  0.00    +0.188 C 
BRANCH  39  40
ATOM     40  O   LIG    1       19.477 -26.574  14.201  0.00  0.00    -0.375 OA
BRANCH  40  41
ATOM     41  C   LIG    1       18.166 -26.151  13.952  0.00  0.00    +0.187 C 
BRANCH  41  42
ATOM     42  C   LIG    1       17.098 -27.011  14.624  0.00  0.00    +0.184 C 
BRANCH  42  43
ATOM     43  O   LIG    1       16.242 -27.697  13.716  0.00  0.00    -0.393 OA
ATOM     44  H   LIG    1       16.123 -28.598  14.070  0.00  0.00    +0.209 HD
ENDBRANCH  42  43
ENDBRANCH  41  42
ENDBRANCH  40  41
ENDBRANCH  39  40
ENDBRANCH  38  39
ENDBRANCH  37  38
ENDBRANCH  36  37
ENDBRANCH  35  36
ENDBRANCH  34  35
ENDBRANCH  33  34
ENDBRANCH  32  33
ENDBRANCH  31  32
ENDBRANCH  30  31
ENDBRANCH  29  30
ENDBRANCH  28  29
ENDBRANCH  27  28
ENDBRANCH  26  27
ENDBRANCH  25  26
ENDBRANCH  24  25
ENDBRANCH  23  24
ENDBRANCH   1  23
TORSDOF 36
ENDMDL
MODEL 8
REMARK VINA RESULT:      -7.1      3.521     12.137
REMARK  Name = *****
REMARK                            x       y       z     vdW  Elec       q    Type
REMARK                         _______ _______ _______ _____ _____    ______ ____
ROOT
ATOM      1  O   LIG    1       25.563 -25.524   4.663  0.00  0.00    -0.375 OA
ENDROOT
BRANCH   1   2
ATOM      2  C   LIG    1       25.008 -24.449   5.358  0.00  0.00    +0.188 C 
BRANCH   2   3
ATOM      3  C   LIG    1       24.052 -24.840   6.503  0.00  0.00    +0.188 C 
BRANCH   3   4
ATOM      4  O   LIG    1       22.762 -24.213   6.524  0.00  0.00    -0.374 OA
BRANCH   4   5
ATOM      5  C   LIG    1       22.680 -22.873   7.006  0.00  0.00    +0.201 C 
BRANCH   5   6
ATOM      6  C   LIG    1       22.523 -21.848   5.927  0.00  0.00    +0.257 C 
BRANCH   6   7
ATOM      7  O   LIG    1       23.027 -20.614   6.370  0.00  0.00    -0.490 OA
BRANCH   7  11
ATOM      8  C   LIG    1       27.923 -20.431   6.811  0.00  0.00    -0.047 A 
ATOM      9  C   LIG    1       26.806 -20.527   8.346  0.00  0.00    +0.007 A 
ATOM     10  C   LIG    1       25.065 -20.902   8.042  0.00  0.00    +0.046 A 
ATOM     11  C   LIG    1       24.337 -20.640   6.541  0.00  0.00    +0.121 A 
ATOM     12  C   LIG    1       25.250 -20.302   5.210  0.00  0.00    +0.046 A 
ATOM     13  C   LIG    1       26.946 -20.221   5.326  0.00  0.00    +0.007 A 
BRANCH   8  14
ATOM     14  C   LIG    1       29.837 -20.551   7.404  0.00  0.00    +0.035 C 
BRANCH  14  15
ATOM     15  C   LIG    1       30.956 -18.942   7.200  0.00  0.00    +0.005 C 
BRANCH  15  16
ATOM     16  C   LIG    1       31.811 -18.287   8.308  0.00  0.00    +0.000 C 
BRANCH  16  17
ATOM     17  C   LIG    1       31.238 -18.523   9.645  0.00  0.00    +0.000 C 
BRANCH  17  18
ATOM     18  C   LIG    1       30.310 -17.384   9.989  0.00  0.00    -0.000 C 
BRANCH  18  19
ATOM     19  C   LIG    1       30.796 -16.538  11.158  0.00  0.00    -0.000 C 
BRANCH  19  20
ATOM     20  C   LIG    1       32.168 -16.957  11.705  0.00  0.00    -0.000 C 
BRANCH  20  22
ATOM     21  C   LIG    1       32.417 -15.947  14.004  0.00  0.00    +0.004 C 
ATOM     22  C   LIG    1       32.854 -15.873  12.547  0.00  0.00    -0.003 C 
ENDBRANCH  20  22
ENDBRANCH  19  20
ENDBRANCH  18  19
ENDBRANCH  17  18
ENDBRANCH  16  17
ENDBRANCH  15  16
ENDBRANCH  14  15
ENDBRANCH   8  14
ENDBRANCH   7  11
ENDBRANCH   6   7
ENDBRANCH   5   6
ENDBRANCH   4   5
ENDBRANCH   3   4
ENDBRANCH   2   3
ENDBRANCH   1   2
BRANCH   1  23
ATOM     23  C   LIG    1       26.183 -26.532   5.491  0.00  0.00    +0.188 C 
BRANCH  23  24
ATOM     24  C   LIG    1       25.822 -27.952   5.221  0.00  0.00    +0.188 C 
BRANCH  24  25
ATOM     25  O   LIG    1       24.390 -28.276   5.426  0.00  0.00    -0.375 OA
BRANCH  25  26
ATOM     26  C   LIG    1       24.088 -29.171   6.636  0.00  0.00    +0.188 C 
BRANCH  26  27
ATOM     27  C   LIG    1       24.104 -31.531   6.520  0.00  0.00    +0.188 C 
BRANCH  27  28
ATOM     28  O   LIG    1       24.933 -32.538   6.831  0.00  0.00    -0.375 OA
BRANCH  28  29
ATOM     29  C   LIG    1       26.142 -32.023   7.338  0.00  0.00    +0.188 C 
BRANCH  29  30
ATOM     30  C   LIG    1       26.774 -32.577   8.840  0.00  0.00    +0.188 C 
BRANCH  30  31
ATOM     31  O   LIG    1       26.367 -32.435  10.541  0.00  0.00    -0.375 OA
BRANCH  31  32
ATOM     32  C   LIG    1       24.997 -31.848  10.973  0.00  0.00    +0.188 C 
BRANCH  32  33
ATOM     33  C   LIG    1       23.712 -31.271  10.226  0.00  0.00    +0.188 C 
BRANCH  33  34
ATOM     34  O   LIG    1       22.238 -31.690  10.430  0.00  0.00    -0.375 OA
BRANCH  34  35
ATOM     35  C   LIG    1       20.953 -30.809  10.639  0.00  0.00    +0.188 C 
BRANCH  35  36
ATOM     36  C   LIG    1       20.194 -30.557  12.267  0.00  0.00    +0.188 C 
BRANCH  36  37
ATOM     37  O   LIG    1       20.298 -28.800  13.183  0.00  0.00    -0.375 OA
BRANCH  37  38
ATOM     38  C   LIG    1       22.007 -27.820  13.325  0.00  0.00    +0.188 C 
BRANCH  38  39
ATOM     39  C   LIG    1       23.368 -28.197  12.631  0.00  0.00    +0.188 C 
BRANCH  39  40
ATOM     40  O   LIG    1       24.519 -28.194  13.521  0.00  0.00    -0.375 OA
BRANCH  40  41
ATOM     41  C   LIG    1       25.357 -27.102  13.267  0.00  0.00    +0.187 C 
BRANCH  41  42
ATOM     42  C   LIG    1       26.794 -27.488  12.927  0.00  0.00    +0.184 C 
BRANCH  42  43
ATOM     43  O   LIG    1       27.778 -26.602  13.451  0.00  0.00    -0.393 OA
ATOM     44  H   LIG    1       27.313 -25.994  14.056  0.00  0.00    +0.209 HD
ENDBRANCH  42  43
ENDBRANCH  41  42
ENDBRANCH  40  41
ENDBRANCH  39  40
ENDBRANCH  38  39
ENDBRANCH  37  38
ENDBRANCH  36  37
ENDBRANCH  35  36
ENDBRANCH  34  35
ENDBRANCH  33  34
ENDBRANCH  32  33
ENDBRANCH  31  32
ENDBRANCH  30  31
ENDBRANCH  29  30
ENDBRANCH  28  29
ENDBRANCH  27  28
ENDBRANCH  26  27
ENDBRANCH  25  26
ENDBRANCH  24  25
ENDBRANCH  23  24
ENDBRANCH   1  23
TORSDOF 36
ENDMDL
MODEL 9
REMARK VINA RESULT:      -7.0      3.553     12.335
REMARK  Name = *****
REMARK                            x       y       z     vdW  Elec       q    Type
REMARK                         _______ _______ _______ _____ _____    ______ ____
ROOT
ATOM      1  O   LIG    1       25.876 -25.246   5.174  0.00  0.00    -0.375 OA
ENDROOT
BRANCH   1   2
ATOM      2  C   LIG    1       24.962 -24.261   5.549  0.00  0.00    +0.188 C 
BRANCH   2   3
ATOM      3  C   LIG    1       23.903 -24.714   6.575  0.00  0.00    +0.188 C 
BRANCH   3   4
ATOM      4  O   LIG    1       22.622 -24.070   6.523  0.00  0.00    -0.374 OA
BRANCH   4   5
ATOM      5  C   LIG    1       22.546 -22.704   6.926  0.00  0.00    +0.201 C 
BRANCH   5   6
ATOM      6  C   LIG    1       22.522 -21.735   5.786  0.00  0.00    +0.257 C 
BRANCH   6   7
ATOM      7  O   LIG    1       23.042 -20.499   6.205  0.00  0.00    -0.490 OA
BRANCH   7  11
ATOM      8  C   LIG    1       27.917 -20.419   6.857  0.00  0.00    -0.047 A 
ATOM      9  C   LIG    1       26.732 -20.498   8.342  0.00  0.00    +0.007 A 
ATOM     10  C   LIG    1       24.999 -20.835   7.962  0.00  0.00    +0.046 A 
ATOM     11  C   LIG    1       24.342 -20.553   6.432  0.00  0.00    +0.121 A 
ATOM     12  C   LIG    1       25.318 -20.227   5.143  0.00  0.00    +0.046 A 
ATOM     13  C   LIG    1       27.009 -20.182   5.332  0.00  0.00    +0.007 A 
BRANCH   8  14
ATOM     14  C   LIG    1       29.800 -20.580   7.531  0.00  0.00    +0.035 C 
BRANCH  14  15
ATOM     15  C   LIG    1       30.892 -18.941   7.585  0.00  0.00    +0.005 C 
BRANCH  15  16
ATOM     16  C   LIG    1       30.705 -17.760   8.564  0.00  0.00    +0.000 C 
BRANCH  16  17
ATOM     17  C   LIG    1       31.773 -17.723   9.577  0.00  0.00    +0.000 C 
BRANCH  17  18
ATOM     18  C   LIG    1       32.463 -16.382   9.514  0.00  0.00    -0.000 C 
BRANCH  18  19
ATOM     19  C   LIG    1       32.752 -15.782  10.883  0.00  0.00    -0.000 C 
BRANCH  19  20
ATOM     20  C   LIG    1       32.014 -16.476  12.037  0.00  0.00    -0.000 C 
BRANCH  20  22
ATOM     21  C   LIG    1       32.386 -16.991  14.479  0.00  0.00    +0.004 C 
ATOM     22  C   LIG    1       32.347 -15.898  13.419  0.00  0.00    -0.003 C 
ENDBRANCH  20  22
ENDBRANCH  19  20
ENDBRANCH  18  19
ENDBRANCH  17  18
ENDBRANCH  16  17
ENDBRANCH  15  16
ENDBRANCH  14  15
ENDBRANCH   8  14
ENDBRANCH   7  11
ENDBRANCH   6   7
ENDBRANCH   5   6
ENDBRANCH   4   5
ENDBRANCH   3   4
ENDBRANCH   2   3
ENDBRANCH   1   2
BRANCH   1  23
ATOM     23  C   LIG    1       26.308 -26.117   6.242  0.00  0.00    +0.188 C 
BRANCH  23  24
ATOM     24  C   LIG    1       26.322 -27.581   5.964  0.00  0.00    +0.188 C 
BRANCH  24  25
ATOM     25  O   LIG    1       25.307 -28.033   4.982  0.00  0.00    -0.375 OA
BRANCH  25  26
ATOM     26  C   LIG    1       24.061 -28.696   5.586  0.00  0.00    +0.188 C 
BRANCH  26  27
ATOM     27  C   LIG    1       24.146 -30.732   6.783  0.00  0.00    +0.188 C 
BRANCH  27  28
ATOM     28  O   LIG    1       24.652 -31.188   7.938  0.00  0.00    -0.375 OA
BRANCH  28  29
ATOM     29  C   LIG    1       25.975 -31.629   7.740  0.00  0.00    +0.188 C 
BRANCH  29  30
ATOM     30  C   LIG    1       27.096 -31.663   9.045  0.00  0.00    +0.188 C 
BRANCH  30  31
ATOM     31  O   LIG    1       27.800 -30.515  10.171  0.00  0.00    -0.375 OA
BRANCH  31  32
ATOM     32  C   LIG    1       26.982 -29.287  10.651  0.00  0.00    +0.188 C 
BRANCH  32  33
ATOM     33  C   LIG    1       27.252 -28.028  11.592  0.00  0.00    +0.188 C 
BRANCH  33  34
ATOM     34  O   LIG    1       26.219 -27.001  12.111  0.00  0.00    -0.375 OA
BRANCH  34  35
ATOM     35  C   LIG    1       25.379 -26.991  13.439  0.00  0.00    +0.188 C 
BRANCH  35  36
ATOM     36  C   LIG    1       23.723 -27.723  13.556  0.00  0.00    +0.188 C 
BRANCH  36  37
ATOM     37  O   LIG    1       22.122 -26.737  12.923  0.00  0.00    -0.375 OA
BRANCH  37  38
ATOM     38  C   LIG    1       20.405 -26.842  13.893  0.00  0.00    +0.188 C 
BRANCH  38  39
ATOM     39  C   LIG    1       19.727 -28.140  14.468  0.00  0.00    +0.188 C 
BRANCH  39  40
ATOM     40  O   LIG    1       19.756 -29.284  13.568  0.00  0.00    -0.375 OA
BRANCH  40  41
ATOM     41  C   LIG    1       20.780 -30.174  13.910  0.00  0.00    +0.187 C 
BRANCH  41  42
ATOM     42  C   LIG    1       21.629 -30.629  12.726  0.00  0.00    +0.184 C 
BRANCH  42  43
ATOM     43  O   LIG    1       21.662 -29.706  11.641  0.00  0.00    -0.393 OA
ATOM     44  H   LIG    1       22.598 -29.617  11.380  0.00  0.00    +0.209 HD
ENDBRANCH  42  43
ENDBRANCH  41  42
ENDBRANCH  40  41
ENDBRANCH  39  40
ENDBRANCH  38  39
ENDBRANCH  37  38
ENDBRANCH  36  37
ENDBRANCH  35  36
ENDBRANCH  34  35
ENDBRANCH  33  34
ENDBRANCH  32  33
ENDBRANCH  31  32
ENDBRANCH  30  31
ENDBRANCH  29  30
ENDBRANCH  28  29
ENDBRANCH  27  28
ENDBRANCH  26  27
ENDBRANCH  25  26
ENDBRANCH  24  25
ENDBRANCH  23  24
ENDBRANCH   1  23
TORSDOF 36
ENDMDL
