MODEL 1
REMARK VINA RESULT:      -2.7      0.000      0.000
REMARK  Name = *****
REMARK                            x       y       z     vdW  Elec       q    Type
REMARK                         _______ _______ _______ _____ _____    ______ ____
ROOT
ATOM      1  C   LIG    1       23.397 -27.947  14.121  0.00  0.00    +0.264 C 
ATOM      2  C   LIG    1       24.922 -27.608  14.116  0.00  0.00    +0.257 C 
ATOM      3  O   LIG    1       25.480 -27.195  15.137  0.00  0.00    -0.272 OA
ATOM      4  N   LIG    1       25.603 -27.659  12.898  0.00  0.00    -0.288 N 
ATOM      5  C   LIG    1       26.185 -26.345  12.577  0.00  0.00    +0.133 C 
ATOM      6  C   LIG    1       26.605 -28.736  12.651  0.00  0.00    +0.187 C 
ATOM      7  C   LIG    1       26.815 -28.852  11.111  0.00  0.00    +0.329 C 
ATOM      8  O   LIG    1       27.715 -28.242  10.547  0.00  0.00    -0.249 OA
ATOM      9  O   LIG    1       25.850 -29.582  10.454  0.00  0.00    -0.450 OA
ATOM     10  C   LIG    1       25.980 -29.613   9.006  0.00  0.00    +0.264 C 
ATOM     11  C   LIG    1       25.822 -31.040   8.394  0.00  0.00    +0.257 C 
ATOM     12  O   LIG    1       26.719 -31.529   7.702  0.00  0.00    -0.272 OA
ATOM     13  N   LIG    1       24.575 -31.666   8.509  0.00  0.00    -0.288 N 
ATOM     14  C   LIG    1       24.061 -32.001   7.171  0.00  0.00    +0.133 C 
ATOM     15  C   LIG    1       24.428 -32.840   9.426  0.00  0.00    +0.187 C 
ATOM     16  C   LIG    1       22.914 -33.007   9.754  0.00  0.00    +0.329 C 
ATOM     17  O   LIG    1       22.176 -33.675   9.033  0.00  0.00    -0.249 OA
ATOM     18  O   LIG    1       22.466 -32.237  10.801  0.00  0.00    -0.450 OA
ATOM     19  C   LIG    1       21.026 -32.218  10.969  0.00  0.00    +0.264 C 
ATOM     20  C   LIG    1       20.557 -32.459  12.442  0.00  0.00    +0.257 C 
ATOM     21  O   LIG    1       19.957 -33.493  12.746  0.00  0.00    -0.272 OA
ATOM     22  N   LIG    1       20.676 -31.405  13.353  0.00  0.00    -0.288 N 
ATOM     23  C   LIG    1       19.388 -31.117  14.002  0.00  0.00    +0.133 C 
ATOM     24  C   LIG    1       21.785 -31.382  14.353  0.00  0.00    +0.187 C 
ATOM     25  C   LIG    1       22.119 -29.886  14.658  0.00  0.00    +0.329 C 
ATOM     26  O   LIG    1       21.486 -29.247  15.480  0.00  0.00    -0.249 OA
ATOM     27  O   LIG    1       23.102 -29.347  13.861  0.00  0.00    -0.450 OA
ENDROOT
BRANCH   1  29
ATOM     28  C   LIG    1       22.934 -25.552  13.283  0.00  0.00    +0.011 C 
ATOM     29  C   LIG    1       22.521 -27.018  13.235  0.00  0.00    +0.033 C 
ATOM     30  C   LIG    1       21.023 -27.141  13.546  0.00  0.00    +0.011 C 
ENDBRANCH   1  29
BRANCH   6  31
ATOM     31  C   LIG    1       26.510 -30.125  13.335  0.00  0.00    +0.014 C 
ATOM     32  C   LIG    1       27.350 -31.135  12.522  0.00  0.00    +0.009 C 
ATOM     33  C   LIG    1       27.080 -30.192  14.755  0.00  0.00    +0.009 C 
ENDBRANCH   6  31
BRANCH  10  34
ATOM     34  C   LIG    1       25.018 -28.604   8.315  0.00  0.00    +0.033 C 
ATOM     35  C   LIG    1       24.296 -29.218   7.108  0.00  0.00    +0.011 C 
ATOM     36  C   LIG    1       25.748 -27.367   7.797  0.00  0.00    +0.011 C 
ENDBRANCH  10  34
BRANCH  15  37
ATOM     37  C   LIG    1       25.336 -33.022  10.672  0.00  0.00    +0.014 C 
ATOM     38  C   LIG    1       24.561 -33.823  11.740  0.00  0.00    +0.009 C 
ATOM     39  C   LIG    1       26.619 -33.825  10.426  0.00  0.00    +0.009 C 
ENDBRANCH  15  37
BRANCH  19  40
ATOM     40  C   LIG    1       20.408 -30.925  10.362  0.00  0.00    +0.033 C 
ATOM     41  C   LIG    1       20.850 -29.663  11.118  0.00  0.00    +0.011 C 
ATOM     42  C   LIG    1       18.874 -30.936  10.362  0.00  0.00    +0.011 C 
ENDBRANCH  19  40
BRANCH  24  43
ATOM     43  C   LIG    1       23.040 -32.290  14.225  0.00  0.00    +0.014 C 
ATOM     44  C   LIG    1       24.072 -31.859  15.291  0.00  0.00    +0.009 C 
ATOM     45  C   LIG    1       22.801 -33.783  14.492  0.00  0.00    +0.009 C 
ENDBRANCH  24  43
TORSDOF 6
ENDMDL
MODEL 2
REMARK VINA RESULT:      -1.7      0.305      6.303
REMARK  Name = *****
REMARK                            x       y       z     vdW  Elec       q    Type
REMARK                         _______ _______ _______ _____ _____    ______ ____
ROOT
ATOM      1  C   LIG    1       25.769 -29.524   8.867  0.00  0.00    +0.264 C 
ATOM      2  C   LIG    1       25.660 -30.964   8.271  0.00  0.00    +0.257 C 
ATOM      3  O   LIG    1       26.580 -31.441   7.600  0.00  0.00    -0.272 OA
ATOM      4  N   LIG    1       24.447 -31.642   8.408  0.00  0.00    -0.288 N 
ATOM      5  C   LIG    1       23.894 -31.979   7.086  0.00  0.00    +0.133 C 
ATOM      6  C   LIG    1       24.352 -32.820   9.318  0.00  0.00    +0.187 C 
ATOM      7  C   LIG    1       22.846 -33.045   9.655  0.00  0.00    +0.329 C 
ATOM      8  O   LIG    1       22.161 -33.821   9.001  0.00  0.00    -0.249 OA
ATOM      9  O   LIG    1       22.351 -32.225  10.644  0.00  0.00    -0.450 OA
ATOM     10  C   LIG    1       20.924 -32.356  10.896  0.00  0.00    +0.264 C 
ATOM     11  C   LIG    1       20.564 -32.455  12.411  0.00  0.00    +0.257 C 
ATOM     12  O   LIG    1       19.936 -33.423  12.845  0.00  0.00    -0.272 OA
ATOM     13  N   LIG    1       20.821 -31.339  13.218  0.00  0.00    -0.288 N 
ATOM     14  C   LIG    1       19.574 -30.892  13.859  0.00  0.00    +0.133 C 
ATOM     15  C   LIG    1       21.925 -31.405  14.227  0.00  0.00    +0.187 C 
ATOM     16  C   LIG    1       22.324 -29.945  14.599  0.00  0.00    +0.329 C 
ATOM     17  O   LIG    1       21.748 -29.338  15.498  0.00  0.00    -0.249 OA
ATOM     18  O   LIG    1       23.241 -29.368  13.753  0.00  0.00    -0.450 OA
ATOM     19  C   LIG    1       23.450 -27.948  13.959  0.00  0.00    +0.264 C 
ATOM     20  C   LIG    1       24.956 -27.532  14.025  0.00  0.00    +0.257 C 
ATOM     21  O   LIG    1       25.447 -27.126  15.082  0.00  0.00    -0.272 OA
ATOM     22  N   LIG    1       25.675 -27.463  12.828  0.00  0.00    -0.288 N 
ATOM     23  C   LIG    1       26.307 -26.144  12.665  0.00  0.00    +0.133 C 
ATOM     24  C   LIG    1       26.621 -28.551  12.442  0.00  0.00    +0.187 C 
ATOM     25  C   LIG    1       26.662 -28.614  10.881  0.00  0.00    +0.329 C 
ATOM     26  O   LIG    1       27.386 -27.877  10.233  0.00  0.00    -0.249 OA
ATOM     27  O   LIG    1       25.755 -29.483  10.321  0.00  0.00    -0.450 OA
ENDROOT
BRANCH   1  29
ATOM     28  C   LIG    1       24.037 -28.995   7.031  0.00  0.00    +0.011 C 
ATOM     29  C   LIG    1       24.769 -28.495   8.270  0.00  0.00    +0.033 C 
ATOM     30  C   LIG    1       25.422 -27.139   7.969  0.00  0.00    +0.011 C 
ENDBRANCH   1  29
BRANCH   6  31
ATOM     31  C   LIG    1       25.260 -32.974  10.566  0.00  0.00    +0.014 C 
ATOM     32  C   LIG    1       24.512 -33.823  11.619  0.00  0.00    +0.009 C 
ATOM     33  C   LIG    1       26.577 -33.718  10.324  0.00  0.00    +0.009 C 
ENDBRANCH   6  31
BRANCH  10  34
ATOM     34  C   LIG    1       20.106 -31.229  10.203  0.00  0.00    +0.033 C 
ATOM     35  C   LIG    1       20.477 -29.834  10.723  0.00  0.00    +0.011 C 
ATOM     36  C   LIG    1       18.603 -31.385  10.421  0.00  0.00    +0.011 C 
ENDBRANCH  10  34
BRANCH  15  37
ATOM     37  C   LIG    1       23.155 -32.332  14.033  0.00  0.00    +0.014 C 
ATOM     38  C   LIG    1       24.228 -31.962  15.078  0.00  0.00    +0.009 C 
ATOM     39  C   LIG    1       22.881 -33.825  14.255  0.00  0.00    +0.009 C 
ENDBRANCH  15  37
BRANCH  19  40
ATOM     40  C   LIG    1       22.655 -27.110  12.917  0.00  0.00    +0.033 C 
ATOM     41  C   LIG    1       22.670 -25.610  13.249  0.00  0.00    +0.011 C 
ATOM     42  C   LIG    1       21.184 -27.531  12.805  0.00  0.00    +0.011 C 
ENDBRANCH  19  40
BRANCH  24  43
ATOM     43  C   LIG    1       26.607 -29.947  13.123  0.00  0.00    +0.014 C 
ATOM     44  C   LIG    1       27.631 -30.857  12.409  0.00  0.00    +0.009 C 
ATOM     45  C   LIG    1       27.031 -29.963  14.599  0.00  0.00    +0.009 C 
ENDBRANCH  24  43
TORSDOF 6
ENDMDL
