MODEL 1
REMARK VINA RESULT:      -7.6      0.000      0.000
REMARK  Name = *****
REMARK                            x       y       z     vdW  Elec       q    Type
REMARK                         _______ _______ _______ _____ _____    ______ ____
ROOT
ATOM      1  C   LIG    1       26.209 -21.290   6.750  0.00  0.00    +0.255 A 
ATOM      2  N   LIG    1       25.203 -20.607   7.349  0.00  0.00    -0.194 NA
ATOM      3  C   LIG    1       23.998 -21.205   7.484  0.00  0.00    +0.149 A 
ATOM      4  C   LIG    1       23.819 -22.505   6.979  0.00  0.00    +0.147 A 
ATOM      5  N   LIG    1       22.731 -23.350   6.929  0.00  0.00    -0.231 NA
ATOM      6  C   LIG    1       23.174 -24.437   6.328  0.00  0.00    +0.203 A 
ATOM      7  N   LIG    1       24.503 -24.337   5.990  0.00  0.00    -0.285 N 
ATOM      8  C   LIG    1       24.921 -23.095   6.387  0.00  0.00    +0.170 A 
ATOM      9  N   LIG    1       26.133 -22.543   6.239  0.00  0.00    -0.191 NA
ENDROOT
BRANCH   1  12
ATOM     10  C   LIG    1       29.476 -19.717   6.957  0.00  0.00    +0.075 A 
ATOM     11  C   LIG    1       28.501 -20.534   7.499  0.00  0.00    +0.130 A 
ATOM     12  N   LIG    1       27.471 -20.618   6.589  0.00  0.00    -0.205 N 
ATOM     13  N   LIG    1       27.767 -19.929   5.448  0.00  0.00    -0.172 NA
ATOM     14  C   LIG    1       28.950 -19.370   5.696  0.00  0.00    +0.148 A 
BRANCH  10  18
ATOM     15  C   LIG    1       31.737 -18.140   9.487  0.00  0.00    +0.128 C 
ATOM     16  N   LIG    1       30.593 -18.600   8.744  0.00  0.00    -0.314 N 
ATOM     17  H   LIG    1       29.679 -18.333   9.078  0.00  0.00    +0.149 HD
ATOM     18  C   LIG    1       30.726 -19.331   7.588  0.00  0.00    +0.247 C 
ATOM     19  O   LIG    1       31.822 -19.644   7.117  0.00  0.00    -0.270 OA
ENDBRANCH  10  18
ENDBRANCH   1  12
BRANCH   7  20
ATOM     20  C1* LIG    1       25.276 -25.388   5.340  0.00  0.00    +0.253 C 
ATOM     21  C2* LIG    1       26.289 -26.076   6.255  0.00  0.00    +0.195 C 
ATOM     22  C3* LIG    1       26.340 -27.483   5.681  0.00  0.00    +0.178 C 
ATOM     23  C4* LIG    1       24.938 -27.706   5.123  0.00  0.00    +0.177 C 
ATOM     24  O4* LIG    1       24.397 -26.401   4.807  0.00  0.00    -0.346 OA
BRANCH  21  25
ATOM     25  O2* LIG    1       27.583 -25.464   6.195  0.00  0.00    -0.385 OA
ATOM     26  H2* LIG    1       27.530 -24.834   5.443  0.00  0.00    +0.210 HD
ENDBRANCH  21  25
BRANCH  22  27
ATOM     27  O3* LIG    1       27.306 -27.489   4.610  0.00  0.00    -0.386 OA
ATOM     28  H3* LIG    1       27.982 -26.820   4.837  0.00  0.00    +0.210 HD
ENDBRANCH  22  27
BRANCH  23  29
ATOM     29  C5* LIG    1       24.033 -28.440   6.111  0.00  0.00    +0.190 C 
BRANCH  29  30
ATOM     30  O5* LIG    1       23.261 -29.422   5.439  0.00  0.00    -0.392 OA
ATOM     31  H5* LIG    1       22.912 -29.986   6.167  0.00  0.00    +0.209 HD
ENDBRANCH  29  30
ENDBRANCH  23  29
ENDBRANCH   7  20
BRANCH   3  32
ATOM     32  N   LIG    1       22.990 -20.474   8.098  0.00  0.00    -0.341 N 
ATOM     33  H   LIG    1       22.813 -20.791   9.043  0.00  0.00    +0.144 HD
ATOM     34  H   LIG    1       23.068 -19.474   7.946  0.00  0.00    +0.144 HD
ENDBRANCH   3  32
TORSDOF 8
ENDMDL
MODEL 2
REMARK VINA RESULT:      -7.3      2.597      4.126
REMARK  Name = *****
REMARK                            x       y       z     vdW  Elec       q    Type
REMARK                         _______ _______ _______ _____ _____    ______ ____
ROOT
ATOM      1  C   LIG    1       27.508 -19.691   5.784  0.00  0.00    +0.255 A 
ATOM      2  N   LIG    1       27.584 -18.646   4.924  0.00  0.00    -0.194 NA
ATOM      3  C   LIG    1       26.595 -18.473   4.019  0.00  0.00    +0.149 A 
ATOM      4  C   LIG    1       25.533 -19.394   3.982  0.00  0.00    +0.147 A 
ATOM      5  N   LIG    1       24.421 -19.511   3.174  0.00  0.00    -0.231 NA
ATOM      6  C   LIG    1       23.792 -20.583   3.619  0.00  0.00    +0.203 A 
ATOM      7  N   LIG    1       24.444 -21.163   4.681  0.00  0.00    -0.285 N 
ATOM      8  C   LIG    1       25.571 -20.419   4.910  0.00  0.00    +0.170 A 
ATOM      9  N   LIG    1       26.525 -20.624   5.828  0.00  0.00    -0.191 NA
ENDROOT
BRANCH   1  12
ATOM     10  C   LIG    1       30.355 -19.534   8.036  0.00  0.00    +0.075 A 
ATOM     11  C   LIG    1       29.390 -18.900   7.274  0.00  0.00    +0.130 A 
ATOM     12  N   LIG    1       28.591 -19.872   6.715  0.00  0.00    -0.205 N 
ATOM     13  N   LIG    1       28.967 -21.116   7.132  0.00  0.00    -0.172 NA
ATOM     14  C   LIG    1       30.040 -20.900   7.891  0.00  0.00    +0.148 A 
BRANCH  10  18
ATOM     15  C   LIG    1       32.401 -16.736   9.442  0.00  0.00    +0.128 C 
ATOM     16  N   LIG    1       31.409 -17.519   8.754  0.00  0.00    -0.314 N 
ATOM     17  H   LIG    1       30.715 -17.025   8.212  0.00  0.00    +0.149 HD
ATOM     18  C   LIG    1       31.424 -18.893   8.781  0.00  0.00    +0.247 C 
ATOM     19  O   LIG    1       32.276 -19.541   9.392  0.00  0.00    -0.270 OA
ENDBRANCH  10  18
ENDBRANCH   1  12
BRANCH   7  20
ATOM     20  C1* LIG    1       23.977 -22.343   5.397  0.00  0.00    +0.253 C 
ATOM     21  C2* LIG    1       24.950 -23.522   5.361  0.00  0.00    +0.195 C 
ATOM     22  C3* LIG    1       24.676 -24.209   6.690  0.00  0.00    +0.178 C 
ATOM     23  C4* LIG    1       24.264 -23.070   7.617  0.00  0.00    +0.177 C 
ATOM     24  O4* LIG    1       23.721 -22.021   6.782  0.00  0.00    -0.346 OA
BRANCH  21  25
ATOM     25  O2* LIG    1       24.685 -24.414   4.272  0.00  0.00    -0.385 OA
ATOM     26  H2* LIG    1       23.711 -24.375   4.144  0.00  0.00    +0.210 HD
ENDBRANCH  21  25
BRANCH  22  27
ATOM     27  O3* LIG    1       23.571 -25.117   6.498  0.00  0.00    -0.386 OA
ATOM     28  H3* LIG    1       23.068 -24.789   5.728  0.00  0.00    +0.210 HD
ENDBRANCH  22  27
BRANCH  23  29
ATOM     29  C5* LIG    1       25.437 -22.547   8.445  0.00  0.00    +0.190 C 
BRANCH  29  30
ATOM     30  O5* LIG    1       25.336 -21.141   8.613  0.00  0.00    -0.392 OA
ATOM     31  H5* LIG    1       25.398 -20.789   7.696  0.00  0.00    +0.209 HD
ENDBRANCH  29  30
ENDBRANCH  23  29
ENDBRANCH   7  20
BRANCH   3  32
ATOM     32  N   LIG    1       26.707 -17.395   3.151  0.00  0.00    -0.341 N 
ATOM     33  H   LIG    1       26.552 -16.512   3.620  0.00  0.00    +0.144 HD
ATOM     34  H   LIG    1       27.506 -17.461   2.529  0.00  0.00    +0.144 HD
ENDBRANCH   3  32
TORSDOF 8
ENDMDL
MODEL 3
REMARK VINA RESULT:      -7.2      2.021      8.288
REMARK  Name = *****
REMARK                            x       y       z     vdW  Elec       q    Type
REMARK                         _______ _______ _______ _____ _____    ______ ____
ROOT
ATOM      1  C   LIG    1       26.104 -21.504   5.739  0.00  0.00    +0.255 A 
ATOM      2  N   LIG    1       25.542 -20.843   4.697  0.00  0.00    -0.194 NA
ATOM      3  C   LIG    1       26.101 -19.684   4.282  0.00  0.00    +0.149 A 
ATOM      4  C   LIG    1       27.231 -19.189   4.957  0.00  0.00    +0.147 A 
ATOM      5  N   LIG    1       27.989 -18.048   4.803  0.00  0.00    -0.231 NA
ATOM      6  C   LIG    1       28.918 -18.131   5.737  0.00  0.00    +0.203 A 
ATOM      7  N   LIG    1       28.799 -19.278   6.486  0.00  0.00    -0.285 N 
ATOM      8  C   LIG    1       27.709 -19.954   6.005  0.00  0.00    +0.170 A 
ATOM      9  N   LIG    1       27.192 -21.110   6.445  0.00  0.00    -0.191 NA
ENDROOT
BRANCH   1  12
ATOM     10  C   LIG    1       24.988 -24.857   6.576  0.00  0.00    +0.075 A 
ATOM     11  C   LIG    1       25.973 -23.997   6.125  0.00  0.00    +0.130 A 
ATOM     12  N   LIG    1       25.470 -22.717   6.183  0.00  0.00    -0.205 N 
ATOM     13  N   LIG    1       24.211 -22.708   6.709  0.00  0.00    -0.172 NA
ATOM     14  C   LIG    1       23.925 -23.993   6.907  0.00  0.00    +0.148 A 
BRANCH  10  18
ATOM     15  C   LIG    1       24.125 -28.427   5.864  0.00  0.00    +0.128 C 
ATOM     16  N   LIG    1       24.167 -26.989   5.891  0.00  0.00    -0.314 N 
ATOM     17  H   LIG    1       23.473 -26.490   5.353  0.00  0.00    +0.149 HD
ATOM     18  C   LIG    1       25.078 -26.305   6.659  0.00  0.00    +0.247 C 
ATOM     19  O   LIG    1       25.915 -26.870   7.366  0.00  0.00    -0.270 OA
ENDBRANCH  10  18
ENDBRANCH   1  12
BRANCH   7  20
ATOM     20  C1* LIG    1       29.694 -19.658   7.571  0.00  0.00    +0.253 C 
ATOM     21  C2* LIG    1       31.120 -19.131   7.418  0.00  0.00    +0.195 C 
ATOM     22  C3* LIG    1       31.557 -18.951   8.864  0.00  0.00    +0.178 C 
ATOM     23  C4* LIG    1       30.264 -18.610   9.600  0.00  0.00    +0.177 C 
ATOM     24  O4* LIG    1       29.179 -19.185   8.835  0.00  0.00    -0.346 OA
BRANCH  21  25
ATOM     25  O2* LIG    1       31.978 -20.065   6.750  0.00  0.00    -0.385 OA
ATOM     26  H2* LIG    1       31.509 -20.285   5.915  0.00  0.00    +0.210 HD
ENDBRANCH  21  25
BRANCH  22  27
ATOM     27  O3* LIG    1       32.074 -20.214   9.330  0.00  0.00    -0.386 OA
ATOM     28  H3* LIG    1       33.038 -20.200   9.171  0.00  0.00    +0.210 HD
ENDBRANCH  22  27
BRANCH  23  29
ATOM     29  C5* LIG    1       30.071 -17.103   9.760  0.00  0.00    +0.190 C 
BRANCH  29  30
ATOM     30  O5* LIG    1       30.221 -16.727  11.120  0.00  0.00    -0.392 OA
ATOM     31  H5* LIG    1       29.476 -17.182  11.574  0.00  0.00    +0.209 HD
ENDBRANCH  29  30
ENDBRANCH  23  29
ENDBRANCH   7  20
BRANCH   3  32
ATOM     32  N   LIG    1       25.497 -19.032   3.215  0.00  0.00    -0.341 N 
ATOM     33  H   LIG    1       24.489 -19.015   3.302  0.00  0.00    +0.144 HD
ATOM     34  H   LIG    1       25.960 -18.167   2.959  0.00  0.00    +0.144 HD
ENDBRANCH   3  32
TORSDOF 8
ENDMDL
MODEL 4
REMARK VINA RESULT:      -7.0      2.294      8.001
REMARK  Name = *****
REMARK                            x       y       z     vdW  Elec       q    Type
REMARK                         _______ _______ _______ _____ _____    ______ ____
ROOT
ATOM      1  C   LIG    1       24.793 -24.685   6.306  0.00  0.00    +0.255 A 
ATOM      2  N   LIG    1       23.480 -24.447   6.543  0.00  0.00    -0.194 NA
ATOM      3  C   LIG    1       23.105 -23.215   6.958  0.00  0.00    +0.149 A 
ATOM      4  C   LIG    1       24.090 -22.230   7.151  0.00  0.00    +0.147 A 
ATOM      5  N   LIG    1       24.035 -20.924   7.591  0.00  0.00    -0.231 NA
ATOM      6  C   LIG    1       25.286 -20.508   7.569  0.00  0.00    +0.203 A 
ATOM      7  N   LIG    1       26.150 -21.483   7.130  0.00  0.00    -0.285 N 
ATOM      8  C   LIG    1       25.394 -22.598   6.877  0.00  0.00    +0.170 A 
ATOM      9  N   LIG    1       25.809 -23.801   6.458  0.00  0.00    -0.191 NA
ENDROOT
BRANCH   1  12
ATOM     10  C   LIG    1       25.260 -28.226   5.641  0.00  0.00    +0.075 A 
ATOM     11  C   LIG    1       24.487 -27.187   6.128  0.00  0.00    +0.130 A 
ATOM     12  N   LIG    1       25.169 -26.013   5.898  0.00  0.00    -0.205 N 
ATOM     13  N   LIG    1       26.333 -26.246   5.226  0.00  0.00    -0.172 NA
ATOM     14  C   LIG    1       26.390 -27.571   5.110  0.00  0.00    +0.148 A 
BRANCH  10  18
ATOM     15  C   LIG    1       25.832 -31.918   5.441  0.00  0.00    +0.128 C 
ATOM     16  N   LIG    1       25.988 -30.487   5.426  0.00  0.00    -0.314 N 
ATOM     17  H   LIG    1       26.891 -30.116   5.170  0.00  0.00    +0.149 HD
ATOM     18  C   LIG    1       24.939 -29.641   5.697  0.00  0.00    +0.247 C 
ATOM     19  O   LIG    1       23.807 -30.045   5.972  0.00  0.00    -0.270 OA
ENDBRANCH  10  18
ENDBRANCH   1  12
BRANCH   7  20
ATOM     20  C1* LIG    1       27.588 -21.311   6.975  0.00  0.00    +0.253 C 
ATOM     21  C2* LIG    1       27.989 -20.022   6.258  0.00  0.00    +0.195 C 
ATOM     22  C3* LIG    1       29.334 -19.703   6.893  0.00  0.00    +0.178 C 
ATOM     23  C4* LIG    1       29.215 -20.257   8.309  0.00  0.00    +0.177 C 
ATOM     24  O4* LIG    1       28.237 -21.323   8.265  0.00  0.00    -0.346 OA
BRANCH  21  25
ATOM     25  O2* LIG    1       28.135 -20.206   4.844  0.00  0.00    -0.385 OA
ATOM     26  H2* LIG    1       29.064 -20.501   4.722  0.00  0.00    +0.210 HD
ENDBRANCH  21  25
BRANCH  22  27
ATOM     27  O3* LIG    1       30.349 -20.423   6.163  0.00  0.00    -0.386 OA
ATOM     28  H3* LIG    1       30.533 -21.239   6.667  0.00  0.00    +0.210 HD
ENDBRANCH  22  27
BRANCH  23  29
ATOM     29  C5* LIG    1       28.797 -19.185   9.315  0.00  0.00    +0.190 C 
BRANCH  29  30
ATOM     30  O5* LIG    1       29.915 -18.394   9.687  0.00  0.00    -0.392 OA
ATOM     31  H5* LIG    1       29.575 -17.839  10.426  0.00  0.00    +0.209 HD
ENDBRANCH  29  30
ENDBRANCH  23  29
ENDBRANCH   7  20
BRANCH   3  32
ATOM     32  N   LIG    1       21.753 -23.008   7.195  0.00  0.00    -0.341 N 
ATOM     33  H   LIG    1       21.337 -23.771   7.713  0.00  0.00    +0.144 HD
ATOM     34  H   LIG    1       21.539 -22.063   7.498  0.00  0.00    +0.144 HD
ENDBRANCH   3  32
TORSDOF 8
ENDMDL
MODEL 5
REMARK VINA RESULT:      -6.8      4.948      8.347
REMARK  Name = *****
REMARK                            x       y       z     vdW  Elec       q    Type
REMARK                         _______ _______ _______ _____ _____    ______ ____
ROOT
ATOM      1  C   LIG    1       25.110 -29.144   6.050  0.00  0.00    +0.255 A 
ATOM      2  N   LIG    1       25.275 -29.972   4.989  0.00  0.00    -0.194 NA
ATOM      3  C   LIG    1       25.355 -31.304   5.207  0.00  0.00    +0.149 A 
ATOM      4  C   LIG    1       25.289 -31.786   6.527  0.00  0.00    +0.147 A 
ATOM      5  N   LIG    1       25.375 -33.051   7.067  0.00  0.00    -0.231 NA
ATOM      6  C   LIG    1       25.248 -32.872   8.368  0.00  0.00    +0.203 A 
ATOM      7  N   LIG    1       25.080 -31.548   8.695  0.00  0.00    -0.285 N 
ATOM      8  C   LIG    1       25.123 -30.841   7.522  0.00  0.00    +0.170 A 
ATOM      9  N   LIG    1       25.031 -29.515   7.351  0.00  0.00    -0.191 NA
ENDROOT
BRANCH   1  12
ATOM     10  C   LIG    1       24.490 -25.574   5.792  0.00  0.00    +0.075 A 
ATOM     11  C   LIG    1       24.276 -26.788   6.421  0.00  0.00    +0.130 A 
ATOM     12  N   LIG    1       25.062 -27.729   5.794  0.00  0.00    -0.205 N 
ATOM     13  N   LIG    1       25.824 -27.159   4.815  0.00  0.00    -0.172 NA
ATOM     14  C   LIG    1       25.447 -25.882   4.804  0.00  0.00    +0.148 A 
BRANCH  10  18
ATOM     15  C   LIG    1       23.924 -21.876   5.787  0.00  0.00    +0.128 C 
ATOM     16  N   LIG    1       24.441 -23.201   5.564  0.00  0.00    -0.314 N 
ATOM     17  H   LIG    1       25.286 -23.289   5.020  0.00  0.00    +0.149 HD
ATOM     18  C   LIG    1       23.846 -24.313   6.111  0.00  0.00    +0.247 C 
ATOM     19  O   LIG    1       22.838 -24.252   6.819  0.00  0.00    -0.270 OA
ENDBRANCH  10  18
ENDBRANCH   1  12
BRANCH   7  20
ATOM     20  C1* LIG    1       24.889 -31.044  10.049  0.00  0.00    +0.253 C 
ATOM     21  C2* LIG    1       25.949 -31.512  11.045  0.00  0.00    +0.195 C 
ATOM     22  C3* LIG    1       26.018 -30.345  12.018  0.00  0.00    +0.178 C 
ATOM     23  C4* LIG    1       25.687 -29.129  11.158  0.00  0.00    +0.177 C 
ATOM     24  O4* LIG    1       24.883 -29.600  10.051  0.00  0.00    -0.346 OA
BRANCH  21  25
ATOM     25  O2* LIG    1       25.563 -32.711  11.730  0.00  0.00    -0.385 OA
ATOM     26  H2* LIG    1       25.298 -32.415  12.628  0.00  0.00    +0.210 HD
ENDBRANCH  21  25
BRANCH  22  27
ATOM     27  O3* LIG    1       24.995 -30.540  13.016  0.00  0.00    -0.386 OA
ATOM     28  H3* LIG    1       25.396 -31.074  13.729  0.00  0.00    +0.210 HD
ENDBRANCH  22  27
BRANCH  23  29
ATOM     29  C5* LIG    1       26.942 -28.421  10.650  0.00  0.00    +0.190 C 
BRANCH  29  30
ATOM     30  O5* LIG    1       27.095 -28.627   9.255  0.00  0.00    -0.392 OA
ATOM     31  H5* LIG    1       26.484 -27.970   8.851  0.00  0.00    +0.209 HD
ENDBRANCH  29  30
ENDBRANCH  23  29
ENDBRANCH   7  20
BRANCH   3  32
ATOM     32  N   LIG    1       25.527 -32.121   4.098  0.00  0.00    -0.341 N 
ATOM     33  H   LIG    1       26.499 -32.192   3.826  0.00  0.00    +0.144 HD
ATOM     34  H   LIG    1       24.990 -32.980   4.145  0.00  0.00    +0.144 HD
ENDBRANCH   3  32
TORSDOF 8
ENDMDL
MODEL 6
REMARK VINA RESULT:      -6.7      4.860      7.623
REMARK  Name = *****
REMARK                            x       y       z     vdW  Elec       q    Type
REMARK                         _______ _______ _______ _____ _____    ______ ____
ROOT
ATOM      1  C   LIG    1       25.259 -28.168   6.417  0.00  0.00    +0.255 A 
ATOM      2  N   LIG    1       25.335 -29.071   5.410  0.00  0.00    -0.194 NA
ATOM      3  C   LIG    1       25.307 -30.389   5.712  0.00  0.00    +0.149 A 
ATOM      4  C   LIG    1       25.223 -30.780   7.060  0.00  0.00    +0.147 A 
ATOM      5  N   LIG    1       25.211 -32.012   7.679  0.00  0.00    -0.231 NA
ATOM      6  C   LIG    1       25.121 -31.742   8.967  0.00  0.00    +0.203 A 
ATOM      7  N   LIG    1       25.070 -30.390   9.211  0.00  0.00    -0.285 N 
ATOM      8  C   LIG    1       25.153 -29.764   7.995  0.00  0.00    +0.170 A 
ATOM      9  N   LIG    1       25.170 -28.448   7.741  0.00  0.00    -0.191 NA
ENDROOT
BRANCH   1  12
ATOM     10  C   LIG    1       25.503 -24.553   6.166  0.00  0.00    +0.075 A 
ATOM     11  C   LIG    1       25.662 -25.719   6.892  0.00  0.00    +0.130 A 
ATOM     12  N   LIG    1       25.325 -26.773   6.072  0.00  0.00    -0.205 N 
ATOM     13  N   LIG    1       25.007 -26.336   4.819  0.00  0.00    -0.172 NA
ATOM     14  C   LIG    1       25.085 -25.010   4.900  0.00  0.00    +0.148 A 
BRANCH  10  18
ATOM     15  C   LIG    1       25.702 -20.819   6.034  0.00  0.00    +0.128 C 
ATOM     16  N   LIG    1       25.525 -22.211   5.714  0.00  0.00    -0.314 N 
ATOM     17  H   LIG    1       25.287 -22.446   4.761  0.00  0.00    +0.149 HD
ATOM     18  C   LIG    1       25.721 -23.200   6.648  0.00  0.00    +0.247 C 
ATOM     19  O   LIG    1       26.055 -22.965   7.811  0.00  0.00    -0.270 OA
ENDBRANCH  10  18
ENDBRANCH   1  12
BRANCH   7  20
ATOM     20  C1* LIG    1       24.944 -29.788  10.532  0.00  0.00    +0.253 C 
ATOM     21  C2* LIG    1       25.047 -30.785  11.686  0.00  0.00    +0.195 C 
ATOM     22  C3* LIG    1       25.662 -29.940  12.791  0.00  0.00    +0.178 C 
ATOM     23  C4* LIG    1       26.531 -28.932  12.045  0.00  0.00    +0.177 C 
ATOM     24  O4* LIG    1       25.961 -28.780  10.723  0.00  0.00    -0.346 OA
BRANCH  21  25
ATOM     25  O2* LIG    1       23.766 -31.284  12.091  0.00  0.00    -0.385 OA
ATOM     26  H2* LIG    1       23.818 -32.255  11.955  0.00  0.00    +0.210 HD
ENDBRANCH  21  25
BRANCH  22  27
ATOM     27  O3* LIG    1       24.590 -29.260  13.476  0.00  0.00    -0.386 OA
ATOM     28  H3* LIG    1       23.908 -29.062  12.805  0.00  0.00    +0.210 HD
ENDBRANCH  22  27
BRANCH  23  29
ATOM     29  C5* LIG    1       27.988 -29.380  11.955  0.00  0.00    +0.190 C 
BRANCH  29  30
ATOM     30  O5* LIG    1       28.240 -29.998  10.703  0.00  0.00    -0.392 OA
ATOM     31  H5* LIG    1       27.894 -30.912  10.817  0.00  0.00    +0.209 HD
ENDBRANCH  29  30
ENDBRANCH  23  29
ENDBRANCH   7  20
BRANCH   3  32
ATOM     32  N   LIG    1       25.391 -31.286   4.656  0.00  0.00    -0.341 N 
ATOM     33  H   LIG    1       25.610 -30.825   3.782  0.00  0.00    +0.144 HD
ATOM     34  H   LIG    1       25.910 -32.128   4.884  0.00  0.00    +0.144 HD
ENDBRANCH   3  32
TORSDOF 8
ENDMDL
MODEL 7
REMARK VINA RESULT:      -6.7      4.916      8.292
REMARK  Name = *****
REMARK                            x       y       z     vdW  Elec       q    Type
REMARK                         _______ _______ _______ _____ _____    ______ ____
ROOT
ATOM      1  C   LIG    1       24.801 -28.758   6.059  0.00  0.00    +0.255 A 
ATOM      2  N   LIG    1       25.213 -29.666   5.142  0.00  0.00    -0.194 NA
ATOM      3  C   LIG    1       25.122 -30.982   5.440  0.00  0.00    +0.149 A 
ATOM      4  C   LIG    1       24.626 -31.365   6.699  0.00  0.00    +0.147 A 
ATOM      5  N   LIG    1       24.448 -32.592   7.303  0.00  0.00    -0.231 NA
ATOM      6  C   LIG    1       23.950 -32.314   8.492  0.00  0.00    +0.203 A 
ATOM      7  N   LIG    1       23.793 -30.962   8.686  0.00  0.00    -0.285 N 
ATOM      8  C   LIG    1       24.240 -30.344   7.548  0.00  0.00    +0.170 A 
ATOM      9  N   LIG    1       24.306 -29.030   7.291  0.00  0.00    -0.191 NA
ENDROOT
BRANCH   1  12
ATOM     10  C   LIG    1       24.700 -25.149   5.659  0.00  0.00    +0.075 A 
ATOM     11  C   LIG    1       24.367 -26.288   6.370  0.00  0.00    +0.130 A 
ATOM     12  N   LIG    1       24.941 -27.364   5.730  0.00  0.00    -0.205 N 
ATOM     13  N   LIG    1       25.682 -26.959   4.658  0.00  0.00    -0.172 NA
ATOM     14  C   LIG    1       25.501 -25.641   4.609  0.00  0.00    +0.148 A 
BRANCH  10  18
ATOM     15  C   LIG    1       24.404 -21.443   5.242  0.00  0.00    +0.128 C 
ATOM     16  N   LIG    1       24.729 -22.835   5.080  0.00  0.00    -0.314 N 
ATOM     17  H   LIG    1       25.333 -23.090   4.312  0.00  0.00    +0.149 HD
ATOM     18  C   LIG    1       24.284 -23.791   5.962  0.00  0.00    +0.247 C 
ATOM     19  O   LIG    1       23.581 -23.524   6.939  0.00  0.00    -0.270 OA
ENDBRANCH  10  18
ENDBRANCH   1  12
BRANCH   7  20
ATOM     20  C1* LIG    1       23.242 -30.353   9.890  0.00  0.00    +0.253 C 
ATOM     21  C2* LIG    1       22.179 -31.200  10.588  0.00  0.00    +0.195 C 
ATOM     22  C3* LIG    1       22.363 -30.813  12.047  0.00  0.00    +0.178 C 
ATOM     23  C4* LIG    1       23.850 -30.490  12.159  0.00  0.00    +0.177 C 
ATOM     24  O4* LIG    1       24.294 -30.085  10.842  0.00  0.00    -0.346 OA
BRANCH  21  25
ATOM     25  O2* LIG    1       20.852 -30.882  10.150  0.00  0.00    -0.385 OA
ATOM     26  H2* LIG    1       20.977 -30.330   9.347  0.00  0.00    +0.210 HD
ENDBRANCH  21  25
BRANCH  22  27
ATOM     27  O3* LIG    1       21.578 -29.629  12.293  0.00  0.00    -0.386 OA
ATOM     28  H3* LIG    1       21.531 -29.517  13.262  0.00  0.00    +0.210 HD
ENDBRANCH  22  27
BRANCH  23  29
ATOM     29  C5* LIG    1       24.664 -31.682  12.659  0.00  0.00    +0.190 C 
BRANCH  29  30
ATOM     30  O5* LIG    1       25.786 -31.902  11.819  0.00  0.00    -0.392 OA
ATOM     31  H5* LIG    1       25.407 -31.896  10.911  0.00  0.00    +0.209 HD
ENDBRANCH  29  30
ENDBRANCH  23  29
ENDBRANCH   7  20
BRANCH   3  32
ATOM     32  N   LIG    1       25.557 -31.884   4.479  0.00  0.00    -0.341 N 
ATOM     33  H   LIG    1       26.442 -32.308   4.728  0.00  0.00    +0.144 HD
ATOM     34  H   LIG    1       24.822 -32.498   4.143  0.00  0.00    +0.144 HD
ENDBRANCH   3  32
TORSDOF 8
ENDMDL
MODEL 8
REMARK VINA RESULT:      -6.7      4.596      7.672
REMARK  Name = *****
REMARK                            x       y       z     vdW  Elec       q    Type
REMARK                         _______ _______ _______ _____ _____    ______ ____
ROOT
ATOM      1  C   LIG    1       25.860 -28.425   7.865  0.00  0.00    +0.255 A 
ATOM      2  N   LIG    1       26.541 -28.190   9.013  0.00  0.00    -0.194 NA
ATOM      3  C   LIG    1       26.889 -29.238   9.793  0.00  0.00    +0.149 A 
ATOM      4  C   LIG    1       26.513 -30.536   9.401  0.00  0.00    +0.147 A 
ATOM      5  N   LIG    1       26.680 -31.775   9.982  0.00  0.00    -0.231 NA
ATOM      6  C   LIG    1       26.107 -32.620   9.146  0.00  0.00    +0.203 A 
ATOM      7  N   LIG    1       25.579 -31.984   8.047  0.00  0.00    -0.285 N 
ATOM      8  C   LIG    1       25.819 -30.645   8.210  0.00  0.00    +0.170 A 
ATOM      9  N   LIG    1       25.461 -29.636   7.404  0.00  0.00    -0.191 NA
ENDROOT
BRANCH   1  12
ATOM     10  C   LIG    1       25.193 -25.219   6.294  0.00  0.00    +0.075 A 
ATOM     11  C   LIG    1       25.890 -25.985   7.211  0.00  0.00    +0.130 A 
ATOM     12  N   LIG    1       25.473 -27.290   7.071  0.00  0.00    -0.205 N 
ATOM     13  N   LIG    1       24.570 -27.409   6.055  0.00  0.00    -0.172 NA
ATOM     14  C   LIG    1       24.388 -26.162   5.625  0.00  0.00    +0.148 A 
BRANCH  10  18
ATOM     15  C   LIG    1       24.671 -21.884   4.682  0.00  0.00    +0.128 C 
ATOM     16  N   LIG    1       24.659 -23.287   5.002  0.00  0.00    -0.314 N 
ATOM     17  H   LIG    1       24.194 -23.911   4.359  0.00  0.00    +0.149 HD
ATOM     18  C   LIG    1       25.299 -23.782   6.113  0.00  0.00    +0.247 C 
ATOM     19  O   LIG    1       25.917 -23.066   6.904  0.00  0.00    -0.270 OA
ENDBRANCH  10  18
ENDBRANCH   1  12
BRANCH   7  20
ATOM     20  C1* LIG    1       24.908 -32.655   6.941  0.00  0.00    +0.253 C 
ATOM     21  C2* LIG    1       24.671 -31.765   5.721  0.00  0.00    +0.195 C 
ATOM     22  C3* LIG    1       24.739 -32.762   4.575  0.00  0.00    +0.178 C 
ATOM     23  C4* LIG    1       25.717 -33.824   5.067  0.00  0.00    +0.177 C 
ATOM     24  O4* LIG    1       25.672 -33.803   6.513  0.00  0.00    -0.346 OA
BRANCH  21  25
ATOM     25  O2* LIG    1       23.389 -31.126   5.753  0.00  0.00    -0.385 OA
ATOM     26  H2* LIG    1       23.113 -31.066   4.812  0.00  0.00    +0.210 HD
ENDBRANCH  21  25
BRANCH  22  27
ATOM     27  O3* LIG    1       23.426 -33.336   4.410  0.00  0.00    -0.386 OA
ATOM     28  H3* LIG    1       22.792 -32.593   4.404  0.00  0.00    +0.210 HD
ENDBRANCH  22  27
BRANCH  23  29
ATOM     29  C5* LIG    1       27.140 -33.575   4.568  0.00  0.00    +0.190 C 
BRANCH  29  30
ATOM     30  O5* LIG    1       28.024 -33.399   5.664  0.00  0.00    -0.392 OA
ATOM     31  H5* LIG    1       28.699 -32.769   5.323  0.00  0.00    +0.209 HD
ENDBRANCH  29  30
ENDBRANCH  23  29
ENDBRANCH   7  20
BRANCH   3  32
ATOM     32  N   LIG    1       27.582 -28.960  10.963  0.00  0.00    -0.341 N 
ATOM     33  H   LIG    1       27.800 -27.975  11.050  0.00  0.00    +0.144 HD
ATOM     34  H   LIG    1       27.200 -29.429  11.777  0.00  0.00    +0.144 HD
ENDBRANCH   3  32
TORSDOF 8
ENDMDL
MODEL 9
REMARK VINA RESULT:      -6.5      4.847      8.194
REMARK  Name = *****
REMARK                            x       y       z     vdW  Elec       q    Type
REMARK                         _______ _______ _______ _____ _____    ______ ____
ROOT
ATOM      1  C   LIG    1       25.272 -29.197   6.056  0.00  0.00    +0.255 A 
ATOM      2  N   LIG    1       25.222 -30.032   4.990  0.00  0.00    -0.194 NA
ATOM      3  C   LIG    1       25.342 -31.363   5.198  0.00  0.00    +0.149 A 
ATOM      4  C   LIG    1       25.537 -31.836   6.508  0.00  0.00    +0.147 A 
ATOM      5  N   LIG    1       25.727 -33.097   7.031  0.00  0.00    -0.231 NA
ATOM      6  C   LIG    1       25.860 -32.908   8.329  0.00  0.00    +0.203 A 
ATOM      7  N   LIG    1       25.762 -31.581   8.673  0.00  0.00    -0.285 N 
ATOM      8  C   LIG    1       25.573 -30.883   7.510  0.00  0.00    +0.170 A 
ATOM      9  N   LIG    1       25.451 -29.558   7.350  0.00  0.00    -0.191 NA
ENDROOT
BRANCH   1  12
ATOM     10  C   LIG    1       24.535 -25.648   5.811  0.00  0.00    +0.075 A 
ATOM     11  C   LIG    1       24.365 -26.870   6.438  0.00  0.00    +0.130 A 
ATOM     12  N   LIG    1       25.176 -27.783   5.803  0.00  0.00    -0.205 N 
ATOM     13  N   LIG    1       25.911 -27.187   4.820  0.00  0.00    -0.172 NA
ATOM     14  C   LIG    1       25.493 -25.923   4.815  0.00  0.00    +0.148 A 
BRANCH  10  18
ATOM     15  C   LIG    1       23.880 -21.965   5.863  0.00  0.00    +0.128 C 
ATOM     16  N   LIG    1       24.434 -23.273   5.628  0.00  0.00    -0.314 N 
ATOM     17  H   LIG    1       25.295 -23.330   5.104  0.00  0.00    +0.149 HD
ATOM     18  C   LIG    1       23.852 -24.409   6.138  0.00  0.00    +0.247 C 
ATOM     19  O   LIG    1       22.826 -24.386   6.820  0.00  0.00    -0.270 OA
ENDBRANCH  10  18
ENDBRANCH   1  12
BRANCH   7  20
ATOM     20  C1* LIG    1       25.843 -31.067  10.034  0.00  0.00    +0.253 C 
ATOM     21  C2* LIG    1       25.934 -29.544  10.122  0.00  0.00    +0.195 C 
ATOM     22  C3* LIG    1       25.239 -29.253  11.444  0.00  0.00    +0.178 C 
ATOM     23  C4* LIG    1       24.201 -30.365  11.567  0.00  0.00    +0.177 C 
ATOM     24  O4* LIG    1       24.692 -31.489  10.799  0.00  0.00    -0.346 OA
BRANCH  21  25
ATOM     25  O2* LIG    1       27.289 -29.080  10.158  0.00  0.00    -0.385 OA
ATOM     26  H2* LIG    1       27.437 -28.664   9.280  0.00  0.00    +0.210 HD
ENDBRANCH  21  25
BRANCH  22  27
ATOM     27  O3* LIG    1       26.219 -29.372  12.494  0.00  0.00    -0.386 OA
ATOM     28  H3* LIG    1       26.909 -28.704  12.313  0.00  0.00    +0.210 HD
ENDBRANCH  22  27
BRANCH  23  29
ATOM     29  C5* LIG    1       22.825 -29.929  11.064  0.00  0.00    +0.190 C 
BRANCH  29  30
ATOM     30  O5* LIG    1       22.572 -30.476   9.779  0.00  0.00    -0.392 OA
ATOM     31  H5* LIG    1       23.466 -30.710   9.442  0.00  0.00    +0.209 HD
ENDBRANCH  29  30
ENDBRANCH  23  29
ENDBRANCH   7  20
BRANCH   3  32
ATOM     32  N   LIG    1       25.290 -32.189   4.083  0.00  0.00    -0.341 N 
ATOM     33  H   LIG    1       26.007 -31.960   3.407  0.00  0.00    +0.144 HD
ATOM     34  H   LIG    1       25.159 -33.168   4.314  0.00  0.00    +0.144 HD
ENDBRANCH   3  32
TORSDOF 8
ENDMDL
