MODEL 1
REMARK VINA RESULT:      -4.0      0.000      0.000
REMARK  Name = *****
REMARK                            x       y       z     vdW  Elec       q    Type
REMARK                         _______ _______ _______ _____ _____    ______ ____
ROOT
ATOM      1  C   LIG    1       25.633 -19.168   4.520  0.00  0.00    +0.144 C 
ENDROOT
BRANCH   1   2
ATOM      2  C   LIG    1       24.910 -20.486   4.080  0.00  0.00    +0.072 C 
ATOM      3  N   LIG    1       24.954 -21.572   5.089  0.00  0.00    -0.312 NA
ATOM      4  H   LIG    1       24.592 -22.424   4.657  0.00  0.00    +0.122 HD
ATOM      5  C   LIG    1       24.147 -21.279   6.275  0.00  0.00    +0.081 C 
ATOM      6  C   LIG    1       22.676 -21.051   5.930  0.00  0.00    +0.015 C 
ATOM      7  C   LIG    1       22.515 -19.988   4.850  0.00  0.00    +0.003 C 
ATOM      8  C   LIG    1       23.428 -20.287   3.662  0.00  0.00    +0.020 C 
ENDBRANCH   1   2
BRANCH   1   9
ATOM      9  C   LIG    1       27.001 -19.347   5.192  0.00  0.00    -0.032 A 
ATOM     10  C   LIG    1       28.083 -18.501   4.903  0.00  0.00    +0.004 A 
ATOM     11  C   LIG    1       29.304 -18.638   5.574  0.00  0.00    +0.000 A 
ATOM     12  C   LIG    1       29.468 -19.625   6.543  0.00  0.00    +0.000 A 
ATOM     13  C   LIG    1       28.409 -20.478   6.839  0.00  0.00    +0.000 A 
ATOM     14  C   LIG    1       27.186 -20.342   6.169  0.00  0.00    +0.004 A 
ENDBRANCH   1   9
BRANCH   1  15
ATOM     15  C   LIG    1       25.767 -18.262   3.294  0.00  0.00    +0.316 C 
ATOM     16  O   LIG    1       26.170 -18.618   2.198  0.00  0.00    -0.250 OA
BRANCH  15  18
ATOM     17  C   LIG    1       26.282 -15.957   3.361  0.00  0.00    +0.280 C 
ATOM     18  O   LIG    1       25.334 -17.001   3.593  0.00  0.00    -0.468 OA
ENDBRANCH  15  18
ENDBRANCH   1  15
TORSDOF 4
ENDMDL
MODEL 2
REMARK VINA RESULT:      -2.7      2.013      4.287
REMARK  Name = *****
REMARK                            x       y       z     vdW  Elec       q    Type
REMARK                         _______ _______ _______ _____ _____    ______ ____
ROOT
ATOM      1  C   LIG    1       24.421 -18.590   4.343  0.00  0.00    +0.144 C 
ENDROOT
BRANCH   1   2
ATOM      2  C   LIG    1       25.383 -19.735   3.876  0.00  0.00    +0.072 C 
ATOM      3  N   LIG    1       26.732 -19.687   4.492  0.00  0.00    -0.312 NA
ATOM      4  H   LIG    1       27.322 -20.374   4.019  0.00  0.00    +0.122 HD
ATOM      5  C   LIG    1       26.716 -19.999   5.922  0.00  0.00    +0.081 C 
ATOM      6  C   LIG    1       26.148 -21.388   6.203  0.00  0.00    +0.015 C 
ATOM      7  C   LIG    1       24.777 -21.571   5.561  0.00  0.00    +0.003 C 
ATOM      8  C   LIG    1       24.816 -21.164   4.089  0.00  0.00    +0.020 C 
ENDBRANCH   1   2
BRANCH   1   9
ATOM      9  C   LIG    1       24.830 -17.167   3.939  0.00  0.00    -0.032 A 
ATOM     10  C   LIG    1       23.983 -16.067   4.147  0.00  0.00    +0.004 A 
ATOM     11  C   LIG    1       24.398 -14.768   3.833  0.00  0.00    +0.000 A 
ATOM     12  C   LIG    1       25.666 -14.543   3.303  0.00  0.00    +0.000 A 
ATOM     13  C   LIG    1       26.519 -15.621   3.084  0.00  0.00    +0.000 A 
ATOM     14  C   LIG    1       26.105 -16.922   3.397  0.00  0.00    +0.004 A 
ENDBRANCH   1   9
BRANCH   1  15
ATOM     15  C   LIG    1       23.017 -18.899   3.819  0.00  0.00    +0.316 C 
ATOM     16  O   LIG    1       22.686 -18.879   2.643  0.00  0.00    -0.250 OA
BRANCH  15  18
ATOM     17  C   LIG    1       21.571 -20.521   4.746  0.00  0.00    +0.280 C 
ATOM     18  O   LIG    1       22.194 -19.239   4.855  0.00  0.00    -0.468 OA
ENDBRANCH  15  18
ENDBRANCH   1  15
TORSDOF 4
ENDMDL
MODEL 3
REMARK VINA RESULT:      -2.5      3.680      6.286
REMARK  Name = *****
REMARK                            x       y       z     vdW  Elec       q    Type
REMARK                         _______ _______ _______ _____ _____    ______ ____
ROOT
ATOM      1  C   LIG    1       25.375 -15.193   3.641  0.00  0.00    +0.144 C 
ENDROOT
BRANCH   1   2
ATOM      2  C   LIG    1       26.544 -14.920   4.647  0.00  0.00    +0.072 C 
ATOM      3  N   LIG    1       27.898 -15.122   4.077  0.00  0.00    -0.312 NA
ATOM      4  H   LIG    1       28.577 -15.066   4.839  0.00  0.00    +0.122 HD
ATOM      5  C   LIG    1       28.249 -14.115   3.074  0.00  0.00    +0.081 C 
ATOM      6  C   LIG    1       28.211 -12.698   3.642  0.00  0.00    +0.015 C 
ATOM      7  C   LIG    1       26.874 -12.400   4.311  0.00  0.00    +0.003 C 
ATOM      8  C   LIG    1       26.507 -13.510   5.294  0.00  0.00    +0.020 C 
ENDBRANCH   1   2
BRANCH   1   9
ATOM      9  C   LIG    1       24.804 -16.617   3.648  0.00  0.00    -0.032 A 
ATOM     10  C   LIG    1       25.593 -17.732   3.323  0.00  0.00    +0.004 A 
ATOM     11  C   LIG    1       25.074 -19.030   3.399  0.00  0.00    +0.000 A 
ATOM     12  C   LIG    1       23.757 -19.238   3.798  0.00  0.00    +0.000 A 
ATOM     13  C   LIG    1       22.956 -18.146   4.118  0.00  0.00    +0.000 A 
ATOM     14  C   LIG    1       23.473 -16.847   4.043  0.00  0.00    +0.004 A 
ENDBRANCH   1   9
BRANCH   1  15
ATOM     15  C   LIG    1       24.259 -14.182   3.915  0.00  0.00    +0.316 C 
ATOM     16  O   LIG    1       23.689 -14.038   4.986  0.00  0.00    -0.250 OA
BRANCH  15  18
ATOM     17  C   LIG    1       23.866 -12.031   3.021  0.00  0.00    +0.280 C 
ATOM     18  O   LIG    1       24.019 -13.434   2.797  0.00  0.00    -0.468 OA
ENDBRANCH  15  18
ENDBRANCH   1  15
TORSDOF 4
ENDMDL
MODEL 4
REMARK VINA RESULT:      -2.2      2.155      4.042
REMARK  Name = *****
REMARK                            x       y       z     vdW  Elec       q    Type
REMARK                         _______ _______ _______ _____ _____    ______ ____
ROOT
ATOM      1  C   LIG    1       24.025 -18.490   3.779  0.00  0.00    +0.144 C 
ENDROOT
BRANCH   1   2
ATOM      2  C   LIG    1       22.948 -18.549   4.916  0.00  0.00    +0.072 C 
ATOM      3  N   LIG    1       21.600 -18.088   4.502  0.00  0.00    -0.312 NA
ATOM      4  H   LIG    1       21.015 -18.024   5.338  0.00  0.00    +0.122 HD
ATOM      5  C   LIG    1       20.953 -18.999   3.556  0.00  0.00    +0.081 C 
ATOM      6  C   LIG    1       20.787 -20.404   4.130  0.00  0.00    +0.015 C 
ATOM      7  C   LIG    1       22.111 -20.958   4.644  0.00  0.00    +0.003 C 
ATOM      8  C   LIG    1       22.792 -19.948   5.568  0.00  0.00    +0.020 C 
ENDBRANCH   1   2
BRANCH   1   9
ATOM      9  C   LIG    1       24.808 -17.175   3.667  0.00  0.00    -0.032 A 
ATOM     10  C   LIG    1       24.207 -15.932   3.920  0.00  0.00    +0.004 A 
ATOM     11  C   LIG    1       24.953 -14.748   3.878  0.00  0.00    +0.000 A 
ATOM     12  C   LIG    1       26.313 -14.784   3.579  0.00  0.00    +0.000 A 
ATOM     13  C   LIG    1       26.926 -16.006   3.319  0.00  0.00    +0.000 A 
ATOM     14  C   LIG    1       26.182 -17.192   3.361  0.00  0.00    +0.004 A 
ENDBRANCH   1   9
BRANCH   1  15
ATOM     15  C   LIG    1       24.992 -19.660   3.972  0.00  0.00    +0.316 C 
ATOM     16  O   LIG    1       25.314 -20.456   3.104  0.00  0.00    -0.250 OA
BRANCH  15  18
ATOM     17  C   LIG    1       26.810 -20.152   5.399  0.00  0.00    +0.280 C 
ATOM     18  O   LIG    1       25.475 -19.663   5.250  0.00  0.00    -0.468 OA
ENDBRANCH  15  18
ENDBRANCH   1  15
TORSDOF 4
ENDMDL
MODEL 5
REMARK VINA RESULT:      -2.0      2.405      4.506
REMARK  Name = *****
REMARK                            x       y       z     vdW  Elec       q    Type
REMARK                         _______ _______ _______ _____ _____    ______ ____
ROOT
ATOM      1  C   LIG    1       23.862 -17.929   4.393  0.00  0.00    +0.144 C 
ENDROOT
BRANCH   1   2
ATOM      2  C   LIG    1       24.243 -19.200   3.559  0.00  0.00    +0.072 C 
ATOM      3  N   LIG    1       25.689 -19.530   3.580  0.00  0.00    -0.312 NA
ATOM      4  H   LIG    1       25.856 -20.273   2.898  0.00  0.00    +0.122 HD
ATOM      5  C   LIG    1       26.148 -19.995   4.890  0.00  0.00    +0.081 C 
ATOM      6  C   LIG    1       25.399 -21.244   5.353  0.00  0.00    +0.015 C 
ATOM      7  C   LIG    1       23.890 -21.035   5.315  0.00  0.00    +0.003 C 
ATOM      8  C   LIG    1       23.460 -20.478   3.959  0.00  0.00    +0.020 C 
ENDBRANCH   1   2
BRANCH   1   9
ATOM      9  C   LIG    1       24.504 -16.612   3.937  0.00  0.00    -0.032 A 
ATOM     10  C   LIG    1       23.852 -15.378   4.094  0.00  0.00    +0.004 A 
ATOM     11  C   LIG    1       24.480 -14.180   3.733  0.00  0.00    +0.000 A 
ATOM     12  C   LIG    1       25.768 -14.193   3.205  0.00  0.00    +0.000 A 
ATOM     13  C   LIG    1       26.429 -15.406   3.036  0.00  0.00    +0.000 A 
ATOM     14  C   LIG    1       25.803 -16.606   3.396  0.00  0.00    +0.004 A 
ENDBRANCH   1   9
BRANCH   1  15
ATOM     15  C   LIG    1       22.337 -17.795   4.392  0.00  0.00    +0.316 C 
ATOM     16  O   LIG    1       21.684 -17.201   5.236  0.00  0.00    -0.250 OA
BRANCH  15  18
ATOM     17  C   LIG    1       20.387 -18.499   3.259  0.00  0.00    +0.280 C 
ATOM     18  O   LIG    1       21.813 -18.404   3.287  0.00  0.00    -0.468 OA
ENDBRANCH  15  18
ENDBRANCH   1  15
TORSDOF 4
ENDMDL
MODEL 6
REMARK VINA RESULT:      -1.9      2.871      4.809
REMARK  Name = *****
REMARK                            x       y       z     vdW  Elec       q    Type
REMARK                         _______ _______ _______ _____ _____    ______ ____
ROOT
ATOM      1  C   LIG    1       25.173 -15.740   4.231  0.00  0.00    +0.144 C 
ENDROOT
BRANCH   1   2
ATOM      2  C   LIG    1       25.146 -16.859   3.135  0.00  0.00    +0.072 C 
ATOM      3  N   LIG    1       26.409 -17.628   3.017  0.00  0.00    -0.312 NA
ATOM      4  H   LIG    1       26.344 -18.223   2.189  0.00  0.00    +0.122 HD
ATOM      5  C   LIG    1       26.665 -18.482   4.179  0.00  0.00    +0.081 C 
ATOM      6  C   LIG    1       25.545 -19.496   4.407  0.00  0.00    +0.015 C 
ATOM      7  C   LIG    1       24.183 -18.815   4.485  0.00  0.00    +0.003 C 
ATOM      8  C   LIG    1       23.985 -17.876   3.296  0.00  0.00    +0.020 C 
ENDBRANCH   1   2
BRANCH   1   9
ATOM      9  C   LIG    1       26.350 -14.759   4.156  0.00  0.00    -0.032 A 
ATOM     10  C   LIG    1       27.027 -14.506   2.952  0.00  0.00    +0.004 A 
ATOM     11  C   LIG    1       28.055 -13.559   2.888  0.00  0.00    +0.000 A 
ATOM     12  C   LIG    1       28.428 -12.848   4.025  0.00  0.00    +0.000 A 
ATOM     13  C   LIG    1       27.774 -13.087   5.230  0.00  0.00    +0.000 A 
ATOM     14  C   LIG    1       26.745 -14.035   5.296  0.00  0.00    +0.004 A 
ENDBRANCH   1   9
BRANCH   1  15
ATOM     15  C   LIG    1       23.849 -14.975   4.169  0.00  0.00    +0.316 C 
ATOM     16  O   LIG    1       22.883 -15.184   4.885  0.00  0.00    -0.250 OA
BRANCH  15  18
ATOM     17  C   LIG    1       23.835 -12.656   3.714  0.00  0.00    +0.280 C 
ATOM     18  O   LIG    1       23.919 -13.994   3.219  0.00  0.00    -0.468 OA
ENDBRANCH  15  18
ENDBRANCH   1  15
TORSDOF 4
ENDMDL
MODEL 7
REMARK VINA RESULT:      -1.9      3.534      5.926
REMARK  Name = *****
REMARK                            x       y       z     vdW  Elec       q    Type
REMARK                         _______ _______ _______ _____ _____    ______ ____
ROOT
ATOM      1  C   LIG    1       25.932 -14.651   3.764  0.00  0.00    +0.144 C 
ENDROOT
BRANCH   1   2
ATOM      2  C   LIG    1       24.538 -14.310   3.134  0.00  0.00    +0.072 C 
ATOM      3  N   LIG    1       23.529 -13.832   4.111  0.00  0.00    -0.312 NA
ATOM      4  H   LIG    1       22.625 -13.780   3.636  0.00  0.00    +0.122 HD
ATOM      5  C   LIG    1       23.843 -12.507   4.650  0.00  0.00    +0.081 C 
ATOM      6  C   LIG    1       23.940 -11.447   3.555  0.00  0.00    +0.015 C 
ATOM      7  C   LIG    1       24.913 -11.865   2.458  0.00  0.00    +0.003 C 
ATOM      8  C   LIG    1       24.601 -13.281   1.975  0.00  0.00    +0.020 C 
ENDBRANCH   1   2
BRANCH   1   9
ATOM      9  C   LIG    1       26.268 -16.143   3.877  0.00  0.00    -0.032 A 
ATOM     10  C   LIG    1       25.385 -17.137   3.426  0.00  0.00    +0.004 A 
ATOM     11  C   LIG    1       25.736 -18.491   3.477  0.00  0.00    +0.000 A 
ATOM     12  C   LIG    1       26.974 -18.878   3.982  0.00  0.00    +0.000 A 
ATOM     13  C   LIG    1       27.861 -17.909   4.441  0.00  0.00    +0.000 A 
ATOM     14  C   LIG    1       27.512 -16.554   4.390  0.00  0.00    +0.004 A 
ENDBRANCH   1   9
BRANCH   1  15
ATOM     15  C   LIG    1       27.013 -13.932   2.954  0.00  0.00    +0.316 C 
ATOM     16  O   LIG    1       27.340 -14.214   1.812  0.00  0.00    -0.250 OA
BRANCH  15  18
ATOM     17  C   LIG    1       28.948 -12.947   3.884  0.00  0.00    +0.280 C 
ATOM     18  O   LIG    1       27.534 -12.899   3.681  0.00  0.00    -0.468 OA
ENDBRANCH  15  18
ENDBRANCH   1  15
TORSDOF 4
ENDMDL
MODEL 8
REMARK VINA RESULT:      -1.8      4.101      6.612
REMARK  Name = *****
REMARK                            x       y       z     vdW  Elec       q    Type
REMARK                         _______ _______ _______ _____ _____    ______ ____
ROOT
ATOM      1  C   LIG    1       25.034 -14.768   3.435  0.00  0.00    +0.144 C 
ENDROOT
BRANCH   1   2
ATOM      2  C   LIG    1       26.495 -15.123   2.996  0.00  0.00    +0.072 C 
ATOM      3  N   LIG    1       27.101 -14.150   2.054  0.00  0.00    -0.312 NA
ATOM      4  H   LIG    1       27.983 -14.541   1.716  0.00  0.00    +0.122 HD
ATOM      5  C   LIG    1       27.381 -12.855   2.678  0.00  0.00    +0.081 C 
ATOM      6  C   LIG    1       28.334 -12.980   3.865  0.00  0.00    +0.015 C 
ATOM      7  C   LIG    1       27.836 -14.007   4.875  0.00  0.00    +0.003 C 
ATOM      8  C   LIG    1       27.483 -15.319   4.176  0.00  0.00    +0.020 C 
ENDBRANCH   1   2
BRANCH   1   9
ATOM      9  C   LIG    1       24.160 -15.952   3.871  0.00  0.00    -0.032 A 
ATOM     10  C   LIG    1       22.909 -15.763   4.480  0.00  0.00    +0.004 A 
ATOM     11  C   LIG    1       22.096 -16.853   4.810  0.00  0.00    +0.000 A 
ATOM     12  C   LIG    1       22.519 -18.153   4.542  0.00  0.00    +0.000 A 
ATOM     13  C   LIG    1       23.758 -18.362   3.944  0.00  0.00    +0.000 A 
ATOM     14  C   LIG    1       24.573 -17.272   3.613  0.00  0.00    +0.004 A 
ENDBRANCH   1   9
BRANCH   1  15
ATOM     15  C   LIG    1       25.110 -13.733   4.560  0.00  0.00    +0.316 C 
ATOM     16  O   LIG    1       25.386 -13.978   5.724  0.00  0.00    -0.250 OA
BRANCH  15  18
ATOM     17  C   LIG    1       23.859 -12.417   3.047  0.00  0.00    +0.280 C 
ATOM     18  O   LIG    1       24.861 -12.484   4.065  0.00  0.00    -0.468 OA
ENDBRANCH  15  18
ENDBRANCH   1  15
TORSDOF 4
ENDMDL
MODEL 9
REMARK VINA RESULT:      -1.6      3.803      6.448
REMARK  Name = *****
REMARK                            x       y       z     vdW  Elec       q    Type
REMARK                         _______ _______ _______ _____ _____    ______ ____
ROOT
ATOM      1  C   LIG    1       25.169 -15.124   3.727  0.00  0.00    +0.144 C 
ENDROOT
BRANCH   1   2
ATOM      2  C   LIG    1       24.926 -14.370   2.375  0.00  0.00    +0.072 C 
ATOM      3  N   LIG    1       23.725 -13.499   2.371  0.00  0.00    -0.312 NA
ATOM      4  H   LIG    1       23.571 -13.174   1.414  0.00  0.00    +0.122 HD
ATOM      5  C   LIG    1       23.869 -12.328   3.238  0.00  0.00    +0.081 C 
ATOM      6  C   LIG    1       25.055 -11.454   2.835  0.00  0.00    +0.015 C 
ATOM      7  C   LIG    1       26.343 -12.266   2.749  0.00  0.00    +0.003 C 
ATOM      8  C   LIG    1       26.132 -13.518   1.899  0.00  0.00    +0.020 C 
ENDBRANCH   1   2
BRANCH   1   9
ATOM      9  C   LIG    1       24.263 -16.334   3.991  0.00  0.00    -0.032 A 
ATOM     10  C   LIG    1       22.963 -16.188   4.501  0.00  0.00    +0.004 A 
ATOM     11  C   LIG    1       22.127 -17.297   4.673  0.00  0.00    +0.000 A 
ATOM     12  C   LIG    1       22.575 -18.573   4.342  0.00  0.00    +0.000 A 
ATOM     13  C   LIG    1       23.863 -18.740   3.842  0.00  0.00    +0.000 A 
ATOM     14  C   LIG    1       24.701 -17.632   3.668  0.00  0.00    +0.004 A 
ENDBRANCH   1   9
BRANCH   1  15
ATOM     15  C   LIG    1       26.638 -15.549   3.782  0.00  0.00    +0.316 C 
ATOM     16  O   LIG    1       27.125 -16.476   3.155  0.00  0.00    -0.250 OA
BRANCH  15  18
ATOM     17  C   LIG    1       26.540 -13.882   5.454  0.00  0.00    +0.280 C 
ATOM     18  O   LIG    1       27.337 -14.713   4.608  0.00  0.00    -0.468 OA
ENDBRANCH  15  18
ENDBRANCH   1  15
TORSDOF 4
ENDMDL
