MODEL 1
REMARK VINA RESULT:      -6.3      0.000      0.000
REMARK  Name = *****
REMARK                            x       y       z     vdW  Elec       q    Type
REMARK                         _______ _______ _______ _____ _____    ______ ____
ROOT
ATOM      1  N   LIG    1       26.743 -15.796   3.199  0.00  0.00    -0.291 NA
ENDROOT
BRANCH   1   3
ATOM      2  C   LIG    1       27.785 -17.567   4.535  0.00  0.00    +0.028 C 
ATOM      3  C   LIG    1       26.866 -17.318   3.322  0.00  0.00    +0.091 C 
BRANCH   3   4
ATOM      4  C   LIG    1       25.461 -18.136   3.417  0.00  0.00    +0.247 C 
BRANCH   4   5
ATOM      5  O   LIG    1       25.468 -19.591   3.571  0.00  0.00    -0.490 OA
BRANCH   5   6
ATOM      6  C   LIG    1       24.882 -20.113   4.691  0.00  0.00    +0.121 A 
ATOM      7  C   LIG    1       23.526 -20.113   4.802  0.00  0.00    +0.045 A 
ATOM      8  C   LIG    1       22.825 -20.158   5.956  0.00  0.00    +0.004 A 
ATOM      9  C   LIG    1       23.469 -20.738   7.029  0.00  0.00    +0.000 A 
ATOM     10  C   LIG    1       24.841 -21.046   6.868  0.00  0.00    +0.004 A 
ATOM     11  C   LIG    1       25.558 -20.644   5.742  0.00  0.00    +0.045 A 
ENDBRANCH   5   6
ENDBRANCH   4   5
ENDBRANCH   3   4
ENDBRANCH   1   3
BRANCH   1  12
ATOM     12  C   LIG    1       25.331 -15.443   3.632  0.00  0.00    +0.120 C 
BRANCH  12  13
ATOM     13  C   LIG    1       24.835 -14.029   3.453  0.00  0.00    -0.033 A 
ATOM     14  C   LIG    1       24.958 -13.389   2.222  0.00  0.00    +0.005 A 
ATOM     15  C   LIG    1       24.403 -12.140   2.027  0.00  0.00    +0.000 A 
ATOM     16  C   LIG    1       23.844 -11.447   3.097  0.00  0.00    +0.000 A 
ATOM     17  C   LIG    1       23.846 -12.008   4.372  0.00  0.00    +0.000 A 
ATOM     18  C   LIG    1       24.327 -13.300   4.548  0.00  0.00    +0.005 A 
ENDBRANCH  12  13
ENDBRANCH   1  12
BRANCH   1  19
ATOM     19  C   LIG    1       27.716 -15.063   4.046  0.00  0.00    +0.101 C 
BRANCH  19  20
ATOM     20  C   LIG    1       28.350 -13.698   3.701  0.00  0.00    +0.124 C 
ATOM     21 CL   LIG    1       28.311 -12.564   5.066  0.00  0.00    -0.124 Cl
ENDBRANCH  19  20
ENDBRANCH   1  19
TORSDOF 8
ENDMDL
MODEL 2
REMARK VINA RESULT:      -5.4      2.597      6.971
REMARK  Name = *****
REMARK                            x       y       z     vdW  Elec       q    Type
REMARK                         _______ _______ _______ _____ _____    ______ ____
ROOT
ATOM      1  N   LIG    1       27.250 -18.498   4.885  0.00  0.00    -0.291 NA
ENDROOT
BRANCH   1   3
ATOM      2  C   LIG    1       25.729 -17.443   3.279  0.00  0.00    +0.028 C 
ATOM      3  C   LIG    1       27.172 -17.400   3.820  0.00  0.00    +0.091 C 
BRANCH   3   4
ATOM      4  C   LIG    1       27.620 -15.911   4.307  0.00  0.00    +0.247 C 
BRANCH   4   5
ATOM      5  O   LIG    1       27.603 -14.794   3.361  0.00  0.00    -0.490 OA
BRANCH   5   6
ATOM      6  C   LIG    1       26.457 -14.052   3.277  0.00  0.00    +0.121 A 
ATOM      7  C   LIG    1       25.619 -13.984   4.346  0.00  0.00    +0.045 A 
ATOM      8  C   LIG    1       24.299 -13.701   4.303  0.00  0.00    +0.004 A 
ATOM      9  C   LIG    1       23.880 -12.954   3.222  0.00  0.00    +0.000 A 
ATOM     10  C   LIG    1       24.820 -12.728   2.189  0.00  0.00    +0.004 A 
ATOM     11  C   LIG    1       26.064 -13.359   2.178  0.00  0.00    +0.045 A 
ENDBRANCH   5   6
ENDBRANCH   4   5
ENDBRANCH   3   4
ENDBRANCH   1   3
BRANCH   1  12
ATOM     12  C   LIG    1       26.497 -19.692   4.327  0.00  0.00    +0.120 C 
BRANCH  12  13
ATOM     13  C   LIG    1       25.293 -20.218   5.070  0.00  0.00    -0.033 A 
ATOM     14  C   LIG    1       25.435 -20.777   6.337  0.00  0.00    +0.005 A 
ATOM     15  C   LIG    1       24.322 -21.155   7.062  0.00  0.00    +0.000 A 
ATOM     16  C   LIG    1       23.059 -21.114   6.478  0.00  0.00    +0.000 A 
ATOM     17  C   LIG    1       22.912 -20.699   5.156  0.00  0.00    +0.000 A 
ATOM     18  C   LIG    1       24.022 -20.238   4.458  0.00  0.00    +0.005 A 
ENDBRANCH  12  13
ENDBRANCH   1  12
BRANCH   1  19
ATOM     19  C   LIG    1       28.643 -18.899   5.205  0.00  0.00    +0.101 C 
BRANCH  19  20
ATOM     20  C   LIG    1       29.151 -19.324   6.599  0.00  0.00    +0.124 C 
ATOM     21 CL   LIG    1       28.901 -21.053   6.919  0.00  0.00    -0.124 Cl
ENDBRANCH  19  20
ENDBRANCH   1  19
TORSDOF 8
ENDMDL
MODEL 3
REMARK VINA RESULT:      -5.0      2.859      7.134
REMARK  Name = *****
REMARK                            x       y       z     vdW  Elec       q    Type
REMARK                         _______ _______ _______ _____ _____    ______ ____
ROOT
ATOM      1  N   LIG    1       24.527 -20.762   4.694  0.00  0.00    -0.291 NA
ENDROOT
BRANCH   1   3
ATOM      2  C   LIG    1       24.612 -20.455   2.264  0.00  0.00    +0.028 C 
ATOM      3  C   LIG    1       25.176 -19.916   3.594  0.00  0.00    +0.091 C 
BRANCH   3   4
ATOM      4  C   LIG    1       25.002 -18.304   3.746  0.00  0.00    +0.247 C 
BRANCH   4   5
ATOM      5  O   LIG    1       25.968 -17.399   3.120  0.00  0.00    -0.490 OA
BRANCH   5   6
ATOM      6  C   LIG    1       25.953 -16.088   3.509  0.00  0.00    +0.121 A 
ATOM      7  C   LIG    1       27.128 -15.425   3.681  0.00  0.00    +0.045 A 
ATOM      8  C   LIG    1       27.319 -14.337   4.458  0.00  0.00    +0.004 A 
ATOM      9  C   LIG    1       26.204 -13.557   4.684  0.00  0.00    +0.000 A 
ATOM     10  C   LIG    1       24.959 -14.069   4.248  0.00  0.00    +0.004 A 
ATOM     11  C   LIG    1       24.830 -15.367   3.756  0.00  0.00    +0.045 A 
ENDBRANCH   5   6
ENDBRANCH   4   5
ENDBRANCH   3   4
ENDBRANCH   1   3
BRANCH   1  12
ATOM     12  C   LIG    1       25.166 -20.330   6.001  0.00  0.00    +0.120 C 
BRANCH  12  13
ATOM     13  C   LIG    1       26.670 -20.348   6.130  0.00  0.00    -0.033 A 
ATOM     14  C   LIG    1       27.451 -19.462   5.393  0.00  0.00    +0.005 A 
ATOM     15  C   LIG    1       28.816 -19.401   5.595  0.00  0.00    +0.000 A 
ATOM     16  C   LIG    1       29.442 -20.322   6.431  0.00  0.00    +0.000 A 
ATOM     17  C   LIG    1       28.696 -21.314   7.062  0.00  0.00    +0.000 A 
ATOM     18  C   LIG    1       27.313 -21.319   6.925  0.00  0.00    +0.005 A 
ENDBRANCH  12  13
ENDBRANCH   1  12
BRANCH   1  19
ATOM     19  C   LIG    1       23.057 -20.577   4.778  0.00  0.00    +0.101 C 
BRANCH  19  20
ATOM     20  C   LIG    1       22.345 -19.330   5.346  0.00  0.00    +0.124 C 
ATOM     21 CL   LIG    1       21.784 -18.227   4.073  0.00  0.00    -0.124 Cl
ENDBRANCH  19  20
ENDBRANCH   1  19
TORSDOF 8
ENDMDL
MODEL 4
REMARK VINA RESULT:      -4.6      1.686      2.977
REMARK  Name = *****
REMARK                            x       y       z     vdW  Elec       q    Type
REMARK                         _______ _______ _______ _____ _____    ______ ____
ROOT
ATOM      1  N   LIG    1       24.938 -15.448   3.876  0.00  0.00    -0.291 NA
ENDROOT
BRANCH   1   3
ATOM      2  C   LIG    1       26.065 -17.550   3.311  0.00  0.00    +0.028 C 
ATOM      3  C   LIG    1       24.691 -16.850   3.310  0.00  0.00    +0.091 C 
BRANCH   3   4
ATOM      4  C   LIG    1       23.537 -17.722   4.058  0.00  0.00    +0.247 C 
BRANCH   4   5
ATOM      5  O   LIG    1       23.399 -19.151   3.778  0.00  0.00    -0.490 OA
BRANCH   5   6
ATOM      6  C   LIG    1       23.787 -20.029   4.753  0.00  0.00    +0.121 A 
ATOM      7  C   LIG    1       22.927 -20.336   5.761  0.00  0.00    +0.045 A 
ATOM      8  C   LIG    1       23.270 -20.792   6.985  0.00  0.00    +0.004 A 
ATOM      9  C   LIG    1       24.476 -21.458   7.062  0.00  0.00    +0.000 A 
ATOM     10  C   LIG    1       25.304 -21.429   5.914  0.00  0.00    +0.004 A 
ATOM     11  C   LIG    1       24.999 -20.636   4.809  0.00  0.00    +0.045 A 
ENDBRANCH   5   6
ENDBRANCH   4   5
ENDBRANCH   3   4
ENDBRANCH   1   3
BRANCH   1  12
ATOM     12  C   LIG    1       26.139 -14.890   3.135  0.00  0.00    +0.120 C 
BRANCH  12  13
ATOM     13  C   LIG    1       27.102 -13.983   3.863  0.00  0.00    -0.033 A 
ATOM     14  C   LIG    1       28.228 -13.484   3.214  0.00  0.00    +0.005 A 
ATOM     15  C   LIG    1       29.046 -12.567   3.844  0.00  0.00    +0.000 A 
ATOM     16  C   LIG    1       28.835 -12.242   5.181  0.00  0.00    +0.000 A 
ATOM     17  C   LIG    1       27.802 -12.846   5.893  0.00  0.00    +0.000 A 
ATOM     18  C   LIG    1       26.928 -13.703   5.234  0.00  0.00    +0.005 A 
ENDBRANCH  12  13
ENDBRANCH   1  12
BRANCH   1  19
ATOM     19  C   LIG    1       23.781 -14.537   3.699  0.00  0.00    +0.101 C 
BRANCH  19  20
ATOM     20  C   LIG    1       23.869 -13.048   3.300  0.00  0.00    +0.124 C 
ATOM     21 CL   LIG    1       23.876 -11.965   4.706  0.00  0.00    -0.124 Cl
ENDBRANCH  19  20
ENDBRANCH   1  19
TORSDOF 8
ENDMDL
MODEL 5
REMARK VINA RESULT:      -4.4      3.241      7.484
REMARK  Name = *****
REMARK                            x       y       z     vdW  Elec       q    Type
REMARK                         _______ _______ _______ _____ _____    ______ ____
ROOT
ATOM      1  N   LIG    1       23.931 -19.867   4.015  0.00  0.00    -0.291 NA
ENDROOT
BRANCH   1   3
ATOM      2  C   LIG    1       22.404 -17.997   4.434  0.00  0.00    +0.028 C 
ATOM      3  C   LIG    1       23.625 -18.425   3.597  0.00  0.00    +0.091 C 
BRANCH   3   4
ATOM      4  C   LIG    1       24.868 -17.378   3.711  0.00  0.00    +0.247 C 
BRANCH   4   5
ATOM      5  O   LIG    1       24.754 -16.039   3.129  0.00  0.00    -0.490 OA
BRANCH   5   6
ATOM      6  C   LIG    1       25.538 -15.051   3.657  0.00  0.00    +0.121 A 
ATOM      7  C   LIG    1       26.862 -15.006   3.347  0.00  0.00    +0.045 A 
ATOM      8  C   LIG    1       27.830 -14.421   4.086  0.00  0.00    +0.004 A 
ATOM      9  C   LIG    1       27.418 -13.397   4.913  0.00  0.00    +0.000 A 
ATOM     10  C   LIG    1       26.024 -13.194   5.045  0.00  0.00    +0.004 A 
ATOM     11  C   LIG    1       25.098 -14.080   4.497  0.00  0.00    +0.045 A 
ENDBRANCH   5   6
ENDBRANCH   4   5
ENDBRANCH   3   4
ENDBRANCH   1   3
BRANCH   1  12
ATOM     12  C   LIG    1       25.413 -20.082   3.766  0.00  0.00    +0.120 C 
BRANCH  12  13
ATOM     13  C   LIG    1       26.333 -20.314   4.939  0.00  0.00    -0.033 A 
ATOM     14  C   LIG    1       26.007 -21.250   5.916  0.00  0.00    +0.005 A 
ATOM     15  C   LIG    1       26.900 -21.544   6.928  0.00  0.00    +0.000 A 
ATOM     16  C   LIG    1       28.073 -20.805   7.062  0.00  0.00    +0.000 A 
ATOM     17  C   LIG    1       28.348 -19.761   6.181  0.00  0.00    +0.000 A 
ATOM     18  C   LIG    1       27.489 -19.526   5.114  0.00  0.00    +0.005 A 
ENDBRANCH  12  13
ENDBRANCH   1  12
BRANCH   1  19
ATOM     19  C   LIG    1       23.626 -20.136   5.442  0.00  0.00    +0.101 C 
BRANCH  19  20
ATOM     20  C   LIG    1       22.660 -21.223   5.960  0.00  0.00    +0.124 C 
ATOM     21 CL   LIG    1       21.339 -21.558   4.821  0.00  0.00    -0.124 Cl
ENDBRANCH  19  20
ENDBRANCH   1  19
TORSDOF 8
ENDMDL
MODEL 6
REMARK VINA RESULT:      -4.2      3.279      5.185
REMARK  Name = *****
REMARK                            x       y       z     vdW  Elec       q    Type
REMARK                         _______ _______ _______ _____ _____    ______ ____
ROOT
ATOM      1  N   LIG    1       23.165 -18.861   4.671  0.00  0.00    -0.291 NA
ENDROOT
BRANCH   1   3
ATOM      2  C   LIG    1       22.366 -21.131   5.132  0.00  0.00    +0.028 C 
ATOM      3  C   LIG    1       23.547 -20.169   5.370  0.00  0.00    +0.091 C 
BRANCH   3   4
ATOM      4  C   LIG    1       24.981 -20.810   4.937  0.00  0.00    +0.247 C 
BRANCH   4   5
ATOM      5  O   LIG    1       25.900 -21.310   5.961  0.00  0.00    -0.490 OA
BRANCH   5   6
ATOM      6  C   LIG    1       27.052 -20.605   6.177  0.00  0.00    +0.121 A 
ATOM      7  C   LIG    1       27.254 -19.430   5.522  0.00  0.00    +0.045 A 
ATOM      8  C   LIG    1       28.452 -18.860   5.268  0.00  0.00    +0.004 A 
ATOM      9  C   LIG    1       29.473 -19.197   6.131  0.00  0.00    +0.000 A 
ATOM     10  C   LIG    1       29.217 -20.232   7.062  0.00  0.00    +0.004 A 
ATOM     11  C   LIG    1       28.049 -20.992   7.012  0.00  0.00    +0.045 A 
ENDBRANCH   5   6
ENDBRANCH   4   5
ENDBRANCH   3   4
ENDBRANCH   1   3
BRANCH   1  12
ATOM     12  C   LIG    1       24.349 -18.476   3.803  0.00  0.00    +0.120 C 
BRANCH  12  13
ATOM     13  C   LIG    1       24.781 -17.031   3.740  0.00  0.00    -0.033 A 
ATOM     14  C   LIG    1       23.877 -16.012   4.028  0.00  0.00    +0.005 A 
ATOM     15  C   LIG    1       24.300 -14.698   4.080  0.00  0.00    +0.000 A 
ATOM     16  C   LIG    1       25.599 -14.365   3.705  0.00  0.00    +0.000 A 
ATOM     17  C   LIG    1       26.476 -15.355   3.268  0.00  0.00    +0.000 A 
ATOM     18  C   LIG    1       26.075 -16.685   3.299  0.00  0.00    +0.005 A 
ENDBRANCH  12  13
ENDBRANCH   1  12
BRANCH   1  19
ATOM     19  C   LIG    1       21.953 -18.986   3.825  0.00  0.00    +0.101 C 
BRANCH  19  20
ATOM     20  C   LIG    1       20.821 -17.941   3.727  0.00  0.00    +0.124 C 
ATOM     21 CL   LIG    1       19.356 -18.592   2.963  0.00  0.00    -0.124 Cl
ENDBRANCH  19  20
ENDBRANCH   1  19
TORSDOF 8
ENDMDL
MODEL 7
REMARK VINA RESULT:      -4.0      1.979      2.590
REMARK  Name = *****
REMARK                            x       y       z     vdW  Elec       q    Type
REMARK                         _______ _______ _______ _____ _____    ______ ____
ROOT
ATOM      1  N   LIG    1       27.418 -15.172   3.274  0.00  0.00    -0.291 NA
ENDROOT
BRANCH   1   3
ATOM      2  C   LIG    1       25.873 -17.074   3.286  0.00  0.00    +0.028 C 
ATOM      3  C   LIG    1       27.100 -16.480   4.005  0.00  0.00    +0.091 C 
BRANCH   3   4
ATOM      4  C   LIG    1       28.332 -17.538   4.130  0.00  0.00    +0.247 C 
BRANCH   4   5
ATOM      5  O   LIG    1       28.840 -17.920   5.448  0.00  0.00    -0.490 OA
BRANCH   5   6
ATOM      6  C   LIG    1       28.553 -19.180   5.897  0.00  0.00    +0.121 A 
ATOM      7  C   LIG    1       27.316 -19.703   5.685  0.00  0.00    +0.045 A 
ATOM      8  C   LIG    1       26.734 -20.683   6.410  0.00  0.00    +0.004 A 
ATOM      9  C   LIG    1       27.595 -21.541   7.062  0.00  0.00    +0.000 A 
ATOM     10  C   LIG    1       28.968 -21.201   7.060  0.00  0.00    +0.004 A 
ATOM     11  C   LIG    1       29.422 -19.979   6.566  0.00  0.00    +0.045 A 
ENDBRANCH   5   6
ENDBRANCH   4   5
ENDBRANCH   3   4
ENDBRANCH   1   3
BRANCH   1  12
ATOM     12  C   LIG    1       26.160 -14.785   2.518  0.00  0.00    +0.120 C 
BRANCH  12  13
ATOM     13  C   LIG    1       25.333 -13.620   3.007  0.00  0.00    -0.033 A 
ATOM     14  C   LIG    1       25.060 -12.547   2.163  0.00  0.00    +0.005 A 
ATOM     15  C   LIG    1       24.212 -11.536   2.572  0.00  0.00    +0.000 A 
ATOM     16  C   LIG    1       23.736 -11.508   3.880  0.00  0.00    +0.000 A 
ATOM     17  C   LIG    1       24.120 -12.494   4.786  0.00  0.00    +0.000 A 
ATOM     18  C   LIG    1       24.903 -13.555   4.349  0.00  0.00    +0.005 A 
ENDBRANCH  12  13
ENDBRANCH   1  12
BRANCH   1  19
ATOM     19  C   LIG    1       27.801 -14.071   4.193  0.00  0.00    +0.101 C 
BRANCH  19  20
ATOM     20  C   LIG    1       28.671 -12.854   3.813  0.00  0.00    +0.124 C 
ATOM     21 CL   LIG    1       28.992 -11.787   5.196  0.00  0.00    -0.124 Cl
ENDBRANCH  19  20
ENDBRANCH   1  19
TORSDOF 8
ENDMDL
MODEL 8
REMARK VINA RESULT:      -3.7      3.103      7.425
REMARK  Name = *****
REMARK                            x       y       z     vdW  Elec       q    Type
REMARK                         _______ _______ _______ _____ _____    ______ ____
ROOT
ATOM      1  N   LIG    1       23.196 -18.144   3.604  0.00  0.00    -0.291 NA
ENDROOT
BRANCH   1   3
ATOM      2  C   LIG    1       25.402 -17.134   3.259  0.00  0.00    +0.028 C 
ATOM      3  C   LIG    1       24.163 -17.102   4.175  0.00  0.00    +0.091 C 
BRANCH   3   4
ATOM      4  C   LIG    1       23.555 -15.602   4.363  0.00  0.00    +0.247 C 
BRANCH   4   5
ATOM      5  O   LIG    1       24.017 -14.511   3.505  0.00  0.00    -0.490 OA
BRANCH   5   6
ATOM      6  C   LIG    1       25.277 -14.025   3.719  0.00  0.00    +0.121 A 
ATOM      7  C   LIG    1       26.114 -13.838   2.664  0.00  0.00    +0.045 A 
ATOM      8  C   LIG    1       27.463 -13.808   2.717  0.00  0.00    +0.004 A 
ATOM      9  C   LIG    1       28.009 -13.441   3.930  0.00  0.00    +0.000 A 
ATOM     10  C   LIG    1       27.123 -13.322   5.027  0.00  0.00    +0.004 A 
ATOM     11  C   LIG    1       25.786 -13.708   4.937  0.00  0.00    +0.045 A 
ENDBRANCH   5   6
ENDBRANCH   4   5
ENDBRANCH   3   4
ENDBRANCH   1   3
BRANCH   1  12
ATOM     12  C   LIG    1       23.974 -19.443   3.505  0.00  0.00    +0.120 C 
BRANCH  12  13
ATOM     13  C   LIG    1       24.485 -20.097   4.766  0.00  0.00    -0.033 A 
ATOM     14  C   LIG    1       23.594 -20.595   5.713  0.00  0.00    +0.005 A 
ATOM     15  C   LIG    1       24.060 -21.292   6.810  0.00  0.00    +0.000 A 
ATOM     16  C   LIG    1       25.428 -21.380   7.055  0.00  0.00    +0.000 A 
ATOM     17  C   LIG    1       26.334 -20.759   6.199  0.00  0.00    +0.000 A 
ATOM     18  C   LIG    1       25.866 -20.132   5.049  0.00  0.00    +0.005 A 
ENDBRANCH  12  13
ENDBRANCH   1  12
BRANCH   1  19
ATOM     19  C   LIG    1       21.996 -18.351   4.453  0.00  0.00    +0.101 C 
BRANCH  19  20
ATOM     20  C   LIG    1       20.728 -19.124   4.033  0.00  0.00    +0.124 C 
ATOM     21 CL   LIG    1       19.718 -18.209   2.895  0.00  0.00    -0.124 Cl
ENDBRANCH  19  20
ENDBRANCH   1  19
TORSDOF 8
ENDMDL
MODEL 9
REMARK VINA RESULT:      -3.6      2.378      3.607
REMARK  Name = *****
REMARK                            x       y       z     vdW  Elec       q    Type
REMARK                         _______ _______ _______ _____ _____    ______ ____
ROOT
ATOM      1  N   LIG    1       24.183 -16.199   3.638  0.00  0.00    -0.291 NA
ENDROOT
BRANCH   1   3
ATOM      2  C   LIG    1       22.338 -15.631   5.147  0.00  0.00    +0.028 C 
ATOM      3  C   LIG    1       23.187 -16.809   4.628  0.00  0.00    +0.091 C 
BRANCH   3   4
ATOM      4  C   LIG    1       22.281 -18.036   4.056  0.00  0.00    +0.247 C 
BRANCH   4   5
ATOM      5  O   LIG    1       21.905 -19.143   4.936  0.00  0.00    -0.490 OA
BRANCH   5   6
ATOM      6  C   LIG    1       22.870 -20.061   5.248  0.00  0.00    +0.121 A 
ATOM      7  C   LIG    1       23.141 -20.334   6.552  0.00  0.00    +0.045 A 
ATOM      8  C   LIG    1       24.300 -20.833   7.034  0.00  0.00    +0.004 A 
ATOM      9  C   LIG    1       25.053 -21.572   6.144  0.00  0.00    +0.000 A 
ATOM     10  C   LIG    1       24.637 -21.572   4.792  0.00  0.00    +0.004 A 
ATOM     11  C   LIG    1       23.613 -20.741   4.338  0.00  0.00    +0.045 A 
ENDBRANCH   5   6
ENDBRANCH   4   5
ENDBRANCH   3   4
ENDBRANCH   1   3
BRANCH   1  12
ATOM     12  C   LIG    1       24.344 -14.742   4.031  0.00  0.00    +0.120 C 
BRANCH  12  13
ATOM     13  C   LIG    1       25.721 -14.124   4.027  0.00  0.00    -0.033 A 
ATOM     14  C   LIG    1       26.315 -13.717   5.219  0.00  0.00    +0.005 A 
ATOM     15  C   LIG    1       27.617 -13.257   5.228  0.00  0.00    +0.000 A 
ATOM     16  C   LIG    1       28.298 -13.059   4.030  0.00  0.00    +0.000 A 
ATOM     17  C   LIG    1       27.667 -13.317   2.815  0.00  0.00    +0.000 A 
ATOM     18  C   LIG    1       26.389 -13.862   2.813  0.00  0.00    +0.005 A 
ENDBRANCH  12  13
ENDBRANCH   1  12
BRANCH   1  19
ATOM     19  C   LIG    1       25.508 -16.867   3.661  0.00  0.00    +0.101 C 
BRANCH  19  20
ATOM     20  C   LIG    1       25.756 -18.368   3.400  0.00  0.00    +0.124 C 
ATOM     21 CL   LIG    1       27.046 -19.033   4.423  0.00  0.00    -0.124 Cl
ENDBRANCH  19  20
ENDBRANCH   1  19
TORSDOF 8
ENDMDL
