MODEL 1
REMARK VINA RESULT:      -1.6      0.000      0.000
REMARK  Name = *****
REMARK                            x       y       z     vdW  Elec       q    Type
REMARK                         _______ _______ _______ _____ _____    ______ ____
ROOT
ATOM      1  C   LIG    1       29.197 -19.748   5.861  0.00  0.00    +0.001 A 
ATOM      2  C   LIG    1       28.063 -20.496   5.556  0.00  0.00    +0.017 A 
ATOM      3  C   LIG    1       26.935 -19.884   4.983  0.00  0.00    +0.034 A 
ATOM      4  S   LIG    1       25.545 -20.938   4.602  0.00  0.00    -0.086 S 
ATOM      5  C   LIG    1       24.237 -19.735   4.453  0.00  0.00    +0.034 A 
ATOM      6  C   LIG    1       24.489 -18.371   4.215  0.00  0.00    +0.048 A 
ATOM      7  N   LIG    1       25.812 -17.862   4.120  0.00  0.00    -0.298 N 
ATOM      8  C   LIG    1       23.382 -17.503   4.155  0.00  0.00    +0.024 A 
ATOM      9  C   LIG    1       22.072 -17.976   4.287  0.00  0.00    +0.002 A 
ATOM     10  C   LIG    1       21.840 -19.331   4.479  0.00  0.00    +0.001 A 
ATOM     11  C   LIG    1       22.919 -20.209   4.560  0.00  0.00    +0.017 A 
ATOM     12  C   LIG    1       26.942 -18.508   4.682  0.00  0.00    +0.048 A 
ATOM     13  C   LIG    1       28.093 -17.772   5.025  0.00  0.00    +0.024 A 
ATOM     14  C   LIG    1       29.211 -18.385   5.600  0.00  0.00    +0.002 A 
ENDROOT
BRANCH   7  15
ATOM     15  C   LIG    1       26.074 -16.956   2.971  0.00  0.00    +0.116 C 
BRANCH  15  16
ATOM     16  C   LIG    1       26.655 -15.581   3.383  0.00  0.00    +0.024 C 
ATOM     17  C   LIG    1       25.877 -14.829   4.493  0.00  0.00    -0.003 C 
ATOM     18  C   LIG    1       24.514 -14.366   3.959  0.00  0.00    +0.019 C 
ATOM     19  C   LIG    1       24.721 -13.467   2.731  0.00  0.00    +0.085 C 
ATOM     20  N   LIG    1       26.156 -13.309   2.406  0.00  0.00    -0.302 NA
ATOM     21  C   LIG    1       26.842 -12.703   3.567  0.00  0.00    +0.085 C 
ATOM     22  C   LIG    1       26.680 -13.558   4.831  0.00  0.00    +0.019 C 
ATOM     23  C   LIG    1       26.733 -14.648   2.146  0.00  0.00    +0.089 C 
ENDBRANCH  15  16
ENDBRANCH   7  15
TORSDOF 2
ENDMDL
