MODEL 1
REMARK VINA RESULT:       5.4      0.000      0.000
REMARK  Name = *****
REMARK                            x       y       z     vdW  Elec       q    Type
REMARK                         _______ _______ _______ _____ _____    ______ ____
ROOT
ATOM      1  C   LIG    1       24.916 -15.925   3.876  0.00  0.00    -0.011 C 
ATOM      2  C   LIG    1       25.137 -17.330   3.738  0.00  0.00    -0.018 C 
ATOM      3  C   LIG    1       26.432 -17.847   3.143  0.00  0.00    +0.046 C 
ATOM      4  C   LIG    1       24.089 -18.248   4.040  0.00  0.00    +0.057 C 
ATOM      5  C   LIG    1       22.778 -17.751   4.166  0.00  0.00    +0.046 C 
ATOM      6  C   LIG    1       21.633 -18.680   4.276  0.00  0.00    +0.203 C 
ATOM      7  C   LIG    1       21.900 -20.132   4.247  0.00  0.00    +0.122 C 
ATOM      8  C   LIG    1       23.188 -20.501   4.250  0.00  0.00    +0.105 C 
ATOM      9  O   LIG    1       20.477 -18.270   4.371  0.00  0.00    -0.286 OA
ATOM     10  C   LIG    1       22.523 -16.388   4.184  0.00  0.00    +0.014 C 
ATOM     11  N   LIG    1       24.291 -19.653   4.223  0.00  0.00    -0.342 NA
ATOM     12  C   LIG    1       23.587 -15.500   4.107  0.00  0.00    +0.009 C 
ENDROOT
BRANCH   1  17
ATOM     13  C   LIG    1       28.014 -12.949   3.586  0.00  0.00    +0.121 A 
ATOM     14  C   LIG    1       27.549 -13.326   4.847  0.00  0.00    -0.010 A 
ATOM     15  C   LIG    1       28.097 -12.736   6.111  0.00  0.00    +0.047 C 
ATOM     16  C   LIG    1       26.519 -14.277   4.922  0.00  0.00    +0.016 A 
ATOM     17  C   LIG    1       25.978 -14.881   3.779  0.00  0.00    +0.001 A 
ATOM     18  C   LIG    1       26.568 -14.467   2.590  0.00  0.00    +0.121 A 
ATOM     19  N   LIG    1       27.526 -13.513   2.466  0.00  0.00    -0.240 NA
BRANCH  13  21
ATOM     20  C   LIG    1       29.475 -11.447   4.765  0.00  0.00    +0.127 C 
ATOM     21  N   LIG    1       28.983 -11.937   3.489  0.00  0.00    -0.332 N 
ATOM     22  H   LIG    1       28.615 -11.188   2.913  0.00  0.00    +0.147 HD
ENDBRANCH  13  21
ENDBRANCH   1  17
BRANCH  11  23
ATOM     23  C   LIG    1       25.509 -20.174   4.902  0.00  0.00    +0.087 C 
ATOM     24  C   LIG    1       25.728 -20.160   6.399  0.00  0.00    +0.027 C 
ATOM     25  C   LIG    1       25.447 -21.453   5.711  0.00  0.00    +0.027 C 
ENDBRANCH  11  23
BRANCH   7  26
ATOM     26  C   LIG    1       20.832 -21.141   4.272  0.00  0.00    +0.342 C 
ATOM     27  O   LIG    1       20.285 -21.564   3.254  0.00  0.00    -0.245 OA
BRANCH  26  28
ATOM     28  O   LIG    1       20.476 -21.572   5.502  0.00  0.00    -0.477 OA
ATOM     29  H   LIG    1       21.229 -21.632   6.137  0.00  0.00    +0.295 HD
ENDBRANCH  26  28
ENDBRANCH   7  26
TORSDOF 5
ENDMDL
MODEL 2
REMARK VINA RESULT:       7.1      3.973      8.470
REMARK  Name = *****
REMARK                            x       y       z     vdW  Elec       q    Type
REMARK                         _______ _______ _______ _____ _____    ______ ____
ROOT
ATOM      1  C   LIG    1       24.839 -17.161   4.083  0.00  0.00    -0.011 C 
ATOM      2  C   LIG    1       24.581 -15.756   4.045  0.00  0.00    -0.018 C 
ATOM      3  C   LIG    1       23.183 -15.239   3.766  0.00  0.00    +0.046 C 
ATOM      4  C   LIG    1       25.663 -14.832   4.141  0.00  0.00    +0.057 C 
ATOM      5  C   LIG    1       26.974 -15.313   3.959  0.00  0.00    +0.046 C 
ATOM      6  C   LIG    1       28.108 -14.371   3.847  0.00  0.00    +0.203 C 
ATOM      7  C   LIG    1       27.830 -12.923   3.927  0.00  0.00    +0.122 C 
ATOM      8  C   LIG    1       26.571 -12.574   4.225  0.00  0.00    +0.105 C 
ATOM      9  O   LIG    1       29.260 -14.767   3.672  0.00  0.00    -0.286 OA
ATOM     10  C   LIG    1       27.237 -16.673   3.875  0.00  0.00    +0.014 C 
ATOM     11  N   LIG    1       25.496 -13.437   4.411  0.00  0.00    -0.342 NA
ATOM     12  C   LIG    1       26.189 -17.573   4.003  0.00  0.00    +0.009 C 
ENDROOT
BRANCH   1  17
ATOM     13  C   LIG    1       21.784 -20.178   4.412  0.00  0.00    +0.121 A 
ATOM     14  C   LIG    1       22.996 -20.361   5.080  0.00  0.00    -0.010 A 
ATOM     15  C   LIG    1       23.272 -21.572   5.920  0.00  0.00    +0.047 C 
ATOM     16  C   LIG    1       23.991 -19.381   4.939  0.00  0.00    +0.016 A 
ATOM     17  C   LIG    1       23.789 -18.217   4.186  0.00  0.00    +0.001 A 
ATOM     18  C   LIG    1       22.521 -18.123   3.622  0.00  0.00    +0.121 A 
ATOM     19  N   LIG    1       21.550 -19.069   3.687  0.00  0.00    -0.240 NA
BRANCH  13  21
ATOM     20  C   LIG    1       19.538 -20.839   3.867  0.00  0.00    +0.127 C 
ATOM     21  N   LIG    1       20.811 -21.189   4.473  0.00  0.00    -0.332 N 
ATOM     22  H   LIG    1       20.703 -21.479   5.439  0.00  0.00    +0.147 HD
ENDBRANCH  13  21
ENDBRANCH   1  17
BRANCH  11  23
ATOM     23  C   LIG    1       24.453 -12.956   5.358  0.00  0.00    +0.087 C 
ATOM     24  C   LIG    1       24.410 -11.565   5.952  0.00  0.00    +0.027 C 
ATOM     25  C   LIG    1       23.416 -11.946   4.907  0.00  0.00    +0.027 C 
ENDBRANCH  11  23
BRANCH   7  26
ATOM     26  C   LIG    1       28.870 -11.900   3.751  0.00  0.00    +0.342 C 
ATOM     27  O   LIG    1       29.187 -11.448   2.652  0.00  0.00    -0.245 OA
BRANCH  26  28
ATOM     28  O   LIG    1       29.472 -11.490   4.890  0.00  0.00    -0.477 OA
ATOM     29  H   LIG    1       30.185 -12.095   5.204  0.00  0.00    +0.295 HD
ENDBRANCH  26  28
ENDBRANCH   7  26
TORSDOF 5
ENDMDL
