MODEL 1
REMARK VINA RESULT:      -7.4      0.000      0.000
REMARK  Name = *****
REMARK                            x       y       z     vdW  Elec       q    Type
REMARK                         _______ _______ _______ _____ _____    ______ ____
ROOT
ATOM      1  C   LIG    1       24.914 -23.734   6.828  0.00  0.00    -0.027 A 
ATOM      2  C   LIG    1       25.475 -22.503   6.417  0.00  0.00    -0.033 A 
ATOM      3  C   LIG    1       26.947 -22.237   6.634  0.00  0.00    +0.045 C 
ATOM      4  C   LIG    1       24.635 -21.511   5.791  0.00  0.00    +0.043 A 
ATOM      5  C   LIG    1       23.240 -21.699   5.783  0.00  0.00    +0.078 A 
ATOM      6  N   LIG    1       22.376 -20.807   5.310  0.00  0.00    -0.215 NA
ATOM      7  C   LIG    1       22.863 -19.694   4.770  0.00  0.00    +0.215 A 
ATOM      8  N   LIG    1       24.159 -19.416   4.649  0.00  0.00    -0.200 NA
ATOM      9  C   LIG    1       22.718 -22.883   6.267  0.00  0.00    +0.029 A 
ATOM     10  C   LIG    1       25.014 -20.327   5.125  0.00  0.00    +0.129 A 
ATOM     11  C   LIG    1       23.527 -23.904   6.751  0.00  0.00    +0.007 A 
ENDROOT
BRANCH   7  12
ATOM     12  N   LIG    1       21.961 -18.752   4.325  0.00  0.00    -0.327 N 
ATOM     13  H   LIG    1       21.023 -19.045   4.561  0.00  0.00    +0.145 HD
ATOM     14  H   LIG    1       22.146 -18.548   3.350  0.00  0.00    +0.145 HD
ENDBRANCH   7  12
BRANCH  10  15
ATOM     15  N   LIG    1       26.354 -20.028   4.838  0.00  0.00    -0.343 N 
ATOM     16  H   LIG    1       26.621 -19.159   5.286  0.00  0.00    +0.144 HD
ATOM     17  H   LIG    1       26.904 -20.803   5.201  0.00  0.00    +0.144 HD
ENDBRANCH  10  15
BRANCH   1  18
ATOM     18  C   LIG    1       25.741 -24.897   7.324  0.00  0.00    +0.137 C 
BRANCH  18  19
ATOM     19  N   LIG    1       25.543 -26.067   6.486  0.00  0.00    -0.340 N 
ATOM     20  H   LIG    1       26.016 -26.029   5.586  0.00  0.00    +0.146 HD
BRANCH  19  25
ATOM     21  C   LIG    1       26.310 -28.952   8.738  0.00  0.00    +0.167 A 
ATOM     22  C   LIG    1       25.360 -29.893   8.293  0.00  0.00    +0.204 A 
ATOM     23  C   LIG    1       24.519 -29.558   7.217  0.00  0.00    +0.167 A 
ATOM     24  C   LIG    1       24.597 -28.275   6.649  0.00  0.00    +0.072 A 
ATOM     25  C   LIG    1       25.551 -27.340   7.062  0.00  0.00    +0.035 A 
ATOM     26  C   LIG    1       26.382 -27.695   8.127  0.00  0.00    +0.072 A 
BRANCH  21  28
ATOM     27  C   LIG    1       27.151 -28.576  10.952  0.00  0.00    +0.277 C 
ATOM     28  O   LIG    1       27.143 -29.349   9.758  0.00  0.00    -0.491 OA
ENDBRANCH  21  28
BRANCH  22  29
ATOM     29  O   LIG    1       25.321 -31.055   9.028  0.00  0.00    -0.488 OA
ATOM     30  C   LIG    1       24.310 -31.189  10.012  0.00  0.00    +0.277 C 
ENDBRANCH  22  29
BRANCH  23  31
ATOM     31  O   LIG    1       23.577 -30.459   6.792  0.00  0.00    -0.491 OA
ATOM     32  C   LIG    1       24.060 -31.564   6.029  0.00  0.00    +0.277 C 
ENDBRANCH  23  31
ENDBRANCH  19  25
ENDBRANCH  18  19
ENDBRANCH   1  18
TORSDOF 8
ENDMDL
MODEL 2
REMARK VINA RESULT:      -7.2      0.719      2.520
REMARK  Name = *****
REMARK                            x       y       z     vdW  Elec       q    Type
REMARK                         _______ _______ _______ _____ _____    ______ ____
ROOT
ATOM      1  C   LIG    1       24.940 -24.165   6.804  0.00  0.00    -0.027 A 
ATOM      2  C   LIG    1       25.505 -22.897   6.538  0.00  0.00    -0.033 A 
ATOM      3  C   LIG    1       26.963 -22.643   6.846  0.00  0.00    +0.045 C 
ATOM      4  C   LIG    1       24.684 -21.856   5.972  0.00  0.00    +0.043 A 
ATOM      5  C   LIG    1       23.292 -22.051   5.883  0.00  0.00    +0.078 A 
ATOM      6  N   LIG    1       22.440 -21.123   5.459  0.00  0.00    -0.215 NA
ATOM      7  C   LIG    1       22.938 -19.961   5.050  0.00  0.00    +0.215 A 
ATOM      8  N   LIG    1       24.235 -19.664   5.015  0.00  0.00    -0.200 NA
ATOM      9  C   LIG    1       22.762 -23.280   6.227  0.00  0.00    +0.029 A 
ATOM     10  C   LIG    1       25.079 -20.610   5.440  0.00  0.00    +0.129 A 
ATOM     11  C   LIG    1       23.560 -24.337   6.648  0.00  0.00    +0.007 A 
ENDROOT
BRANCH   7  12
ATOM     12  N   LIG    1       22.047 -18.987   4.657  0.00  0.00    -0.327 N 
ATOM     13  H   LIG    1       22.551 -18.212   4.248  0.00  0.00    +0.145 HD
ATOM     14  H   LIG    1       21.426 -18.773   5.428  0.00  0.00    +0.145 HD
ENDBRANCH   7  12
BRANCH  10  15
ATOM     15  N   LIG    1       26.426 -20.276   5.244  0.00  0.00    -0.343 N 
ATOM     16  H   LIG    1       26.667 -20.360   4.263  0.00  0.00    +0.144 HD
ATOM     17  H   LIG    1       26.530 -19.313   5.558  0.00  0.00    +0.144 HD
ENDBRANCH  10  15
BRANCH   1  18
ATOM     18  C   LIG    1       25.758 -25.365   7.223  0.00  0.00    +0.137 C 
BRANCH  18  19
ATOM     19  N   LIG    1       25.280 -26.571   6.569  0.00  0.00    -0.340 N 
ATOM     20  H   LIG    1       25.551 -26.659   5.593  0.00  0.00    +0.146 HD
BRANCH  19  25
ATOM     21  C   LIG    1       24.550 -30.090   7.603  0.00  0.00    +0.167 A 
ATOM     22  C   LIG    1       25.532 -30.280   8.597  0.00  0.00    +0.204 A 
ATOM     23  C   LIG    1       26.382 -29.212   8.932  0.00  0.00    +0.167 A 
ATOM     24  C   LIG    1       26.280 -27.998   8.230  0.00  0.00    +0.072 A 
ATOM     25  C   LIG    1       25.295 -27.785   7.260  0.00  0.00    +0.035 A 
ATOM     26  C   LIG    1       24.456 -28.857   6.948  0.00  0.00    +0.072 A 
BRANCH  21  28
ATOM     27  C   LIG    1       23.840 -31.821   6.103  0.00  0.00    +0.277 C 
ATOM     28  O   LIG    1       23.711 -31.150   7.351  0.00  0.00    -0.491 OA
ENDBRANCH  21  28
BRANCH  22  29
ATOM     29  O   LIG    1       25.588 -31.558   9.104  0.00  0.00    -0.488 OA
ATOM     30  C   LIG    1       26.629 -32.409   8.655  0.00  0.00    +0.277 C 
ENDBRANCH  22  29
BRANCH  23  31
ATOM     31  O   LIG    1       27.354 -29.395   9.881  0.00  0.00    -0.491 OA
ATOM     32  C   LIG    1       27.226 -28.621  11.073  0.00  0.00    +0.277 C 
ENDBRANCH  23  31
ENDBRANCH  19  25
ENDBRANCH  18  19
ENDBRANCH   1  18
TORSDOF 8
ENDMDL
MODEL 3
REMARK VINA RESULT:      -7.1      4.161      8.952
REMARK  Name = *****
REMARK                            x       y       z     vdW  Elec       q    Type
REMARK                         _______ _______ _______ _____ _____    ______ ____
ROOT
ATOM      1  C   LIG    1       25.393 -27.682   6.778  0.00  0.00    -0.027 A 
ATOM      2  C   LIG    1       25.540 -28.651   7.797  0.00  0.00    -0.033 A 
ATOM      3  C   LIG    1       26.433 -28.366   8.983  0.00  0.00    +0.045 C 
ATOM      4  C   LIG    1       24.834 -29.904   7.696  0.00  0.00    +0.043 A 
ATOM      5  C   LIG    1       24.174 -30.225   6.494  0.00  0.00    +0.078 A 
ATOM      6  N   LIG    1       23.569 -31.388   6.270  0.00  0.00    -0.215 NA
ATOM      7  C   LIG    1       23.546 -32.278   7.256  0.00  0.00    +0.215 A 
ATOM      8  N   LIG    1       24.069 -32.083   8.464  0.00  0.00    -0.200 NA
ATOM      9  C   LIG    1       24.116 -29.283   5.486  0.00  0.00    +0.029 A 
ATOM     10  C   LIG    1       24.669 -30.906   8.675  0.00  0.00    +0.129 A 
ATOM     11  C   LIG    1       24.680 -28.020   5.622  0.00  0.00    +0.007 A 
ENDROOT
BRANCH   7  12
ATOM     12  N   LIG    1       22.960 -33.499   7.001  0.00  0.00    -0.327 N 
ATOM     13  H   LIG    1       21.969 -33.444   7.190  0.00  0.00    +0.145 HD
ATOM     14  H   LIG    1       23.479 -34.224   7.482  0.00  0.00    +0.145 HD
ENDBRANCH   7  12
BRANCH  10  15
ATOM     15  N   LIG    1       25.070 -30.723  10.006  0.00  0.00    -0.343 N 
ATOM     16  H   LIG    1       24.260 -30.697  10.614  0.00  0.00    +0.144 HD
ATOM     17  H   LIG    1       25.667 -31.515  10.236  0.00  0.00    +0.144 HD
ENDBRANCH  10  15
BRANCH   1  18
ATOM     18  C   LIG    1       25.944 -26.280   6.883  0.00  0.00    +0.137 C 
BRANCH  18  19
ATOM     19  N   LIG    1       24.921 -25.297   6.567  0.00  0.00    -0.340 N 
ATOM     20  H   LIG    1       24.009 -25.489   6.973  0.00  0.00    +0.146 HD
BRANCH  19  25
ATOM     21  C   LIG    1       26.551 -22.018   7.331  0.00  0.00    +0.167 A 
ATOM     22  C   LIG    1       25.987 -21.205   6.328  0.00  0.00    +0.204 A 
ATOM     23  C   LIG    1       25.038 -21.759   5.450  0.00  0.00    +0.167 A 
ATOM     24  C   LIG    1       24.717 -23.125   5.550  0.00  0.00    +0.072 A 
ATOM     25  C   LIG    1       25.248 -23.938   6.555  0.00  0.00    +0.035 A 
ATOM     26  C   LIG    1       26.183 -23.366   7.421  0.00  0.00    +0.072 A 
BRANCH  21  28
ATOM     27  C   LIG    1       28.823 -21.517   7.910  0.00  0.00    +0.277 C 
ATOM     28  O   LIG    1       27.434 -21.413   8.195  0.00  0.00    -0.491 OA
ENDBRANCH  21  28
BRANCH  22  29
ATOM     29  O   LIG    1       26.492 -19.927   6.281  0.00  0.00    -0.488 OA
ATOM     30  C   LIG    1       27.484 -19.636   5.311  0.00  0.00    +0.277 C 
ENDBRANCH  22  29
BRANCH  23  31
ATOM     31  O   LIG    1       24.501 -20.981   4.458  0.00  0.00    -0.491 OA
ATOM     32  C   LIG    1       23.260 -20.344   4.757  0.00  0.00    +0.277 C 
ENDBRANCH  23  31
ENDBRANCH  19  25
ENDBRANCH  18  19
ENDBRANCH   1  18
TORSDOF 8
ENDMDL
MODEL 4
REMARK VINA RESULT:      -6.9      4.114      9.064
REMARK  Name = *****
REMARK                            x       y       z     vdW  Elec       q    Type
REMARK                         _______ _______ _______ _____ _____    ______ ____
ROOT
ATOM      1  C   LIG    1       25.695 -27.580   7.082  0.00  0.00    -0.027 A 
ATOM      2  C   LIG    1       24.882 -28.652   6.647  0.00  0.00    -0.033 A 
ATOM      3  C   LIG    1       24.048 -28.504   5.395  0.00  0.00    +0.045 C 
ATOM      4  C   LIG    1       24.859 -29.880   7.403  0.00  0.00    +0.043 A 
ATOM      5  C   LIG    1       25.483 -29.922   8.664  0.00  0.00    +0.078 A 
ATOM      6  N   LIG    1       25.444 -30.975   9.475  0.00  0.00    -0.215 NA
ATOM      7  C   LIG    1       24.820 -32.067   9.046  0.00  0.00    +0.215 A 
ATOM      8  N   LIG    1       24.246 -32.191   7.852  0.00  0.00    -0.200 NA
ATOM      9  C   LIG    1       26.204 -28.825   9.095  0.00  0.00    +0.029 A 
ATOM     10  C   LIG    1       24.299 -31.125   7.047  0.00  0.00    +0.129 A 
ATOM     11  C   LIG    1       26.346 -27.682   8.317  0.00  0.00    +0.007 A 
ENDROOT
BRANCH   7  12
ATOM     12  N   LIG    1       24.742 -33.138   9.910  0.00  0.00    -0.327 N 
ATOM     13  H   LIG    1       24.035 -32.957  10.609  0.00  0.00    +0.145 HD
ATOM     14  H   LIG    1       25.671 -33.365  10.244  0.00  0.00    +0.145 HD
ENDBRANCH   7  12
BRANCH  10  15
ATOM     15  N   LIG    1       23.798 -31.378   5.763  0.00  0.00    -0.343 N 
ATOM     16  H   LIG    1       23.012 -32.017   5.815  0.00  0.00    +0.144 HD
ATOM     17  H   LIG    1       23.505 -30.479   5.387  0.00  0.00    +0.144 HD
ENDBRANCH  10  15
BRANCH   1  18
ATOM     18  C   LIG    1       25.924 -26.330   6.265  0.00  0.00    +0.137 C 
BRANCH  18  19
ATOM     19  N   LIG    1       24.905 -25.334   6.545  0.00  0.00    -0.340 N 
ATOM     20  H   LIG    1       24.255 -25.589   7.285  0.00  0.00    +0.146 HD
BRANCH  19  25
ATOM     21  C   LIG    1       26.556 -22.079   7.361  0.00  0.00    +0.167 A 
ATOM     22  C   LIG    1       26.014 -21.251   6.358  0.00  0.00    +0.204 A 
ATOM     23  C   LIG    1       25.072 -21.788   5.463  0.00  0.00    +0.167 A 
ATOM     24  C   LIG    1       24.736 -23.150   5.545  0.00  0.00    +0.072 A 
ATOM     25  C   LIG    1       25.245 -23.978   6.550  0.00  0.00    +0.035 A 
ATOM     26  C   LIG    1       26.174 -23.423   7.434  0.00  0.00    +0.072 A 
BRANCH  21  28
ATOM     27  C   LIG    1       28.824 -21.567   7.951  0.00  0.00    +0.277 C 
ATOM     28  O   LIG    1       27.433 -21.490   8.242  0.00  0.00    -0.491 OA
ENDBRANCH  21  28
BRANCH  22  29
ATOM     29  O   LIG    1       26.533 -19.977   6.329  0.00  0.00    -0.488 OA
ATOM     30  C   LIG    1       27.501 -19.672   5.340  0.00  0.00    +0.277 C 
ENDBRANCH  22  29
BRANCH  23  31
ATOM     31  O   LIG    1       24.556 -20.995   4.470  0.00  0.00    -0.491 OA
ATOM     32  C   LIG    1       23.344 -20.308   4.777  0.00  0.00    +0.277 C 
ENDBRANCH  23  31
ENDBRANCH  19  25
ENDBRANCH  18  19
ENDBRANCH   1  18
TORSDOF 8
ENDMDL
MODEL 5
REMARK VINA RESULT:      -6.9      4.179      9.240
REMARK  Name = *****
REMARK                            x       y       z     vdW  Elec       q    Type
REMARK                         _______ _______ _______ _____ _____    ______ ____
ROOT
ATOM      1  C   LIG    1       25.352 -27.815   6.902  0.00  0.00    -0.027 A 
ATOM      2  C   LIG    1       25.508 -28.803   7.902  0.00  0.00    -0.033 A 
ATOM      3  C   LIG    1       26.412 -28.539   9.085  0.00  0.00    +0.045 C 
ATOM      4  C   LIG    1       24.801 -30.054   7.784  0.00  0.00    +0.043 A 
ATOM      5  C   LIG    1       24.130 -30.353   6.583  0.00  0.00    +0.078 A 
ATOM      6  N   LIG    1       23.524 -31.511   6.343  0.00  0.00    -0.215 NA
ATOM      7  C   LIG    1       23.509 -32.420   7.313  0.00  0.00    +0.215 A 
ATOM      8  N   LIG    1       24.043 -32.246   8.520  0.00  0.00    -0.200 NA
ATOM      9  C   LIG    1       24.064 -29.393   5.593  0.00  0.00    +0.029 A 
ATOM     10  C   LIG    1       24.645 -31.073   8.747  0.00  0.00    +0.129 A 
ATOM     11  C   LIG    1       24.629 -28.132   5.746  0.00  0.00    +0.007 A 
ENDROOT
BRANCH   7  12
ATOM     12  N   LIG    1       22.922 -33.635   7.041  0.00  0.00    -0.327 N 
ATOM     13  H   LIG    1       21.916 -33.534   7.052  0.00  0.00    +0.145 HD
ATOM     14  H   LIG    1       23.318 -34.341   7.651  0.00  0.00    +0.145 HD
ENDBRANCH   7  12
BRANCH  10  15
ATOM     15  N   LIG    1       25.058 -30.914  10.077  0.00  0.00    -0.343 N 
ATOM     16  H   LIG    1       25.307 -31.812  10.475  0.00  0.00    +0.144 HD
ATOM     17  H   LIG    1       25.865 -30.295  10.054  0.00  0.00    +0.144 HD
ENDBRANCH  10  15
BRANCH   1  18
ATOM     18  C   LIG    1       25.904 -26.415   7.028  0.00  0.00    +0.137 C 
BRANCH  18  19
ATOM     19  N   LIG    1       24.914 -25.430   6.626  0.00  0.00    -0.340 N 
ATOM     20  H   LIG    1       24.011 -25.527   7.083  0.00  0.00    +0.146 HD
BRANCH  19  25
ATOM     21  C   LIG    1       25.121 -21.937   5.307  0.00  0.00    +0.167 A 
ATOM     22  C   LIG    1       25.998 -21.354   6.243  0.00  0.00    +0.204 A 
ATOM     23  C   LIG    1       26.539 -22.155   7.265  0.00  0.00    +0.167 A 
ATOM     24  C   LIG    1       26.147 -23.502   7.370  0.00  0.00    +0.072 A 
ATOM     25  C   LIG    1       25.298 -24.100   6.434  0.00  0.00    +0.035 A 
ATOM     26  C   LIG    1       24.778 -23.289   5.423  0.00  0.00    +0.072 A 
BRANCH  21  28
ATOM     27  C   LIG    1       23.322 -20.650   4.379  0.00  0.00    +0.277 C 
ATOM     28  O   LIG    1       24.662 -21.121   4.299  0.00  0.00    -0.491 OA
ENDBRANCH  21  28
BRANCH  22  29
ATOM     29  O   LIG    1       26.187 -20.001   6.082  0.00  0.00    -0.488 OA
ATOM     30  C   LIG    1       27.323 -19.568   5.353  0.00  0.00    +0.277 C 
ENDBRANCH  22  29
BRANCH  23  31
ATOM     31  O   LIG    1       27.376 -21.592   8.193  0.00  0.00    -0.491 OA
ATOM     32  C   LIG    1       28.757 -21.532   7.842  0.00  0.00    +0.277 C 
ENDBRANCH  23  31
ENDBRANCH  19  25
ENDBRANCH  18  19
ENDBRANCH   1  18
TORSDOF 8
ENDMDL
MODEL 6
REMARK VINA RESULT:      -6.7      4.144      9.363
REMARK  Name = *****
REMARK                            x       y       z     vdW  Elec       q    Type
REMARK                         _______ _______ _______ _____ _____    ______ ____
ROOT
ATOM      1  C   LIG    1       25.651 -27.841   7.179  0.00  0.00    -0.027 A 
ATOM      2  C   LIG    1       24.825 -28.884   6.699  0.00  0.00    -0.033 A 
ATOM      3  C   LIG    1       24.040 -28.695   5.421  0.00  0.00    +0.045 C 
ATOM      4  C   LIG    1       24.742 -30.122   7.434  0.00  0.00    +0.043 A 
ATOM      5  C   LIG    1       25.319 -30.199   8.716  0.00  0.00    +0.078 A 
ATOM      6  N   LIG    1       25.223 -31.263   9.508  0.00  0.00    -0.215 NA
ATOM      7  C   LIG    1       24.585 -32.331   9.041  0.00  0.00    +0.215 A 
ATOM      8  N   LIG    1       24.051 -32.422   7.825  0.00  0.00    -0.200 NA
ATOM      9  C   LIG    1       26.054 -29.129   9.189  0.00  0.00    +0.029 A 
ATOM     10  C   LIG    1       24.162 -31.345   7.040  0.00  0.00    +0.129 A 
ATOM     11  C   LIG    1       26.255 -27.980   8.434  0.00  0.00    +0.007 A 
ENDROOT
BRANCH   7  12
ATOM     12  N   LIG    1       24.447 -33.412   9.884  0.00  0.00    -0.327 N 
ATOM     13  H   LIG    1       25.219 -33.432  10.537  0.00  0.00    +0.145 HD
ATOM     14  H   LIG    1       24.291 -34.247   9.332  0.00  0.00    +0.145 HD
ENDBRANCH   7  12
BRANCH  10  15
ATOM     15  N   LIG    1       23.699 -31.566   5.735  0.00  0.00    -0.343 N 
ATOM     16  H   LIG    1       23.977 -32.488   5.418  0.00  0.00    +0.144 HD
ATOM     17  H   LIG    1       22.685 -31.490   5.774  0.00  0.00    +0.144 HD
ENDBRANCH  10  15
BRANCH   1  18
ATOM     18  C   LIG    1       25.943 -26.586   6.390  0.00  0.00    +0.137 C 
BRANCH  18  19
ATOM     19  N   LIG    1       24.989 -25.539   6.712  0.00  0.00    -0.340 N 
ATOM     20  H   LIG    1       24.464 -25.692   7.569  0.00  0.00    +0.146 HD
BRANCH  19  25
ATOM     21  C   LIG    1       25.089 -22.049   5.371  0.00  0.00    +0.167 A 
ATOM     22  C   LIG    1       25.963 -21.438   6.293  0.00  0.00    +0.204 A 
ATOM     23  C   LIG    1       26.537 -22.219   7.312  0.00  0.00    +0.167 A 
ATOM     24  C   LIG    1       26.181 -23.574   7.430  0.00  0.00    +0.072 A 
ATOM     25  C   LIG    1       25.337 -24.200   6.508  0.00  0.00    +0.035 A 
ATOM     26  C   LIG    1       24.784 -23.409   5.499  0.00  0.00    +0.072 A 
BRANCH  21  28
ATOM     27  C   LIG    1       23.244 -20.823   4.453  0.00  0.00    +0.277 C 
ATOM     28  O   LIG    1       24.598 -21.252   4.363  0.00  0.00    -0.491 OA
ENDBRANCH  21  28
BRANCH  22  29
ATOM     29  O   LIG    1       26.115 -20.082   6.122  0.00  0.00    -0.488 OA
ATOM     30  C   LIG    1       27.202 -19.626   5.335  0.00  0.00    +0.277 C 
ENDBRANCH  22  29
BRANCH  23  31
ATOM     31  O   LIG    1       27.370 -21.628   8.227  0.00  0.00    -0.491 OA
ATOM     32  C   LIG    1       28.741 -21.513   7.849  0.00  0.00    +0.277 C 
ENDBRANCH  23  31
ENDBRANCH  19  25
ENDBRANCH  18  19
ENDBRANCH   1  18
TORSDOF 8
ENDMDL
MODEL 7
REMARK VINA RESULT:      -6.6      2.338      3.807
REMARK  Name = *****
REMARK                            x       y       z     vdW  Elec       q    Type
REMARK                         _______ _______ _______ _____ _____    ______ ____
ROOT
ATOM      1  C   LIG    1       24.613 -25.200   6.329  0.00  0.00    -0.027 A 
ATOM      2  C   LIG    1       24.034 -23.948   6.639  0.00  0.00    -0.033 A 
ATOM      3  C   LIG    1       22.544 -23.748   6.476  0.00  0.00    +0.045 C 
ATOM      4  C   LIG    1       24.871 -22.874   7.112  0.00  0.00    +0.043 A 
ATOM      5  C   LIG    1       26.270 -23.021   7.065  0.00  0.00    +0.078 A 
ATOM      6  N   LIG    1       27.127 -22.060   7.395  0.00  0.00    -0.215 NA
ATOM      7  C   LIG    1       26.632 -20.911   7.841  0.00  0.00    +0.215 A 
ATOM      8  N   LIG    1       25.335 -20.657   8.002  0.00  0.00    -0.200 NA
ATOM      9  C   LIG    1       26.805 -24.235   6.680  0.00  0.00    +0.029 A 
ATOM     10  C   LIG    1       24.487 -21.636   7.670  0.00  0.00    +0.129 A 
ATOM     11  C   LIG    1       26.007 -25.323   6.348  0.00  0.00    +0.007 A 
ENDROOT
BRANCH   7  12
ATOM     12  N   LIG    1       27.524 -19.903   8.136  0.00  0.00    -0.327 N 
ATOM     13  H   LIG    1       27.653 -19.848   9.137  0.00  0.00    +0.145 HD
ATOM     14  H   LIG    1       27.234 -19.054   7.664  0.00  0.00    +0.145 HD
ENDBRANCH   7  12
BRANCH  10  15
ATOM     15  N   LIG    1       23.155 -21.345   7.997  0.00  0.00    -0.343 N 
ATOM     16  H   LIG    1       22.995 -21.504   8.985  0.00  0.00    +0.144 HD
ATOM     17  H   LIG    1       23.011 -20.365   7.763  0.00  0.00    +0.144 HD
ENDBRANCH  10  15
BRANCH   1  18
ATOM     18  C   LIG    1       23.800 -26.431   6.003  0.00  0.00    +0.137 C 
BRANCH  18  19
ATOM     19  N   LIG    1       24.628 -27.447   5.375  0.00  0.00    -0.340 N 
ATOM     20  H   LIG    1       25.481 -27.094   4.949  0.00  0.00    +0.146 HD
BRANCH  19  25
ATOM     21  C   LIG    1       25.519 -31.023   6.010  0.00  0.00    +0.167 A 
ATOM     22  C   LIG    1       25.272 -31.113   7.395  0.00  0.00    +0.204 A 
ATOM     23  C   LIG    1       24.766 -29.991   8.074  0.00  0.00    +0.167 A 
ATOM     24  C   LIG    1       24.577 -28.786   7.375  0.00  0.00    +0.072 A 
ATOM     25  C   LIG    1       24.792 -28.687   5.998  0.00  0.00    +0.035 A 
ATOM     26  C   LIG    1       25.288 -29.816   5.341  0.00  0.00    +0.072 A 
BRANCH  21  28
ATOM     27  C   LIG    1       25.871 -32.228   3.967  0.00  0.00    +0.277 C 
ATOM     28  O   LIG    1       25.963 -32.165   5.385  0.00  0.00    -0.491 OA
ENDBRANCH  21  28
BRANCH  22  29
ATOM     29  O   LIG    1       25.623 -32.318   7.959  0.00  0.00    -0.488 OA
ATOM     30  C   LIG    1       26.864 -32.401   8.638  0.00  0.00    +0.277 C 
ENDBRANCH  22  29
BRANCH  23  31
ATOM     31  O   LIG    1       24.544 -30.063   9.425  0.00  0.00    -0.491 OA
ATOM     32  C   LIG    1       23.224 -30.424   9.828  0.00  0.00    +0.277 C 
ENDBRANCH  23  31
ENDBRANCH  19  25
ENDBRANCH  18  19
ENDBRANCH   1  18
TORSDOF 8
ENDMDL
MODEL 8
REMARK VINA RESULT:      -6.5      2.021      3.048
REMARK  Name = *****
REMARK                            x       y       z     vdW  Elec       q    Type
REMARK                         _______ _______ _______ _____ _____    ______ ____
ROOT
ATOM      1  C   LIG    1       24.561 -25.041   6.327  0.00  0.00    -0.027 A 
ATOM      2  C   LIG    1       24.019 -23.775   6.646  0.00  0.00    -0.033 A 
ATOM      3  C   LIG    1       22.537 -23.527   6.477  0.00  0.00    +0.045 C 
ATOM      4  C   LIG    1       24.886 -22.731   7.132  0.00  0.00    +0.043 A 
ATOM      5  C   LIG    1       26.280 -22.921   7.089  0.00  0.00    +0.078 A 
ATOM      6  N   LIG    1       27.165 -21.989   7.432  0.00  0.00    -0.215 NA
ATOM      7  C   LIG    1       26.703 -20.829   7.887  0.00  0.00    +0.215 A 
ATOM      8  N   LIG    1       25.414 -20.537   8.044  0.00  0.00    -0.200 NA
ATOM      9  C   LIG    1       26.780 -24.147   6.696  0.00  0.00    +0.029 A 
ATOM     10  C   LIG    1       24.538 -21.487   7.699  0.00  0.00    +0.129 A 
ATOM     11  C   LIG    1       25.951 -25.207   6.351  0.00  0.00    +0.007 A 
ENDROOT
BRANCH   7  12
ATOM     12  N   LIG    1       27.623 -19.851   8.194  0.00  0.00    -0.327 N 
ATOM     13  H   LIG    1       28.495 -20.282   8.471  0.00  0.00    +0.145 HD
ATOM     14  H   LIG    1       27.209 -19.197   8.847  0.00  0.00    +0.145 HD
ENDBRANCH   7  12
BRANCH  10  15
ATOM     15  N   LIG    1       23.214 -21.158   8.023  0.00  0.00    -0.343 N 
ATOM     16  H   LIG    1       23.156 -20.850   8.987  0.00  0.00    +0.144 HD
ATOM     17  H   LIG    1       22.943 -20.408   7.390  0.00  0.00    +0.144 HD
ENDBRANCH  10  15
BRANCH   1  18
ATOM     18  C   LIG    1       23.713 -26.244   5.986  0.00  0.00    +0.137 C 
BRANCH  18  19
ATOM     19  N   LIG    1       24.536 -27.335   5.494  0.00  0.00    -0.340 N 
ATOM     20  H   LIG    1       25.404 -27.045   5.051  0.00  0.00    +0.146 HD
BRANCH  19  25
ATOM     21  C   LIG    1       25.375 -29.711   8.259  0.00  0.00    +0.167 A 
ATOM     22  C   LIG    1       24.710 -30.872   7.818  0.00  0.00    +0.204 A 
ATOM     23  C   LIG    1       24.038 -30.849   6.582  0.00  0.00    +0.167 A 
ATOM     24  C   LIG    1       23.989 -29.654   5.843  0.00  0.00    +0.072 A 
ATOM     25  C   LIG    1       24.665 -28.501   6.254  0.00  0.00    +0.035 A 
ATOM     26  C   LIG    1       25.332 -28.548   7.481  0.00  0.00    +0.072 A 
BRANCH  21  28
ATOM     27  C   LIG    1       26.677 -28.627   9.956  0.00  0.00    +0.277 C 
ATOM     28  O   LIG    1       26.060 -29.804   9.448  0.00  0.00    -0.491 OA
ENDBRANCH  21  28
BRANCH  22  29
ATOM     29  O   LIG    1       24.744 -31.920   8.707  0.00  0.00    -0.488 OA
ATOM     30  C   LIG    1       23.606 -32.142   9.522  0.00  0.00    +0.277 C 
ENDBRANCH  22  29
BRANCH  23  31
ATOM     31  O   LIG    1       23.370 -31.967   6.156  0.00  0.00    -0.491 OA
ATOM     32  C   LIG    1       24.128 -32.899   5.386  0.00  0.00    +0.277 C 
ENDBRANCH  23  31
ENDBRANCH  19  25
ENDBRANCH  18  19
ENDBRANCH   1  18
TORSDOF 8
ENDMDL
MODEL 9
REMARK VINA RESULT:      -6.5      5.920      8.944
REMARK  Name = *****
REMARK                            x       y       z     vdW  Elec       q    Type
REMARK                         _______ _______ _______ _____ _____    ______ ____
ROOT
ATOM      1  C   LIG    1       27.213 -19.778   5.769  0.00  0.00    -0.027 A 
ATOM      2  C   LIG    1       26.041 -19.965   5.000  0.00  0.00    -0.033 A 
ATOM      3  C   LIG    1       25.804 -19.116   3.772  0.00  0.00    +0.045 C 
ATOM      4  C   LIG    1       25.083 -20.968   5.394  0.00  0.00    +0.043 A 
ATOM      5  C   LIG    1       25.227 -21.601   6.643  0.00  0.00    +0.078 A 
ATOM      6  N   LIG    1       24.352 -22.474   7.135  0.00  0.00    -0.215 NA
ATOM      7  C   LIG    1       23.308 -22.801   6.381  0.00  0.00    +0.215 A 
ATOM      8  N   LIG    1       23.083 -22.333   5.155  0.00  0.00    -0.200 NA
ATOM      9  C   LIG    1       26.346 -21.336   7.407  0.00  0.00    +0.029 A 
ATOM     10  C   LIG    1       23.975 -21.461   4.674  0.00  0.00    +0.129 A 
ATOM     11  C   LIG    1       27.345 -20.470   6.978  0.00  0.00    +0.007 A 
ENDROOT
BRANCH   7  12
ATOM     12  N   LIG    1       22.381 -23.668   6.916  0.00  0.00    -0.327 N 
ATOM     13  H   LIG    1       21.449 -23.337   6.708  0.00  0.00    +0.145 HD
ATOM     14  H   LIG    1       22.602 -23.833   7.891  0.00  0.00    +0.145 HD
ENDBRANCH   7  12
BRANCH  10  15
ATOM     15  N   LIG    1       23.745 -21.122   3.333  0.00  0.00    -0.343 N 
ATOM     16  H   LIG    1       22.848 -21.484   3.030  0.00  0.00    +0.144 HD
ATOM     17  H   LIG    1       23.754 -20.105   3.289  0.00  0.00    +0.144 HD
ENDBRANCH  10  15
BRANCH   1  18
ATOM     18  C   LIG    1       28.353 -18.886   5.338  0.00  0.00    +0.137 C 
BRANCH  18  19
ATOM     19  N   LIG    1       29.634 -19.504   5.633  0.00  0.00    -0.340 N 
ATOM     20  H   LIG    1       30.263 -19.575   4.837  0.00  0.00    +0.146 HD
BRANCH  19  25
ATOM     21  C   LIG    1       30.902 -17.673   8.637  0.00  0.00    +0.167 A 
ATOM     22  C   LIG    1       31.479 -18.732   9.366  0.00  0.00    +0.204 A 
ATOM     23  C   LIG    1       31.474 -20.025   8.814  0.00  0.00    +0.167 A 
ATOM     24  C   LIG    1       30.841 -20.248   7.578  0.00  0.00    +0.072 A 
ATOM     25  C   LIG    1       30.288 -19.204   6.831  0.00  0.00    +0.035 A 
ATOM     26  C   LIG    1       30.310 -17.926   7.395  0.00  0.00    +0.072 A 
BRANCH  21  28
ATOM     27  C   LIG    1       32.257 -15.796   9.263  0.00  0.00    +0.277 C 
ATOM     28  O   LIG    1       30.980 -16.420   9.200  0.00  0.00    -0.491 OA
ENDBRANCH  21  28
BRANCH  22  29
ATOM     29  O   LIG    1       31.946 -18.378  10.611  0.00  0.00    -0.488 OA
ATOM     30  C   LIG    1       31.000 -18.010  11.600  0.00  0.00    +0.277 C 
ENDBRANCH  22  29
BRANCH  23  31
ATOM     31  O   LIG    1       32.013 -21.065   9.526  0.00  0.00    -0.491 OA
ATOM     32  C   LIG    1       31.275 -22.286   9.516  0.00  0.00    +0.277 C 
ENDBRANCH  23  31
ENDBRANCH  19  25
ENDBRANCH  18  19
ENDBRANCH   1  18
TORSDOF 8
ENDMDL
