MODEL 1
REMARK VINA RESULT:      -5.4      0.000      0.000
REMARK  Name = *****
REMARK                            x       y       z     vdW  Elec       q    Type
REMARK                         _______ _______ _______ _____ _____    ______ ____
ROOT
ATOM      1  C   LIG    1       23.890 -31.062  12.834  0.00  0.00    +0.061 A 
ATOM      2  C   LIG    1       22.899 -30.104  12.876  0.00  0.00    +0.049 A 
ATOM      3  I   LIG    1       21.429 -30.536  11.065  0.00  0.00    -0.041 I 
ATOM      4  C   LIG    1       23.385 -28.806  13.069  0.00  0.00    +0.066 A 
ATOM      5  C   LIG    1       24.778 -28.718  12.502  0.00  0.00    +0.040 A 
ATOM      6  I   LIG    1       26.654 -27.302  12.787  0.00  0.00    -0.042 I 
ATOM      7  C   LIG    1       25.173 -29.590  11.467  0.00  0.00    +0.065 A 
ATOM      8  C   LIG    1       24.817 -30.892  11.787  0.00  0.00    +0.049 A 
ATOM      9  I   LIG    1       25.338 -32.593  10.713  0.00  0.00    -0.041 I 
ENDROOT
BRANCH   1  11
ATOM     10  C   LIG    1       25.545 -31.454  14.784  0.00  0.00    +0.243 C 
ATOM     11  N   LIG    1       24.328 -31.392  14.146  0.00  0.00    -0.282 N 
ATOM     12  H   LIG    1       23.834 -32.217  14.473  0.00  0.00    +0.155 HD
ATOM     13  O   LIG    1       25.664 -32.512  15.412  0.00  0.00    -0.273 OA
BRANCH  10  14
ATOM     14  C   LIG    1       26.876 -30.582  14.684  0.00  0.00    +0.255 C 
BRANCH  14  16
ATOM     15  C   LIG    1       29.198 -30.015  14.545  0.00  0.00    +0.194 C 
ATOM     16  O   LIG    1       28.104 -30.803  14.007  0.00  0.00    -0.374 OA
ENDBRANCH  14  16
ENDBRANCH  10  14
ENDBRANCH   1  11
BRANCH   4  17
ATOM     17  C   LIG    1       22.106 -27.826  13.380  0.00  0.00    +0.248 C 
ATOM     18  N   LIG    1       21.010 -28.075  14.324  0.00  0.00    -0.298 N 
ATOM     19  C   LIG    1       20.742 -29.147  15.291  0.00  0.00    +0.132 C 
ATOM     20  O   LIG    1       22.130 -26.739  12.868  0.00  0.00    -0.270 OA
BRANCH  18  21
ATOM     21  C   LIG    1       19.794 -27.423  13.883  0.00  0.00    +0.141 C 
BRANCH  21  22
ATOM     22  C   LIG    1       18.526 -27.883  14.613  0.00  0.00    +0.157 C 
BRANCH  22  23
ATOM     23  O   LIG    1       17.732 -28.826  13.840  0.00  0.00    -0.388 OA
ATOM     24  H   LIG    1       16.873 -28.376  13.714  0.00  0.00    +0.210 HD
ENDBRANCH  22  23
BRANCH  22  25
ATOM     25  C   LIG    1       17.610 -26.711  14.731  0.00  0.00    +0.188 C 
BRANCH  25  26
ATOM     26  O   LIG    1       18.149 -25.705  13.884  0.00  0.00    -0.392 OA
ATOM     27  H   LIG    1       17.602 -25.717  13.082  0.00  0.00    +0.209 HD
ENDBRANCH  25  26
ENDBRANCH  22  25
ENDBRANCH  21  22
ENDBRANCH  18  21
ENDBRANCH   4  17
BRANCH   7  28
ATOM     28  C   LIG    1       25.774 -29.065  10.122  0.00  0.00    +0.246 C 
ATOM     29  N   LIG    1       25.323 -29.226   8.781  0.00  0.00    -0.309 N 
ATOM     30  H   LIG    1       25.983 -28.732   8.191  0.00  0.00    +0.149 HD
ATOM     31  O   LIG    1       26.827 -28.403  10.204  0.00  0.00    -0.270 OA
BRANCH  29  32
ATOM     32  C   LIG    1       24.214 -29.763   7.896  0.00  0.00    +0.138 C 
BRANCH  32  33
ATOM     33  C   LIG    1       24.338 -29.618   6.395  0.00  0.00    +0.157 C 
BRANCH  33  34
ATOM     34  O   LIG    1       23.156 -29.768   5.625  0.00  0.00    -0.388 OA
ATOM     35  H   LIG    1       23.425 -30.109   4.729  0.00  0.00    +0.210 HD
ENDBRANCH  33  34
BRANCH  33  36
ATOM     36  C   LIG    1       24.623 -28.191   6.294  0.00  0.00    +0.188 C 
BRANCH  36  37
ATOM     37  O   LIG    1       25.960 -27.903   6.198  0.00  0.00    -0.392 OA
ATOM     38  H   LIG    1       26.365 -27.044   5.944  0.00  0.00    +0.209 HD
ENDBRANCH  36  37
ENDBRANCH  33  36
ENDBRANCH  32  33
ENDBRANCH  29  32
ENDBRANCH   7  28
TORSDOF 15
ENDMDL
MODEL 2
REMARK VINA RESULT:      -5.0      2.036      8.046
REMARK  Name = *****
REMARK                            x       y       z     vdW  Elec       q    Type
REMARK                         _______ _______ _______ _____ _____    ______ ____
ROOT
ATOM      1  C   LIG    1       24.351 -30.101  11.605  0.00  0.00    +0.061 A 
ATOM      2  C   LIG    1       25.411 -30.183  12.482  0.00  0.00    +0.049 A 
ATOM      3  I   LIG    1       25.250 -32.277  13.586  0.00  0.00    -0.041 I 
ATOM      4  C   LIG    1       25.599 -29.022  13.242  0.00  0.00    +0.066 A 
ATOM      5  C   LIG    1       24.272 -28.327  13.405  0.00  0.00    +0.040 A 
ATOM      6  I   LIG    1       23.541 -26.137  13.931  0.00  0.00    -0.042 I 
ATOM      7  C   LIG    1       23.076 -29.070  13.334  0.00  0.00    +0.065 A 
ATOM      8  C   LIG    1       23.101 -29.899  12.222  0.00  0.00    +0.049 A 
ATOM      9  I   LIG    1       21.518 -31.055  11.532  0.00  0.00    -0.041 I 
ENDROOT
BRANCH   1  11
ATOM     10  C   LIG    1       25.070 -29.691   9.154  0.00  0.00    +0.243 C 
ATOM     11  N   LIG    1       24.714 -29.368  10.442  0.00  0.00    -0.282 N 
ATOM     12  H   LIG    1       25.353 -28.620  10.696  0.00  0.00    +0.155 HD
ATOM     13  O   LIG    1       26.084 -29.075   8.805  0.00  0.00    -0.273 OA
BRANCH  10  14
ATOM     14  C   LIG    1       24.602 -30.835   8.146  0.00  0.00    +0.255 C 
BRANCH  14  16
ATOM     15  C   LIG    1       24.122 -29.934   5.980  0.00  0.00    +0.194 C 
ATOM     16  O   LIG    1       23.701 -30.820   7.050  0.00  0.00    -0.374 OA
ENDBRANCH  14  16
ENDBRANCH  10  14
ENDBRANCH   1  11
BRANCH   4  17
ATOM     17  C   LIG    1       27.038 -29.150  14.019  0.00  0.00    +0.248 C 
ATOM     18  N   LIG    1       28.354 -29.381  13.411  0.00  0.00    -0.298 N 
ATOM     19  C   LIG    1       28.814 -29.484  12.020  0.00  0.00    +0.132 C 
ATOM     20  O   LIG    1       27.031 -28.915  15.197  0.00  0.00    -0.270 OA
BRANCH  18  21
ATOM     21  C   LIG    1       29.226 -30.088  14.327  0.00  0.00    +0.141 C 
BRANCH  21  22
ATOM     22  C   LIG    1       30.306 -29.215  14.979  0.00  0.00    +0.157 C 
BRANCH  22  23
ATOM     23  O   LIG    1       30.044 -27.789  14.847  0.00  0.00    -0.388 OA
ATOM     24  H   LIG    1       29.708 -27.687  13.935  0.00  0.00    +0.210 HD
ENDBRANCH  22  23
BRANCH  22  25
ATOM     25  C   LIG    1       31.568 -29.383  14.203  0.00  0.00    +0.188 C 
BRANCH  25  26
ATOM     26  O   LIG    1       31.930 -30.752  14.334  0.00  0.00    -0.392 OA
ATOM     27  H   LIG    1       32.790 -30.839  13.894  0.00  0.00    +0.209 HD
ENDBRANCH  25  26
ENDBRANCH  22  25
ENDBRANCH  21  22
ENDBRANCH  18  21
ENDBRANCH   4  17
BRANCH   7  28
ATOM     28  C   LIG    1       22.000 -29.022  14.469  0.00  0.00    +0.246 C 
ATOM     29  N   LIG    1       20.768 -28.312  14.548  0.00  0.00    -0.309 N 
ATOM     30  H   LIG    1       20.355 -28.547  15.444  0.00  0.00    +0.149 HD
ATOM     31  O   LIG    1       22.238 -29.698  15.488  0.00  0.00    -0.270 OA
BRANCH  29  32
ATOM     32  C   LIG    1       19.795 -27.421  13.801  0.00  0.00    +0.138 C 
BRANCH  32  33
ATOM     33  C   LIG    1       18.765 -26.639  14.587  0.00  0.00    +0.157 C 
BRANCH  33  34
ATOM     34  O   LIG    1       18.005 -25.670  13.884  0.00  0.00    -0.388 OA
ATOM     35  H   LIG    1       18.584 -25.304  13.161  0.00  0.00    +0.210 HD
ENDBRANCH  33  34
BRANCH  33  36
ATOM     36  C   LIG    1       17.792 -27.690  14.860  0.00  0.00    +0.188 C 
BRANCH  36  37
ATOM     37  O   LIG    1       17.726 -28.646  13.879  0.00  0.00    -0.392 OA
ATOM     38  H   LIG    1       18.480 -29.082  13.423  0.00  0.00    +0.209 HD
ENDBRANCH  36  37
ENDBRANCH  33  36
ENDBRANCH  32  33
ENDBRANCH  29  32
ENDBRANCH   7  28
TORSDOF 15
ENDMDL
MODEL 3
REMARK VINA RESULT:      -4.8      3.684      5.331
REMARK  Name = *****
REMARK                            x       y       z     vdW  Elec       q    Type
REMARK                         _______ _______ _______ _____ _____    ______ ____
ROOT
ATOM      1  C   LIG    1       24.301 -32.586  11.026  0.00  0.00    +0.061 A 
ATOM      2  C   LIG    1       24.908 -31.348  11.059  0.00  0.00    +0.049 A 
ATOM      3  I   LIG    1       23.208 -29.723  10.746  0.00  0.00    -0.041 I 
ATOM      4  C   LIG    1       26.073 -31.277  10.287  0.00  0.00    +0.066 A 
ATOM      5  C   LIG    1       25.966 -32.260   9.151  0.00  0.00    +0.040 A 
ATOM      6  I   LIG    1       27.472 -33.357   7.690  0.00  0.00    -0.042 I 
ATOM      7  C   LIG    1       24.697 -32.651   8.676  0.00  0.00    +0.065 A 
ATOM      8  C   LIG    1       23.879 -32.991   9.744  0.00  0.00    +0.049 A 
ATOM      9  I   LIG    1       21.981 -33.825   9.603  0.00  0.00    -0.041 I 
ENDROOT
BRANCH   1  11
ATOM     10  C   LIG    1       25.198 -33.562  13.247  0.00  0.00    +0.243 C 
ATOM     11  N   LIG    1       24.963 -33.496  11.894  0.00  0.00    -0.282 N 
ATOM     12  H   LIG    1       25.841 -33.789  11.475  0.00  0.00    +0.155 HD
ATOM     13  O   LIG    1       26.384 -33.822  13.481  0.00  0.00    -0.273 OA
BRANCH  10  14
ATOM     14  C   LIG    1       24.340 -33.146  14.525  0.00  0.00    +0.255 C 
BRANCH  14  16
ATOM     15  C   LIG    1       22.094 -32.335  14.348  0.00  0.00    +0.194 C 
ATOM     16  O   LIG    1       23.459 -32.059  14.761  0.00  0.00    -0.374 OA
ENDBRANCH  14  16
ENDBRANCH  10  14
ENDBRANCH   1  11
BRANCH   4  17
ATOM     17  C   LIG    1       26.831 -29.866  10.641  0.00  0.00    +0.248 C 
ATOM     18  N   LIG    1       27.153 -29.344  11.975  0.00  0.00    -0.298 N 
ATOM     19  C   LIG    1       27.001 -29.890  13.330  0.00  0.00    +0.132 C 
ATOM     20  O   LIG    1       27.273 -29.248   9.709  0.00  0.00    -0.270 OA
BRANCH  18  21
ATOM     21  C   LIG    1       27.173 -27.896  11.971  0.00  0.00    +0.141 C 
BRANCH  21  22
ATOM     22  C   LIG    1       26.608 -27.249  13.241  0.00  0.00    +0.157 C 
BRANCH  22  23
ATOM     23  O   LIG    1       25.196 -26.911  13.131  0.00  0.00    -0.388 OA
ATOM     24  H   LIG    1       24.960 -27.149  12.213  0.00  0.00    +0.210 HD
ENDBRANCH  22  23
BRANCH  22  25
ATOM     25  C   LIG    1       27.247 -25.911  13.402  0.00  0.00    +0.188 C 
BRANCH  25  26
ATOM     26  O   LIG    1       26.305 -24.964  12.915  0.00  0.00    -0.392 OA
ATOM     27  H   LIG    1       25.502 -25.098  13.443  0.00  0.00    +0.209 HD
ENDBRANCH  25  26
ENDBRANCH  22  25
ENDBRANCH  21  22
ENDBRANCH  18  21
ENDBRANCH   4  17
BRANCH   7  28
ATOM     28  C   LIG    1       24.303 -32.537   7.167  0.00  0.00    +0.246 C 
ATOM     29  N   LIG    1       24.514 -31.484   6.232  0.00  0.00    -0.309 N 
ATOM     30  H   LIG    1       24.116 -31.794   5.352  0.00  0.00    +0.149 HD
ATOM     31  O   LIG    1       23.694 -33.508   6.677  0.00  0.00    -0.270 OA
BRANCH  29  32
ATOM     32  C   LIG    1       25.164 -30.134   6.003  0.00  0.00    +0.138 C 
BRANCH  32  33
ATOM     33  C   LIG    1       24.892 -29.013   6.983  0.00  0.00    +0.157 C 
BRANCH  33  34
ATOM     34  O   LIG    1       26.009 -28.292   7.476  0.00  0.00    -0.388 OA
ATOM     35  H   LIG    1       26.602 -28.092   6.701  0.00  0.00    +0.210 HD
ENDBRANCH  33  34
BRANCH  33  36
ATOM     36  C   LIG    1       24.236 -28.052   6.104  0.00  0.00    +0.188 C 
BRANCH  36  37
ATOM     37  O   LIG    1       23.583 -28.632   5.047  0.00  0.00    -0.392 OA
ATOM     38  H   LIG    1       23.968 -29.227   4.365  0.00  0.00    +0.209 HD
ENDBRANCH  36  37
ENDBRANCH  33  36
ENDBRANCH  32  33
ENDBRANCH  29  32
ENDBRANCH   7  28
TORSDOF 15
ENDMDL
MODEL 4
REMARK VINA RESULT:      -4.8      2.701      7.445
REMARK  Name = *****
REMARK                            x       y       z     vdW  Elec       q    Type
REMARK                         _______ _______ _______ _____ _____    ______ ____
ROOT
ATOM      1  C   LIG    1       25.390 -30.194  12.724  0.00  0.00    +0.061 A 
ATOM      2  C   LIG    1       25.738 -30.783  11.527  0.00  0.00    +0.049 A 
ATOM      3  I   LIG    1       26.073 -29.037   9.956  0.00  0.00    -0.041 I 
ATOM      4  C   LIG    1       24.923 -31.867  11.181  0.00  0.00    +0.066 A 
ATOM      5  C   LIG    1       23.560 -31.665  11.788  0.00  0.00    +0.040 A 
ATOM      6  I   LIG    1       21.712 -33.041  12.340  0.00  0.00    -0.042 I 
ATOM      7  C   LIG    1       23.103 -30.363  12.076  0.00  0.00    +0.065 A 
ATOM      8  C   LIG    1       24.089 -29.657  12.750  0.00  0.00    +0.049 A 
ATOM      9  I   LIG    1       23.872 -27.767  13.586  0.00  0.00    -0.041 I 
ENDROOT
BRANCH   1  11
ATOM     10  C   LIG    1       27.121 -31.146  14.395  0.00  0.00    +0.243 C 
ATOM     11  N   LIG    1       25.887 -30.950  13.821  0.00  0.00    -0.282 N 
ATOM     12  H   LIG    1       25.466 -31.875  13.816  0.00  0.00    +0.155 HD
ATOM     13  O   LIG    1       27.337 -32.348  14.586  0.00  0.00    -0.273 OA
BRANCH  10  14
ATOM     14  C   LIG    1       28.378 -30.194  14.632  0.00  0.00    +0.255 C 
BRANCH  14  16
ATOM     15  C   LIG    1       29.158 -29.478  12.484  0.00  0.00    +0.194 C 
ATOM     16  O   LIG    1       28.910 -29.121  13.869  0.00  0.00    -0.374 OA
ENDBRANCH  14  16
ENDBRANCH  10  14
ENDBRANCH   1  11
BRANCH   4  17
ATOM     17  C   LIG    1       25.614 -32.635   9.906  0.00  0.00    +0.248 C 
ATOM     18  N   LIG    1       25.173 -32.597   8.506  0.00  0.00    -0.298 N 
ATOM     19  C   LIG    1       24.111 -31.861   7.807  0.00  0.00    +0.132 C 
ATOM     20  O   LIG    1       26.656 -33.193  10.119  0.00  0.00    -0.270 OA
BRANCH  18  21
ATOM     21  C   LIG    1       25.525 -33.825   7.823  0.00  0.00    +0.141 C 
BRANCH  21  22
ATOM     22  C   LIG    1       26.741 -33.710   6.894  0.00  0.00    +0.157 C 
BRANCH  22  23
ATOM     23  O   LIG    1       27.453 -32.449   7.040  0.00  0.00    -0.388 OA
ATOM     24  H   LIG    1       27.678 -32.405   7.991  0.00  0.00    +0.210 HD
ENDBRANCH  22  23
BRANCH  22  25
ATOM     25  C   LIG    1       26.245 -33.639   5.489  0.00  0.00    +0.188 C 
BRANCH  25  26
ATOM     26  O   LIG    1       26.358 -32.276   5.102  0.00  0.00    -0.392 OA
ATOM     27  H   LIG    1       26.949 -31.866   5.753  0.00  0.00    +0.209 HD
ENDBRANCH  25  26
ENDBRANCH  22  25
ENDBRANCH  21  22
ENDBRANCH  18  21
ENDBRANCH   4  17
BRANCH   7  28
ATOM     28  C   LIG    1       21.736 -29.824  11.539  0.00  0.00    +0.246 C 
ATOM     29  N   LIG    1       20.670 -29.166  12.215  0.00  0.00    -0.309 N 
ATOM     30  H   LIG    1       19.960 -28.972  11.518  0.00  0.00    +0.149 HD
ATOM     31  O   LIG    1       21.511 -29.995  10.325  0.00  0.00    -0.270 OA
BRANCH  29  32
ATOM     32  C   LIG    1       20.211 -28.568  13.531  0.00  0.00    +0.138 C 
BRANCH  32  33
ATOM     33  C   LIG    1       20.076 -27.066  13.647  0.00  0.00    +0.157 C 
BRANCH  33  34
ATOM     34  O   LIG    1       19.891 -26.332  12.447  0.00  0.00    -0.388 OA
ATOM     35  H   LIG    1       19.811 -26.991  11.704  0.00  0.00    +0.210 HD
ENDBRANCH  33  34
BRANCH  33  36
ATOM     36  C   LIG    1       18.775 -26.971  14.299  0.00  0.00    +0.188 C 
BRANCH  36  37
ATOM     37  O   LIG    1       18.122 -25.790  14.055  0.00  0.00    -0.392 OA
ATOM     38  H   LIG    1       17.464 -25.345  14.634  0.00  0.00    +0.209 HD
ENDBRANCH  36  37
ENDBRANCH  33  36
ENDBRANCH  32  33
ENDBRANCH  29  32
ENDBRANCH   7  28
TORSDOF 15
ENDMDL
MODEL 5
REMARK VINA RESULT:      -4.8      2.760      7.846
REMARK  Name = *****
REMARK                            x       y       z     vdW  Elec       q    Type
REMARK                         _______ _______ _______ _____ _____    ______ ____
ROOT
ATOM      1  C   LIG    1       23.471 -30.746  11.240  0.00  0.00    +0.061 A 
ATOM      2  C   LIG    1       24.452 -30.335  12.117  0.00  0.00    +0.049 A 
ATOM      3  I   LIG    1       25.117 -32.238  13.369  0.00  0.00    -0.041 I 
ATOM      4  C   LIG    1       24.137 -29.149  12.791  0.00  0.00    +0.066 A 
ATOM      5  C   LIG    1       22.639 -29.039  12.908  0.00  0.00    +0.040 A 
ATOM      6  I   LIG    1       21.077 -27.298  13.279  0.00  0.00    -0.042 I 
ATOM      7  C   LIG    1       21.844 -30.203  12.895  0.00  0.00    +0.065 A 
ATOM      8  C   LIG    1       22.230 -31.024  11.845  0.00  0.00    +0.049 A 
ATOM      9  I   LIG    1       21.263 -32.763  11.245  0.00  0.00    -0.041 I 
ENDROOT
BRANCH   1  11
ATOM     10  C   LIG    1       23.952 -30.275   8.742  0.00  0.00    +0.243 C 
ATOM     11  N   LIG    1       23.539 -30.009  10.026  0.00  0.00    -0.282 N 
ATOM     12  H   LIG    1       23.895 -29.076  10.213  0.00  0.00    +0.155 HD
ATOM     13  O   LIG    1       24.691 -29.379   8.318  0.00  0.00    -0.273 OA
BRANCH  10  14
ATOM     14  C   LIG    1       23.873 -31.570   7.816  0.00  0.00    +0.255 C 
BRANCH  14  16
ATOM     15  C   LIG    1       23.154 -33.113   6.131  0.00  0.00    +0.194 C 
ATOM     16  O   LIG    1       23.500 -31.741   6.457  0.00  0.00    -0.374 OA
ENDBRANCH  14  16
ENDBRANCH  10  14
ENDBRANCH   1  11
BRANCH   4  17
ATOM     17  C   LIG    1       25.486 -28.635  13.570  0.00  0.00    +0.248 C 
ATOM     18  N   LIG    1       26.775 -28.277  12.966  0.00  0.00    -0.298 N 
ATOM     19  C   LIG    1       27.241 -28.182  11.576  0.00  0.00    +0.132 C 
ATOM     20  O   LIG    1       25.372 -28.417  14.746  0.00  0.00    -0.270 OA
BRANCH  18  21
ATOM     21  C   LIG    1       27.863 -28.529  13.889  0.00  0.00    +0.141 C 
BRANCH  21  22
ATOM     22  C   LIG    1       28.689 -29.781  13.571  0.00  0.00    +0.157 C 
BRANCH  22  23
ATOM     23  O   LIG    1       28.427 -30.885  14.482  0.00  0.00    -0.388 OA
ATOM     24  H   LIG    1       28.698 -30.546  15.359  0.00  0.00    +0.210 HD
ENDBRANCH  22  23
BRANCH  22  25
ATOM     25  C   LIG    1       30.123 -29.471  13.844  0.00  0.00    +0.188 C 
BRANCH  25  26
ATOM     26  O   LIG    1       30.771 -29.464  12.579  0.00  0.00    -0.392 OA
ATOM     27  H   LIG    1       31.495 -28.823  12.659  0.00  0.00    +0.209 HD
ENDBRANCH  25  26
ENDBRANCH  22  25
ENDBRANCH  21  22
ENDBRANCH  18  21
ENDBRANCH   4  17
BRANCH   7  28
ATOM     28  C   LIG    1       20.811 -30.517  14.027  0.00  0.00    +0.246 C 
ATOM     29  N   LIG    1       19.412 -30.773  13.958  0.00  0.00    -0.309 N 
ATOM     30  H   LIG    1       19.101 -30.937  14.909  0.00  0.00    +0.149 HD
ATOM     31  O   LIG    1       21.254 -30.542  15.191  0.00  0.00    -0.270 OA
BRANCH  29  32
ATOM     32  C   LIG    1       18.229 -30.982  13.034  0.00  0.00    +0.138 C 
BRANCH  32  33
ATOM     33  C   LIG    1       16.874 -30.446  13.443  0.00  0.00    +0.157 C 
BRANCH  33  34
ATOM     34  O   LIG    1       15.941 -30.175  12.411  0.00  0.00    -0.388 OA
ATOM     35  H   LIG    1       15.916 -29.187  12.282  0.00  0.00    +0.210 HD
ENDBRANCH  33  34
BRANCH  33  36
ATOM     36  C   LIG    1       16.315 -31.622  14.098  0.00  0.00    +0.188 C 
BRANCH  36  37
ATOM     37  O   LIG    1       17.166 -32.698  14.117  0.00  0.00    -0.392 OA
ATOM     38  H   LIG    1       18.138 -32.683  14.265  0.00  0.00    +0.209 HD
ENDBRANCH  36  37
ENDBRANCH  33  36
ENDBRANCH  32  33
ENDBRANCH  29  32
ENDBRANCH   7  28
TORSDOF 15
ENDMDL
MODEL 6
REMARK VINA RESULT:      -4.7      3.037      7.157
REMARK  Name = *****
REMARK                            x       y       z     vdW  Elec       q    Type
REMARK                         _______ _______ _______ _____ _____    ______ ____
ROOT
ATOM      1  C   LIG    1       25.555 -30.802  12.883  0.00  0.00    +0.061 A 
ATOM      2  C   LIG    1       25.544 -30.632  11.515  0.00  0.00    +0.049 A 
ATOM      3  I   LIG    1       27.318 -29.150  10.977  0.00  0.00    -0.041 I 
ATOM      4  C   LIG    1       24.269 -30.390  10.993  0.00  0.00    +0.066 A 
ATOM      5  C   LIG    1       23.430 -29.718  12.048  0.00  0.00    +0.040 A 
ATOM      6  I   LIG    1       21.117 -29.423  12.463  0.00  0.00    -0.042 I 
ATOM      7  C   LIG    1       24.050 -28.964  13.066  0.00  0.00    +0.065 A 
ATOM      8  C   LIG    1       25.102 -29.685  13.611  0.00  0.00    +0.049 A 
ATOM      9  I   LIG    1       26.222 -29.130  15.271  0.00  0.00    -0.041 I 
ENDROOT
BRANCH   1  11
ATOM     10  C   LIG    1       24.309 -32.656  14.188  0.00  0.00    +0.243 C 
ATOM     11  N   LIG    1       25.136 -32.115  13.231  0.00  0.00    -0.282 N 
ATOM     12  H   LIG    1       25.932 -32.745  13.206  0.00  0.00    +0.155 HD
ATOM     13  O   LIG    1       24.850 -33.612  14.755  0.00  0.00    -0.273 OA
BRANCH  10  14
ATOM     14  C   LIG    1       22.945 -32.167  14.854  0.00  0.00    +0.255 C 
BRANCH  14  16
ATOM     15  C   LIG    1       21.064 -33.585  14.424  0.00  0.00    +0.194 C 
ATOM     16  O   LIG    1       21.857 -32.884  15.418  0.00  0.00    -0.374 OA
ENDBRANCH  14  16
ENDBRANCH  10  14
ENDBRANCH   1  11
BRANCH   4  17
ATOM     17  C   LIG    1       24.361 -30.491   9.358  0.00  0.00    +0.248 C 
ATOM     18  N   LIG    1       25.133 -31.462   8.574  0.00  0.00    -0.298 N 
ATOM     19  C   LIG    1       25.949 -32.628   8.941  0.00  0.00    +0.132 C 
ATOM     20  O   LIG    1       23.630 -29.768   8.736  0.00  0.00    -0.270 OA
BRANCH  18  21
ATOM     21  C   LIG    1       25.535 -30.895   7.304  0.00  0.00    +0.141 C 
BRANCH  21  22
ATOM     22  C   LIG    1       25.190 -31.758   6.084  0.00  0.00    +0.157 C 
BRANCH  22  23
ATOM     23  O   LIG    1       25.526 -31.121   4.819  0.00  0.00    -0.388 OA
ATOM     24  H   LIG    1       25.904 -31.841   4.276  0.00  0.00    +0.210 HD
ENDBRANCH  22  23
BRANCH  22  25
ATOM     25  C   LIG    1       23.706 -31.873   6.003  0.00  0.00    +0.188 C 
BRANCH  25  26
ATOM     26  O   LIG    1       23.223 -30.555   5.773  0.00  0.00    -0.392 OA
ATOM     27  H   LIG    1       22.255 -30.620   5.816  0.00  0.00    +0.209 HD
ENDBRANCH  25  26
ENDBRANCH  22  25
ENDBRANCH  21  22
ENDBRANCH  18  21
ENDBRANCH   4  17
BRANCH   7  28
ATOM     28  C   LIG    1       23.649 -27.481  13.362  0.00  0.00    +0.246 C 
ATOM     29  N   LIG    1       24.450 -26.309  13.467  0.00  0.00    -0.309 N 
ATOM     30  H   LIG    1       23.817 -25.542  13.665  0.00  0.00    +0.149 HD
ATOM     31  O   LIG    1       22.437 -27.261  13.555  0.00  0.00    -0.270 OA
BRANCH  29  32
ATOM     32  C   LIG    1       25.847 -25.738  13.317  0.00  0.00    +0.138 C 
BRANCH  32  33
ATOM     33  C   LIG    1       26.431 -24.922  14.449  0.00  0.00    +0.157 C 
BRANCH  33  34
ATOM     34  O   LIG    1       27.512 -24.057  14.140  0.00  0.00    -0.388 OA
ATOM     35  H   LIG    1       27.854 -23.688  15.000  0.00  0.00    +0.210 HD
ENDBRANCH  33  34
BRANCH  33  36
ATOM     36  C   LIG    1       25.330 -24.001  14.702  0.00  0.00    +0.188 C 
BRANCH  36  37
ATOM     37  O   LIG    1       25.687 -22.679  14.616  0.00  0.00    -0.392 OA
ATOM     38  H   LIG    1       25.090 -21.912  14.468  0.00  0.00    +0.209 HD
ENDBRANCH  36  37
ENDBRANCH  33  36
ENDBRANCH  32  33
ENDBRANCH  29  32
ENDBRANCH   7  28
TORSDOF 15
ENDMDL
MODEL 7
REMARK VINA RESULT:      -4.6      2.853      7.195
REMARK  Name = *****
REMARK                            x       y       z     vdW  Elec       q    Type
REMARK                         _______ _______ _______ _____ _____    ______ ____
ROOT
ATOM      1  C   LIG    1       23.144 -31.183  11.346  0.00  0.00    +0.061 A 
ATOM      2  C   LIG    1       24.239 -30.619  11.967  0.00  0.00    +0.049 A 
ATOM      3  I   LIG    1       25.157 -32.268  13.406  0.00  0.00    -0.041 I 
ATOM      4  C   LIG    1       23.998 -29.334  12.465  0.00  0.00    +0.066 A 
ATOM      5  C   LIG    1       22.535 -29.210  12.804  0.00  0.00    +0.040 A 
ATOM      6  I   LIG    1       20.996 -27.437  13.115  0.00  0.00    -0.042 I 
ATOM      7  C   LIG    1       21.786 -30.361  13.124  0.00  0.00    +0.065 A 
ATOM      8  C   LIG    1       22.026 -31.354  12.185  0.00  0.00    +0.049 A 
ATOM      9  I   LIG    1       21.033 -33.175  12.063  0.00  0.00    -0.041 I 
ENDROOT
BRANCH   1  11
ATOM     10  C   LIG    1       23.751 -30.688   8.881  0.00  0.00    +0.243 C 
ATOM     11  N   LIG    1       22.993 -30.673  10.028  0.00  0.00    -0.282 N 
ATOM     12  H   LIG    1       22.623 -29.727  10.069  0.00  0.00    +0.155 HD
ATOM     13  O   LIG    1       23.823 -29.559   8.380  0.00  0.00    -0.273 OA
BRANCH  10  14
ATOM     14  C   LIG    1       24.718 -31.773   8.226  0.00  0.00    +0.255 C 
BRANCH  14  16
ATOM     15  C   LIG    1       26.811 -31.284   9.282  0.00  0.00    +0.194 C 
ATOM     16  O   LIG    1       26.133 -31.843   8.127  0.00  0.00    -0.374 OA
ENDBRANCH  14  16
ENDBRANCH  10  14
ENDBRANCH   1  11
BRANCH   4  17
ATOM     17  C   LIG    1       25.436 -28.684  12.913  0.00  0.00    +0.248 C 
ATOM     18  N   LIG    1       25.747 -28.011  14.179  0.00  0.00    -0.298 N 
ATOM     19  C   LIG    1       24.977 -27.779  15.409  0.00  0.00    +0.132 C 
ATOM     20  O   LIG    1       26.364 -28.882  12.175  0.00  0.00    -0.270 OA
BRANCH  18  21
ATOM     21  C   LIG    1       26.787 -27.020  13.993  0.00  0.00    +0.141 C 
BRANCH  21  22
ATOM     22  C   LIG    1       27.901 -27.062  15.047  0.00  0.00    +0.157 C 
BRANCH  22  23
ATOM     23  O   LIG    1       28.994 -26.146  14.760  0.00  0.00    -0.388 OA
ATOM     24  H   LIG    1       28.584 -25.439  14.222  0.00  0.00    +0.210 HD
ENDBRANCH  22  23
BRANCH  22  25
ATOM     25  C   LIG    1       28.566 -28.394  14.964  0.00  0.00    +0.188 C 
BRANCH  25  26
ATOM     26  O   LIG    1       29.019 -28.524  13.623  0.00  0.00    -0.392 OA
ATOM     27  H   LIG    1       29.988 -28.490  13.668  0.00  0.00    +0.209 HD
ENDBRANCH  25  26
ENDBRANCH  22  25
ENDBRANCH  21  22
ENDBRANCH  18  21
ENDBRANCH   4  17
BRANCH   7  28
ATOM     28  C   LIG    1       20.958 -30.472  14.446  0.00  0.00    +0.246 C 
ATOM     29  N   LIG    1       19.556 -30.367  14.673  0.00  0.00    -0.309 N 
ATOM     30  H   LIG    1       19.412 -30.503  15.667  0.00  0.00    +0.149 HD
ATOM     31  O   LIG    1       21.605 -30.675  15.492  0.00  0.00    -0.270 OA
BRANCH  29  32
ATOM     32  C   LIG    1       18.197 -30.219  14.017  0.00  0.00    +0.138 C 
BRANCH  32  33
ATOM     33  C   LIG    1       17.729 -31.285  13.050  0.00  0.00    +0.157 C 
BRANCH  33  34
ATOM     34  O   LIG    1       17.519 -32.589  13.567  0.00  0.00    -0.388 OA
ATOM     35  H   LIG    1       18.110 -32.694  14.362  0.00  0.00    +0.210 HD
ENDBRANCH  33  34
BRANCH  33  36
ATOM     36  C   LIG    1       16.377 -30.813  12.777  0.00  0.00    +0.188 C 
BRANCH  36  37
ATOM     37  O   LIG    1       16.153 -29.521  13.182  0.00  0.00    -0.392 OA
ATOM     38  H   LIG    1       16.807 -28.901  13.576  0.00  0.00    +0.209 HD
ENDBRANCH  36  37
ENDBRANCH  33  36
ENDBRANCH  32  33
ENDBRANCH  29  32
ENDBRANCH   7  28
TORSDOF 15
ENDMDL
MODEL 8
REMARK VINA RESULT:      -4.5      2.746      6.081
REMARK  Name = *****
REMARK                            x       y       z     vdW  Elec       q    Type
REMARK                         _______ _______ _______ _____ _____    ______ ____
ROOT
ATOM      1  C   LIG    1       24.096 -30.179  11.333  0.00  0.00    +0.061 A 
ATOM      2  C   LIG    1       23.004 -30.380  12.150  0.00  0.00    +0.049 A 
ATOM      3  I   LIG    1       22.346 -28.257  12.979  0.00  0.00    -0.041 I 
ATOM      4  C   LIG    1       23.165 -31.445  13.045  0.00  0.00    +0.066 A 
ATOM      5  C   LIG    1       24.631 -31.608  13.349  0.00  0.00    +0.040 A 
ATOM      6  I   LIG    1       26.023 -33.333  14.182  0.00  0.00    -0.042 I 
ATOM      7  C   LIG    1       25.502 -30.506  13.229  0.00  0.00    +0.065 A 
ATOM      8  C   LIG    1       25.284 -29.863  12.020  0.00  0.00    +0.049 A 
ATOM      9  I   LIG    1       26.425 -28.306  11.249  0.00  0.00    -0.041 I 
ENDROOT
BRANCH   1  11
ATOM     10  C   LIG    1       23.855 -31.053   8.910  0.00  0.00    +0.243 C 
ATOM     11  N   LIG    1       24.103 -31.113  10.261  0.00  0.00    -0.282 N 
ATOM     12  H   LIG    1       23.655 -31.976  10.557  0.00  0.00    +0.155 HD
ATOM     13  O   LIG    1       23.098 -31.964   8.555  0.00  0.00    -0.273 OA
BRANCH  10  14
ATOM     14  C   LIG    1       24.139 -29.947   7.796  0.00  0.00    +0.255 C 
BRANCH  14  16
ATOM     15  C   LIG    1       24.192 -28.626   5.800  0.00  0.00    +0.194 C 
ATOM     16  O   LIG    1       23.764 -29.862   6.430  0.00  0.00    -0.374 OA
ENDBRANCH  14  16
ENDBRANCH  10  14
ENDBRANCH   1  11
BRANCH   4  17
ATOM     17  C   LIG    1       21.711 -31.747  13.742  0.00  0.00    +0.248 C 
ATOM     18  N   LIG    1       20.515 -32.297  13.092  0.00  0.00    -0.298 N 
ATOM     19  C   LIG    1       20.251 -32.803  11.738  0.00  0.00    +0.132 C 
ATOM     20  O   LIG    1       21.652 -31.612  14.934  0.00  0.00    -0.270 OA
BRANCH  18  21
ATOM     21  C   LIG    1       19.311 -31.818  13.738  0.00  0.00    +0.141 C 
BRANCH  21  22
ATOM     22  C   LIG    1       18.481 -30.842  12.894  0.00  0.00    +0.157 C 
BRANCH  22  23
ATOM     23  O   LIG    1       18.434 -29.500  13.455  0.00  0.00    -0.388 OA
ATOM     24  H   LIG    1       18.975 -29.556  14.268  0.00  0.00    +0.210 HD
ENDBRANCH  22  23
BRANCH  22  25
ATOM     25  C   LIG    1       17.054 -31.270  12.962  0.00  0.00    +0.188 C 
BRANCH  25  26
ATOM     26  O   LIG    1       16.282 -30.091  12.775  0.00  0.00    -0.392 OA
ATOM     27  H   LIG    1       15.502 -30.366  12.268  0.00  0.00    +0.209 HD
ENDBRANCH  25  26
ENDBRANCH  22  25
ENDBRANCH  21  22
ENDBRANCH  18  21
ENDBRANCH   4  17
BRANCH   7  28
ATOM     28  C   LIG    1       26.432 -30.051  14.402  0.00  0.00    +0.246 C 
ATOM     29  N   LIG    1       27.840 -29.847  14.441  0.00  0.00    -0.309 N 
ATOM     30  H   LIG    1       28.064 -29.549  15.384  0.00  0.00    +0.149 HD
ATOM     31  O   LIG    1       25.879 -29.836  15.498  0.00  0.00    -0.270 OA
BRANCH  29  32
ATOM     32  C   LIG    1       29.117 -29.815  13.623  0.00  0.00    +0.138 C 
BRANCH  32  33
ATOM     33  C   LIG    1       30.437 -29.604  14.331  0.00  0.00    +0.157 C 
BRANCH  33  34
ATOM     34  O   LIG    1       31.470 -28.955  13.608  0.00  0.00    -0.388 OA
ATOM     35  H   LIG    1       31.039 -28.434  12.877  0.00  0.00    +0.210 HD
ENDBRANCH  33  34
BRANCH  33  36
ATOM     36  C   LIG    1       30.046 -28.608  15.322  0.00  0.00    +0.188 C 
BRANCH  36  37
ATOM     37  O   LIG    1       29.413 -27.517  14.784  0.00  0.00    -0.392 OA
ATOM     38  H   LIG    1       29.181 -26.679  15.243  0.00  0.00    +0.209 HD
ENDBRANCH  36  37
ENDBRANCH  33  36
ENDBRANCH  32  33
ENDBRANCH  29  32
ENDBRANCH   7  28
TORSDOF 15
ENDMDL
MODEL 9
REMARK VINA RESULT:      -4.5      2.663      5.670
REMARK  Name = *****
REMARK                            x       y       z     vdW  Elec       q    Type
REMARK                         _______ _______ _______ _____ _____    ______ ____
ROOT
ATOM      1  C   LIG    1       24.288 -29.829  11.558  0.00  0.00    +0.061 A 
ATOM      2  C   LIG    1       23.336 -29.725  12.551  0.00  0.00    +0.049 A 
ATOM      3  I   LIG    1       23.335 -27.471  13.290  0.00  0.00    -0.041 I 
ATOM      4  C   LIG    1       23.401 -30.756  13.496  0.00  0.00    +0.066 A 
ATOM      5  C   LIG    1       24.821 -31.252  13.578  0.00  0.00    +0.040 A 
ATOM      6  I   LIG    1       25.904 -33.221  14.326  0.00  0.00    -0.042 I 
ATOM      7  C   LIG    1       25.887 -30.397  13.231  0.00  0.00    +0.065 A 
ATOM      8  C   LIG    1       25.617 -29.776  12.020  0.00  0.00    +0.049 A 
ATOM      9  I   LIG    1       26.933 -28.575  10.951  0.00  0.00    -0.041 I 
ENDROOT
BRANCH   1  11
ATOM     10  C   LIG    1       23.622 -30.751   9.234  0.00  0.00    +0.243 C 
ATOM     11  N   LIG    1       23.896 -30.785  10.582  0.00  0.00    -0.282 N 
ATOM     12  H   LIG    1       23.175 -31.390  10.966  0.00  0.00    +0.155 HD
ATOM     13  O   LIG    1       22.565 -31.339   8.980  0.00  0.00    -0.273 OA
BRANCH  10  14
ATOM     14  C   LIG    1       24.240 -29.930   8.015  0.00  0.00    +0.255 C 
BRANCH  14  16
ATOM     15  C   LIG    1       24.787 -29.364   5.754  0.00  0.00    +0.194 C 
ATOM     16  O   LIG    1       23.738 -29.636   6.720  0.00  0.00    -0.374 OA
ENDBRANCH  14  16
ENDBRANCH  10  14
ENDBRANCH   1  11
BRANCH   4  17
ATOM     17  C   LIG    1       22.059 -30.668  14.436  0.00  0.00    +0.248 C 
ATOM     18  N   LIG    1       20.760 -31.303  14.184  0.00  0.00    -0.298 N 
ATOM     19  C   LIG    1       20.276 -32.222  13.145  0.00  0.00    +0.132 C 
ATOM     20  O   LIG    1       22.187 -30.123  15.499  0.00  0.00    -0.270 OA
BRANCH  18  21
ATOM     21  C   LIG    1       19.686 -30.526  14.766  0.00  0.00    +0.141 C 
BRANCH  21  22
ATOM     22  C   LIG    1       19.015 -29.543  13.799  0.00  0.00    +0.157 C 
BRANCH  22  23
ATOM     23  O   LIG    1       19.905 -29.082  12.744  0.00  0.00    -0.388 OA
ATOM     24  H   LIG    1       20.726 -28.830  13.211  0.00  0.00    +0.210 HD
ENDBRANCH  22  23
BRANCH  22  25
ATOM     25  C   LIG    1       18.722 -28.286  14.545  0.00  0.00    +0.188 C 
BRANCH  25  26
ATOM     26  O   LIG    1       19.041 -27.220  13.660  0.00  0.00    -0.392 OA
ATOM     27  H   LIG    1       18.404 -27.285  12.931  0.00  0.00    +0.209 HD
ENDBRANCH  25  26
ENDBRANCH  22  25
ENDBRANCH  21  22
ENDBRANCH  18  21
ENDBRANCH   4  17
BRANCH   7  28
ATOM     28  C   LIG    1       27.085 -30.126  14.201  0.00  0.00    +0.246 C 
ATOM     29  N   LIG    1       27.391 -28.987  14.998  0.00  0.00    -0.309 N 
ATOM     30  H   LIG    1       28.251 -29.200  15.490  0.00  0.00    +0.149 HD
ATOM     31  O   LIG    1       27.932 -31.034  14.304  0.00  0.00    -0.270 OA
BRANCH  29  32
ATOM     32  C   LIG    1       26.906 -27.629  15.467  0.00  0.00    +0.138 C 
BRANCH  32  33
ATOM     33  C   LIG    1       27.814 -26.429  15.305  0.00  0.00    +0.157 C 
BRANCH  33  34
ATOM     34  O   LIG    1       29.110 -26.658  14.776  0.00  0.00    -0.388 OA
ATOM     35  H   LIG    1       29.172 -26.163  13.914  0.00  0.00    +0.210 HD
ENDBRANCH  33  34
BRANCH  33  36
ATOM     36  C   LIG    1       27.131 -25.730  14.223  0.00  0.00    +0.188 C 
BRANCH  36  37
ATOM     37  O   LIG    1       27.919 -24.812  13.578  0.00  0.00    -0.392 OA
ATOM     38  H   LIG    1       27.908 -24.589  12.620  0.00  0.00    +0.209 HD
ENDBRANCH  36  37
ENDBRANCH  33  36
ENDBRANCH  32  33
ENDBRANCH  29  32
ENDBRANCH   7  28
TORSDOF 15
ENDMDL
