MODEL 1
REMARK VINA RESULT:      -4.7      0.000      0.000
REMARK  Name = *****
REMARK                            x       y       z     vdW  Elec       q    Type
REMARK                         _______ _______ _______ _____ _____    ______ ____
ROOT
ATOM      1  C   LIG    1       25.554 -14.922   3.738  0.00  0.00    +0.098 C 
ATOM      2  C   LIG    1       24.482 -14.240   4.158  0.00  0.00    +0.098 C 
ENDROOT
BRANCH   1   3
ATOM      3  C   LIG    1       26.753 -14.410   3.032  0.00  0.00    +0.332 C 
ATOM      4  O   LIG    1       26.800 -14.266   1.819  0.00  0.00    -0.246 OA
BRANCH   3   6
ATOM      5  C   LIG    1       28.570 -13.104   3.789  0.00  0.00    +0.280 C 
ATOM      6  O   LIG    1       27.784 -14.288   3.908  0.00  0.00    -0.465 OA
ENDBRANCH   3   6
ENDBRANCH   1   3
BRANCH   2   7
ATOM      7  C   LIG    1       24.145 -12.812   3.936  0.00  0.00    +0.332 C 
ATOM      8  O   LIG    1       24.111 -12.002   4.844  0.00  0.00    -0.246 OA
BRANCH   7   9
ATOM      9  O   LIG    1       23.782 -12.602   2.646  0.00  0.00    -0.465 OA
ATOM     10  C   LIG    1       24.448 -11.521   1.997  0.00  0.00    +0.280 C 
ENDBRANCH   7   9
ENDBRANCH   2   7
TORSDOF 4
ENDMDL
MODEL 2
REMARK VINA RESULT:      -4.7      0.187      3.900
REMARK  Name = *****
REMARK                            x       y       z     vdW  Elec       q    Type
REMARK                         _______ _______ _______ _____ _____    ______ ____
ROOT
ATOM      1  C   LIG    1       24.536 -14.286   4.068  0.00  0.00    +0.098 C 
ATOM      2  C   LIG    1       25.623 -14.973   3.697  0.00  0.00    +0.098 C 
ENDROOT
BRANCH   1   3
ATOM      3  C   LIG    1       24.208 -12.866   3.798  0.00  0.00    +0.332 C 
ATOM      4  O   LIG    1       24.096 -12.030   4.681  0.00  0.00    -0.246 OA
BRANCH   3   6
ATOM      5  C   LIG    1       24.585 -11.642   1.813  0.00  0.00    +0.280 C 
ATOM      6  O   LIG    1       23.912 -12.707   2.482  0.00  0.00    -0.465 OA
ENDBRANCH   3   6
ENDBRANCH   1   3
BRANCH   2   7
ATOM      7  C   LIG    1       26.844 -14.480   3.014  0.00  0.00    +0.332 C 
ATOM      8  O   LIG    1       26.888 -14.292   1.812  0.00  0.00    -0.246 OA
BRANCH   7   9
ATOM      9  O   LIG    1       27.879 -14.397   3.887  0.00  0.00    -0.465 OA
ATOM     10  C   LIG    1       28.412 -13.088   4.075  0.00  0.00    +0.280 C 
ENDBRANCH   7   9
ENDBRANCH   2   7
TORSDOF 4
ENDMDL
MODEL 3
REMARK VINA RESULT:      -4.4      1.441      2.009
REMARK  Name = *****
REMARK                            x       y       z     vdW  Elec       q    Type
REMARK                         _______ _______ _______ _____ _____    ______ ____
ROOT
ATOM      1  C   LIG    1       26.695 -13.992   4.288  0.00  0.00    +0.098 C 
ATOM      2  C   LIG    1       25.597 -13.378   4.744  0.00  0.00    +0.098 C 
ENDROOT
BRANCH   1   3
ATOM      3  C   LIG    1       26.853 -14.801   3.055  0.00  0.00    +0.332 C 
ATOM      4  O   LIG    1       26.679 -14.345   1.935  0.00  0.00    -0.246 OA
BRANCH   3   6
ATOM      5  C   LIG    1       25.930 -16.966   3.252  0.00  0.00    +0.280 C 
ATOM      6  O   LIG    1       27.057 -16.103   3.384  0.00  0.00    -0.465 OA
ENDBRANCH   3   6
ENDBRANCH   1   3
BRANCH   2   7
ATOM      7  C   LIG    1       24.215 -13.429   4.208  0.00  0.00    +0.332 C 
ATOM      8  O   LIG    1       23.589 -14.469   4.115  0.00  0.00    -0.246 OA
BRANCH   7   9
ATOM      9  O   LIG    1       23.834 -12.210   3.752  0.00  0.00    -0.465 OA
ATOM     10  C   LIG    1       24.216 -11.916   2.410  0.00  0.00    +0.280 C 
ENDBRANCH   7   9
ENDBRANCH   2   7
TORSDOF 4
ENDMDL
MODEL 4
REMARK VINA RESULT:      -4.4      1.437      4.057
REMARK  Name = *****
REMARK                            x       y       z     vdW  Elec       q    Type
REMARK                         _______ _______ _______ _____ _____    ______ ____
ROOT
ATOM      1  C   LIG    1       25.569 -13.370   4.733  0.00  0.00    +0.098 C 
ATOM      2  C   LIG    1       26.670 -13.988   4.287  0.00  0.00    +0.098 C 
ENDROOT
BRANCH   1   3
ATOM      3  C   LIG    1       24.192 -13.434   4.188  0.00  0.00    +0.332 C 
ATOM      4  O   LIG    1       23.569 -14.480   4.079  0.00  0.00    -0.246 OA
BRANCH   3   6
ATOM      5  C   LIG    1       24.240 -11.921   2.375  0.00  0.00    +0.280 C 
ATOM      6  O   LIG    1       23.831 -12.215   3.710  0.00  0.00    -0.465 OA
ENDBRANCH   3   6
ENDBRANCH   1   3
BRANCH   2   7
ATOM      7  C   LIG    1       26.840 -14.812   3.066  0.00  0.00    +0.332 C 
ATOM      8  O   LIG    1       26.685 -14.359   1.946  0.00  0.00    -0.246 OA
BRANCH   7   9
ATOM      9  O   LIG    1       27.065 -16.110   3.392  0.00  0.00    -0.465 OA
ATOM     10  C   LIG    1       25.941 -16.975   3.253  0.00  0.00    +0.280 C 
ENDBRANCH   7   9
ENDBRANCH   2   7
TORSDOF 4
ENDMDL
MODEL 5
REMARK VINA RESULT:      -4.3      0.934      3.868
REMARK  Name = *****
REMARK                            x       y       z     vdW  Elec       q    Type
REMARK                         _______ _______ _______ _____ _____    ______ ____
ROOT
ATOM      1  C   LIG    1       24.196 -13.653   3.675  0.00  0.00    +0.098 C 
ATOM      2  C   LIG    1       25.250 -14.478   3.669  0.00  0.00    +0.098 C 
ENDROOT
BRANCH   1   3
ATOM      3  C   LIG    1       24.066 -12.320   3.039  0.00  0.00    +0.332 C 
ATOM      4  O   LIG    1       24.541 -12.057   1.944  0.00  0.00    -0.246 OA
BRANCH   3   6
ATOM      5  C   LIG    1       23.978 -11.504   5.254  0.00  0.00    +0.280 C 
ATOM      6  O   LIG    1       23.497 -11.449   3.912  0.00  0.00    -0.465 OA
ENDBRANCH   3   6
ENDBRANCH   1   3
BRANCH   2   7
ATOM      7  C   LIG    1       26.610 -14.242   3.124  0.00  0.00    +0.332 C 
ATOM      8  O   LIG    1       26.871 -14.375   1.943  0.00  0.00    -0.246 OA
BRANCH   7   9
ATOM      9  O   LIG    1       27.488 -13.988   4.126  0.00  0.00    -0.465 OA
ATOM     10  C   LIG    1       28.603 -13.176   3.764  0.00  0.00    +0.280 C 
ENDBRANCH   7   9
ENDBRANCH   2   7
TORSDOF 4
ENDMDL
MODEL 6
REMARK VINA RESULT:      -4.3      1.344      1.795
REMARK  Name = *****
REMARK                            x       y       z     vdW  Elec       q    Type
REMARK                         _______ _______ _______ _____ _____    ______ ____
ROOT
ATOM      1  C   LIG    1       26.424 -13.778   2.319  0.00  0.00    +0.098 C 
ATOM      2  C   LIG    1       25.273 -13.095   2.304  0.00  0.00    +0.098 C 
ENDROOT
BRANCH   1   3
ATOM      3  C   LIG    1       26.863 -14.822   3.276  0.00  0.00    +0.332 C 
ATOM      4  O   LIG    1       26.462 -15.975   3.232  0.00  0.00    -0.246 OA
BRANCH   3   6
ATOM      5  C   LIG    1       28.521 -13.233   3.830  0.00  0.00    +0.280 C 
ATOM      6  O   LIG    1       27.623 -14.258   4.251  0.00  0.00    -0.465 OA
ENDBRANCH   3   6
ENDBRANCH   1   3
BRANCH   2   7
ATOM      7  C   LIG    1       24.173 -13.109   3.299  0.00  0.00    +0.332 C 
ATOM      8  O   LIG    1       23.670 -14.143   3.700  0.00  0.00    -0.246 OA
BRANCH   7   9
ATOM      9  O   LIG    1       23.764 -11.846   3.578  0.00  0.00    -0.465 OA
ATOM     10  C   LIG    1       23.727 -11.512   4.963  0.00  0.00    +0.280 C 
ENDBRANCH   7   9
ENDBRANCH   2   7
TORSDOF 4
ENDMDL
MODEL 7
REMARK VINA RESULT:      -4.3      1.192      4.105
REMARK  Name = *****
REMARK                            x       y       z     vdW  Elec       q    Type
REMARK                         _______ _______ _______ _____ _____    ______ ____
ROOT
ATOM      1  C   LIG    1       25.179 -12.900   2.497  0.00  0.00    +0.098 C 
ATOM      2  C   LIG    1       26.331 -13.571   2.380  0.00  0.00    +0.098 C 
ENDROOT
BRANCH   1   3
ATOM      3  C   LIG    1       24.180 -12.970   3.590  0.00  0.00    +0.332 C 
ATOM      4  O   LIG    1       24.193 -12.216   4.552  0.00  0.00    -0.246 OA
BRANCH   3   6
ATOM      5  C   LIG    1       23.390 -15.007   4.489  0.00  0.00    +0.280 C 
ATOM      6  O   LIG    1       23.391 -14.063   3.420  0.00  0.00    -0.465 OA
ENDBRANCH   3   6
ENDBRANCH   1   3
BRANCH   2   7
ATOM      7  C   LIG    1       26.871 -14.646   3.246  0.00  0.00    +0.332 C 
ATOM      8  O   LIG    1       26.555 -15.814   3.110  0.00  0.00    -0.246 OA
BRANCH   7   9
ATOM      9  O   LIG    1       27.637 -14.124   4.236  0.00  0.00    -0.465 OA
ATOM     10  C   LIG    1       28.601 -13.161   3.814  0.00  0.00    +0.280 C 
ENDBRANCH   7   9
ENDBRANCH   2   7
TORSDOF 4
ENDMDL
MODEL 8
REMARK VINA RESULT:      -4.3      1.203      1.910
REMARK  Name = *****
REMARK                            x       y       z     vdW  Elec       q    Type
REMARK                         _______ _______ _______ _____ _____    ______ ____
ROOT
ATOM      1  C   LIG    1       26.340 -13.586   2.363  0.00  0.00    +0.098 C 
ATOM      2  C   LIG    1       25.181 -12.928   2.482  0.00  0.00    +0.098 C 
ENDROOT
BRANCH   1   3
ATOM      3  C   LIG    1       26.894 -14.641   3.246  0.00  0.00    +0.332 C 
ATOM      4  O   LIG    1       26.592 -15.821   3.142  0.00  0.00    -0.246 OA
BRANCH   3   6
ATOM      5  C   LIG    1       28.611 -13.123   3.818  0.00  0.00    +0.280 C 
ATOM      6  O   LIG    1       27.630 -14.071   4.235  0.00  0.00    -0.465 OA
ENDBRANCH   3   6
ENDBRANCH   1   3
BRANCH   2   7
ATOM      7  C   LIG    1       24.188 -12.988   3.582  0.00  0.00    +0.332 C 
ATOM      8  O   LIG    1       24.216 -12.222   4.528  0.00  0.00    -0.246 OA
BRANCH   7   9
ATOM      9  O   LIG    1       23.366 -14.055   3.427  0.00  0.00    -0.465 OA
ATOM     10  C   LIG    1       23.396 -15.005   4.490  0.00  0.00    +0.280 C 
ENDBRANCH   7   9
ENDBRANCH   2   7
TORSDOF 4
ENDMDL
MODEL 9
REMARK VINA RESULT:      -4.0      6.744      7.460
REMARK  Name = *****
REMARK                            x       y       z     vdW  Elec       q    Type
REMARK                         _______ _______ _______ _____ _____    ______ ____
ROOT
ATOM      1  C   LIG    1       24.800 -20.841   7.062  0.00  0.00    +0.098 C 
ATOM      2  C   LIG    1       23.470 -20.787   6.928  0.00  0.00    +0.098 C 
ENDROOT
BRANCH   1   3
ATOM      3  C   LIG    1       25.841 -20.470   6.072  0.00  0.00    +0.332 C 
ATOM      4  O   LIG    1       25.660 -20.529   4.865  0.00  0.00    -0.246 OA
BRANCH   3   6
ATOM      5  C   LIG    1       28.142 -19.975   5.874  0.00  0.00    +0.280 C 
ATOM      6  O   LIG    1       27.014 -20.223   6.711  0.00  0.00    -0.465 OA
ENDBRANCH   3   6
ENDBRANCH   1   3
BRANCH   2   7
ATOM      7  C   LIG    1       22.670 -20.452   5.725  0.00  0.00    +0.332 C 
ATOM      8  O   LIG    1       22.362 -21.287   4.894  0.00  0.00    -0.246 OA
BRANCH   7   9
ATOM      9  O   LIG    1       22.458 -19.115   5.648  0.00  0.00    -0.465 OA
ATOM     10  C   LIG    1       22.322 -18.596   4.327  0.00  0.00    +0.280 C 
ENDBRANCH   7   9
ENDBRANCH   2   7
TORSDOF 4
ENDMDL
