MODEL 1
REMARK VINA RESULT:      -5.0      0.000      0.000
REMARK  Name = *****
REMARK                            x       y       z     vdW  Elec       q    Type
REMARK                         _______ _______ _______ _____ _____    ______ ____
ROOT
ATOM      1  C   LIG    1       27.919 -29.071  12.786  0.00  0.00    +0.210 C 
ATOM      2  C   LIG    1       27.576 -28.093  13.973  0.00  0.00    +0.126 C 
ATOM      3  C   LIG    1       27.173 -28.895  15.223  0.00  0.00    +0.048 C 
ATOM      4  C   LIG    1       26.477 -27.124  13.443  0.00  0.00    +0.159 C 
ATOM      5  C   LIG    1       25.459 -26.600  14.464  0.00  0.00    +0.084 C 
ATOM      6  C   LIG    1       25.992 -25.618  15.499  0.00  0.00    +0.018 C 
ATOM      7  C   LIG    1       24.358 -25.965  13.625  0.00  0.00    +0.142 C 
ATOM      8  O   LIG    1       24.604 -24.988  12.913  0.00  0.00    -0.297 OA
ATOM      9  C   LIG    1       22.956 -26.561  13.694  0.00  0.00    +0.055 C 
ATOM     10  C   LIG    1       22.375 -26.068  15.016  0.00  0.00    +0.015 C 
ATOM     11  C   LIG    1       22.962 -28.088  13.332  0.00  0.00    +0.048 C 
ATOM     12  C   LIG    1       22.008 -29.067  14.063  0.00  0.00    +0.090 C 
ATOM     13  C   LIG    1       22.484 -29.347  15.500  0.00  0.00    +0.044 C 
ATOM     14  C   LIG    1       21.778 -30.444  13.248  0.00  0.00    +0.158 C 
ATOM     15  C   LIG    1       23.052 -31.408  13.091  0.00  0.00    +0.047 C 
ATOM     16  C   LIG    1       22.614 -32.892  13.044  0.00  0.00    +0.013 C 
ATOM     17  C   LIG    1       24.096 -31.134  11.894  0.00  0.00    +0.140 C 
ATOM     18  C   LIG    1       25.455 -31.859  12.212  0.00  0.00    +0.124 C 
ATOM     19  C   LIG    1       25.674 -33.259  11.617  0.00  0.00    +0.022 C 
ATOM     20  C   LIG    1       26.645 -30.965  11.856  0.00  0.00    +0.313 C 
ATOM     21  O   LIG    1       27.311 -31.046  10.854  0.00  0.00    -0.250 OA
ATOM     22  O   LIG    1       26.855 -30.080  12.862  0.00  0.00    -0.458 OA
ENDROOT
BRANCH   1  24
ATOM     23  C   LIG    1       29.839 -30.058  14.212  0.00  0.00    +0.007 C 
ATOM     24  C   LIG    1       29.317 -29.718  12.820  0.00  0.00    +0.044 C 
ENDBRANCH   1  24
BRANCH   2  25
ATOM     25  O   LIG    1       28.676 -27.272  14.374  0.00  0.00    -0.383 OA
ATOM     26  H   LIG    1       29.178 -27.819  15.020  0.00  0.00    +0.210 HD
ENDBRANCH   2  25
BRANCH   4  27
ATOM     27  O   LIG    1       27.176 -26.027  12.805  0.00  0.00    -0.388 OA
ATOM     28  H   LIG    1       27.088 -25.242  13.390  0.00  0.00    +0.210 HD
ENDBRANCH   4  27
BRANCH  12  29
ATOM     29  O   LIG    1       20.763 -28.349  14.120  0.00  0.00    -0.386 OA
ATOM     30  H   LIG    1       20.626 -27.880  13.279  0.00  0.00    +0.210 HD
ENDBRANCH  12  29
BRANCH  14  31
ATOM     31  O   LIG    1       20.710 -31.267  13.822  0.00  0.00    -0.342 OA
BRANCH  31  32
ATOM     32  C   LIG    1       19.397 -30.746  14.050  0.00  0.00    +0.281 C 
ATOM     33  C   LIG    1       18.704 -30.017  12.867  0.00  0.00    +0.187 C 
ATOM     34  C   LIG    1       17.920 -30.950  11.916  0.00  0.00    +0.092 C 
ATOM     35  C   LIG    1       16.949 -31.730  12.817  0.00  0.00    +0.053 C 
ATOM     36  C   LIG    1       17.629 -32.474  13.964  0.00  0.00    +0.120 C 
ATOM     37  C   LIG    1       18.220 -33.825  13.581  0.00  0.00    +0.038 C 
ATOM     38  O   LIG    1       18.551 -31.699  14.726  0.00  0.00    -0.346 OA
BRANCH  34  39
ATOM     39  N   LIG    1       18.729 -31.811  11.006  0.00  0.00    -0.303 NA
ATOM     40  C   LIG    1       17.919 -32.311   9.883  0.00  0.00    +0.105 C 
ATOM     41  C   LIG    1       19.858 -31.094  10.396  0.00  0.00    +0.105 C 
ENDBRANCH  34  39
BRANCH  33  42
ATOM     42  O   LIG    1       17.755 -29.050  13.397  0.00  0.00    -0.385 OA
ATOM     43  H   LIG    1       17.338 -28.632  12.623  0.00  0.00    +0.210 HD
ENDBRANCH  33  42
ENDBRANCH  31  32
ENDBRANCH  14  31
BRANCH  17  44
ATOM     44  O   LIG    1       23.534 -31.523  10.620  0.00  0.00    -0.347 OA
BRANCH  44  45
ATOM     45  C   LIG    1       24.267 -31.132   9.433  0.00  0.00    +0.254 C 
ATOM     46  O   LIG    1       23.528 -30.182   8.675  0.00  0.00    -0.346 OA
ATOM     47  C   LIG    1       24.139 -29.773   7.439  0.00  0.00    +0.150 C 
ATOM     48  C   LIG    1       25.334 -28.835   7.600  0.00  0.00    +0.040 C 
ATOM     49  C   LIG    1       24.422 -30.980   6.532  0.00  0.00    +0.175 C 
ATOM     50  C   LIG    1       25.204 -32.126   7.234  0.00  0.00    +0.099 C 
ATOM     51  C   LIG    1       26.709 -31.822   7.369  0.00  0.00    +0.044 C 
ATOM     52  C   LIG    1       24.578 -32.400   8.623  0.00  0.00    +0.098 C 
BRANCH  49  53
ATOM     53  O   LIG    1       23.144 -31.469   6.075  0.00  0.00    -0.386 OA
ATOM     54  H   LIG    1       23.323 -32.175   5.428  0.00  0.00    +0.210 HD
ENDBRANCH  49  53
BRANCH  50  55
ATOM     55  O   LIG    1       25.072 -33.371   6.498  0.00  0.00    -0.374 OA
ATOM     56  C   LIG    1       26.042 -33.614   5.482  0.00  0.00    +0.195 C 
ENDBRANCH  50  55
ENDBRANCH  44  45
ENDBRANCH  17  44
TORSDOF 12
ENDMDL
