MODEL 1
REMARK VINA RESULT:      -7.4      0.000      0.000
REMARK  Name = *****
REMARK                            x       y       z     vdW  Elec       q    Type
REMARK                         _______ _______ _______ _____ _____    ______ ____
ROOT
ATOM      1  C   LIG    1       23.571 -21.267   5.716  0.00  0.00    +0.140 C 
ATOM      2  C   LIG    1       24.083 -20.808   7.077  0.00  0.00    +0.239 C 
ATOM      3  O   LIG    1       23.309 -20.437   7.964  0.00  0.00    -0.274 OA
ATOM      4  N   LIG    1       25.444 -20.919   7.303  0.00  0.00    -0.228 N 
ATOM      5  C   LIG    1       25.918 -20.718   8.659  0.00  0.00    +0.143 C 
ATOM      6  C   LIG    1       26.385 -20.951   6.297  0.00  0.00    +0.315 C 
ATOM      7  O   LIG    1       27.596 -20.848   6.487  0.00  0.00    -0.252 OA
ATOM      8  N   LIG    1       25.918 -21.056   5.023  0.00  0.00    -0.239 N 
ATOM      9  H   LIG    1       26.618 -21.029   4.295  0.00  0.00    +0.159 HD
ATOM     10  C   LIG    1       24.615 -21.126   4.623  0.00  0.00    +0.237 C 
ATOM     11  O   LIG    1       24.345 -21.144   3.422  0.00  0.00    -0.274 OA
ENDROOT
BRANCH   1  12
ATOM     12  C   LIG    1       23.194 -22.790   5.814  0.00  0.00    +0.085 C 
ATOM     13  C   LIG    1       22.146 -23.123   6.891  0.00  0.00    +0.023 C 
BRANCH  12  14
ATOM     14  C   LIG    1       24.379 -23.645   6.052  0.00  0.00    -0.098 C 
ATOM     15  C   LIG    1       25.316 -24.385   6.242  0.00  0.00    -0.102 C 
BRANCH  15  16
ATOM     16  C   LIG    1       26.423 -25.318   6.470  0.00  0.00    +0.085 C 
ATOM     17  C   LIG    1       25.905 -26.701   6.837  0.00  0.00    +0.017 C 
ENDBRANCH  15  16
ENDBRANCH  12  14
ENDBRANCH   1  12
BRANCH   1  18
ATOM     18  C   LIG    1       22.323 -20.424   5.320  0.00  0.00    +0.053 C 
BRANCH  18  20
ATOM     19  C   LIG    1       21.832 -18.235   4.182  0.00  0.00    +0.004 C 
ATOM     20  C   LIG    1       22.629 -18.989   4.952  0.00  0.00    -0.033 C 
ENDBRANCH  18  20
ENDBRANCH   1  18
TORSDOF 5
ENDMDL
MODEL 2
REMARK VINA RESULT:      -7.4      1.846      4.755
REMARK  Name = *****
REMARK                            x       y       z     vdW  Elec       q    Type
REMARK                         _______ _______ _______ _____ _____    ______ ____
ROOT
ATOM      1  C   LIG    1       25.115 -21.575   6.461  0.00  0.00    +0.140 C 
ATOM      2  C   LIG    1       25.572 -22.855   7.152  0.00  0.00    +0.239 C 
ATOM      3  O   LIG    1       26.092 -22.831   8.271  0.00  0.00    -0.274 OA
ATOM      4  N   LIG    1       25.291 -24.048   6.509  0.00  0.00    -0.228 N 
ATOM      5  C   LIG    1       25.498 -25.276   7.252  0.00  0.00    +0.143 C 
ATOM      6  C   LIG    1       25.078 -24.153   5.152  0.00  0.00    +0.315 C 
ATOM      7  O   LIG    1       25.026 -25.221   4.546  0.00  0.00    -0.252 OA
ATOM      8  N   LIG    1       24.969 -22.988   4.456  0.00  0.00    -0.239 N 
ATOM      9  H   LIG    1       24.862 -23.082   3.456  0.00  0.00    +0.159 HD
ATOM     10  C   LIG    1       25.055 -21.718   4.950  0.00  0.00    +0.237 C 
ATOM     11  O   LIG    1       25.009 -20.759   4.180  0.00  0.00    -0.274 OA
ENDROOT
BRANCH   1  12
ATOM     12  C   LIG    1       23.664 -21.231   6.959  0.00  0.00    +0.085 C 
ATOM     13  C   LIG    1       22.737 -22.449   7.119  0.00  0.00    +0.023 C 
BRANCH  12  14
ATOM     14  C   LIG    1       22.986 -20.254   6.078  0.00  0.00    -0.098 C 
ATOM     15  C   LIG    1       22.459 -19.475   5.317  0.00  0.00    -0.102 C 
BRANCH  15  16
ATOM     16  C   LIG    1       21.846 -18.549   4.362  0.00  0.00    +0.085 C 
ATOM     17  C   LIG    1       22.277 -17.116   4.637  0.00  0.00    +0.017 C 
ENDBRANCH  15  16
ENDBRANCH  12  14
ENDBRANCH   1  12
BRANCH   1  18
ATOM     18  C   LIG    1       26.096 -20.418   6.808  0.00  0.00    +0.053 C 
BRANCH  18  20
ATOM     19  C   LIG    1       28.258 -19.759   5.703  0.00  0.00    +0.004 C 
ATOM     20  C   LIG    1       27.525 -20.658   6.376  0.00  0.00    -0.033 C 
ENDBRANCH  18  20
ENDBRANCH   1  18
TORSDOF 5
ENDMDL
MODEL 3
REMARK VINA RESULT:      -6.9      1.652      3.735
REMARK  Name = *****
REMARK                            x       y       z     vdW  Elec       q    Type
REMARK                         _______ _______ _______ _____ _____    ______ ____
ROOT
ATOM      1  C   LIG    1       24.481 -21.716   6.400  0.00  0.00    +0.140 C 
ATOM      2  C   LIG    1       24.978 -20.958   5.174  0.00  0.00    +0.239 C 
ATOM      3  O   LIG    1       26.108 -21.147   4.714  0.00  0.00    -0.274 OA
ATOM      4  N   LIG    1       24.071 -20.121   4.546  0.00  0.00    -0.228 N 
ATOM      5  C   LIG    1       24.441 -19.581   3.252  0.00  0.00    +0.143 C 
ATOM      6  C   LIG    1       22.974 -19.575   5.174  0.00  0.00    +0.315 C 
ATOM      7  O   LIG    1       22.280 -18.683   4.691  0.00  0.00    -0.252 OA
ATOM      8  N   LIG    1       22.690 -20.036   6.424  0.00  0.00    -0.239 N 
ATOM      9  H   LIG    1       21.912 -19.590   6.890  0.00  0.00    +0.159 HD
ATOM     10  C   LIG    1       23.377 -20.977   7.134  0.00  0.00    +0.237 C 
ATOM     11  O   LIG    1       23.039 -21.237   8.289  0.00  0.00    -0.274 OA
ENDROOT
BRANCH   1  12
ATOM     12  C   LIG    1       23.892 -23.095   5.927  0.00  0.00    +0.085 C 
ATOM     13  C   LIG    1       22.634 -23.548   6.687  0.00  0.00    +0.023 C 
BRANCH  12  14
ATOM     14  C   LIG    1       24.890 -24.186   6.006  0.00  0.00    -0.098 C 
ATOM     15  C   LIG    1       25.666 -25.111   6.069  0.00  0.00    -0.102 C 
BRANCH  15  16
ATOM     16  C   LIG    1       26.571 -26.262   6.141  0.00  0.00    +0.085 C 
ATOM     17  C   LIG    1       26.340 -27.212   4.975  0.00  0.00    +0.017 C 
ENDBRANCH  15  16
ENDBRANCH  12  14
ENDBRANCH   1  12
BRANCH   1  18
ATOM     18  C   LIG    1       25.665 -21.941   7.386  0.00  0.00    +0.053 C 
BRANCH  18  20
ATOM     19  C   LIG    1       27.490 -20.279   7.868  0.00  0.00    +0.004 C 
ATOM     20  C   LIG    1       26.217 -20.674   8.001  0.00  0.00    -0.033 C 
ENDBRANCH  18  20
ENDBRANCH   1  18
TORSDOF 5
ENDMDL
MODEL 4
REMARK VINA RESULT:      -6.7      1.371      4.976
REMARK  Name = *****
REMARK                            x       y       z     vdW  Elec       q    Type
REMARK                         _______ _______ _______ _____ _____    ______ ____
ROOT
ATOM      1  C   LIG    1       24.896 -22.042   6.659  0.00  0.00    +0.140 C 
ATOM      2  C   LIG    1       25.108 -21.614   5.211  0.00  0.00    +0.239 C 
ATOM      3  O   LIG    1       24.514 -22.169   4.282  0.00  0.00    -0.274 OA
ATOM      4  N   LIG    1       25.922 -20.515   4.996  0.00  0.00    -0.228 N 
ATOM      5  C   LIG    1       25.944 -19.947   3.662  0.00  0.00    +0.143 C 
ATOM      6  C   LIG    1       26.886 -20.094   5.884  0.00  0.00    +0.315 C 
ATOM      7  O   LIG    1       27.741 -19.250   5.620  0.00  0.00    -0.252 OA
ATOM      8  N   LIG    1       26.902 -20.697   7.105  0.00  0.00    -0.239 N 
ATOM      9  H   LIG    1       27.646 -20.412   7.726  0.00  0.00    +0.159 HD
ATOM     10  C   LIG    1       26.072 -21.685   7.550  0.00  0.00    +0.237 C 
ATOM     11  O   LIG    1       26.258 -22.184   8.660  0.00  0.00    -0.274 OA
ENDROOT
BRANCH   1  12
ATOM     12  C   LIG    1       23.633 -21.292   7.220  0.00  0.00    +0.085 C 
ATOM     13  C   LIG    1       22.501 -22.215   7.703  0.00  0.00    +0.023 C 
BRANCH  12  14
ATOM     14  C   LIG    1       23.062 -20.346   6.235  0.00  0.00    -0.098 C 
ATOM     15  C   LIG    1       22.602 -19.609   5.393  0.00  0.00    -0.102 C 
BRANCH  15  16
ATOM     16  C   LIG    1       22.054 -18.749   4.341  0.00  0.00    +0.085 C 
ATOM     17  C   LIG    1       22.270 -17.279   4.670  0.00  0.00    +0.017 C 
ENDBRANCH  15  16
ENDBRANCH  12  14
ENDBRANCH   1  12
BRANCH   1  18
ATOM     18  C   LIG    1       24.682 -23.583   6.718  0.00  0.00    +0.053 C 
BRANCH  18  20
ATOM     19  C   LIG    1       25.928 -25.703   6.190  0.00  0.00    +0.004 C 
ATOM     20  C   LIG    1       25.936 -24.398   6.496  0.00  0.00    -0.033 C 
ENDBRANCH  18  20
ENDBRANCH   1  18
TORSDOF 5
ENDMDL
MODEL 5
REMARK VINA RESULT:      -6.6      2.218      4.543
REMARK  Name = *****
REMARK                            x       y       z     vdW  Elec       q    Type
REMARK                         _______ _______ _______ _____ _____    ______ ____
ROOT
ATOM      1  C   LIG    1       24.584 -21.427   6.414  0.00  0.00    +0.140 C 
ATOM      2  C   LIG    1       24.807 -22.399   5.260  0.00  0.00    +0.239 C 
ATOM      3  O   LIG    1       25.285 -22.024   4.185  0.00  0.00    -0.274 OA
ATOM      4  N   LIG    1       24.539 -23.735   5.506  0.00  0.00    -0.228 N 
ATOM      5  C   LIG    1       24.968 -24.700   4.513  0.00  0.00    +0.143 C 
ATOM      6  C   LIG    1       23.680 -24.173   6.490  0.00  0.00    +0.315 C 
ATOM      7  O   LIG    1       23.283 -25.332   6.589  0.00  0.00    -0.252 OA
ATOM      8  N   LIG    1       23.222 -23.236   7.366  0.00  0.00    -0.239 N 
ATOM      9  H   LIG    1       22.555 -23.564   8.050  0.00  0.00    +0.159 HD
ATOM     10  C   LIG    1       23.510 -21.902   7.376  0.00  0.00    +0.237 C 
ATOM     11  O   LIG    1       22.956 -21.164   8.191  0.00  0.00    -0.274 OA
ENDROOT
BRANCH   1  12
ATOM     12  C   LIG    1       25.924 -21.305   7.227  0.00  0.00    +0.085 C 
ATOM     13  C   LIG    1       25.758 -20.761   8.656  0.00  0.00    +0.023 C 
BRANCH  12  14
ATOM     14  C   LIG    1       26.925 -20.464   6.532  0.00  0.00    -0.098 C 
ATOM     15  C   LIG    1       27.777 -19.789   6.001  0.00  0.00    -0.102 C 
BRANCH  15  16
ATOM     16  C   LIG    1       28.838 -18.983   5.392  0.00  0.00    +0.085 C 
ATOM     17  C   LIG    1       30.015 -18.822   6.343  0.00  0.00    +0.017 C 
ENDBRANCH  15  16
ENDBRANCH  12  14
ENDBRANCH   1  12
BRANCH   1  18
ATOM     18  C   LIG    1       24.163 -20.039   5.849  0.00  0.00    +0.053 C 
BRANCH  18  20
ATOM     19  C   LIG    1       22.248 -18.915   4.667  0.00  0.00    +0.004 C 
ATOM     20  C   LIG    1       22.785 -20.008   5.226  0.00  0.00    -0.033 C 
ENDBRANCH  18  20
ENDBRANCH   1  18
TORSDOF 5
ENDMDL
MODEL 6
REMARK VINA RESULT:      -6.5      1.969      4.065
REMARK  Name = *****
REMARK                            x       y       z     vdW  Elec       q    Type
REMARK                         _______ _______ _______ _____ _____    ______ ____
ROOT
ATOM      1  C   LIG    1       24.363 -20.939   6.168  0.00  0.00    +0.140 C 
ATOM      2  C   LIG    1       24.160 -22.206   5.345  0.00  0.00    +0.239 C 
ATOM      3  O   LIG    1       23.401 -22.227   4.372  0.00  0.00    -0.274 OA
ATOM      4  N   LIG    1       24.938 -23.302   5.680  0.00  0.00    -0.228 N 
ATOM      5  C   LIG    1       24.938 -24.429   4.769  0.00  0.00    +0.143 C 
ATOM      6  C   LIG    1       25.497 -23.488   6.925  0.00  0.00    +0.315 C 
ATOM      7  O   LIG    1       26.016 -24.540   7.294  0.00  0.00    -0.252 OA
ATOM      8  N   LIG    1       25.414 -22.446   7.798  0.00  0.00    -0.239 N 
ATOM      9  H   LIG    1       25.785 -22.617   8.722  0.00  0.00    +0.159 HD
ATOM     10  C   LIG    1       24.830 -21.232   7.583  0.00  0.00    +0.237 C 
ATOM     11  O   LIG    1       24.770 -20.412   8.499  0.00  0.00    -0.274 OA
ENDROOT
BRANCH   1  12
ATOM     12  C   LIG    1       25.474 -20.068   5.476  0.00  0.00    +0.085 C 
ATOM     13  C   LIG    1       25.562 -20.238   3.949  0.00  0.00    +0.023 C 
BRANCH  12  14
ATOM     14  C   LIG    1       26.818 -20.323   6.041  0.00  0.00    -0.098 C 
ATOM     15  C   LIG    1       27.932 -20.487   6.482  0.00  0.00    -0.102 C 
BRANCH  15  16
ATOM     16  C   LIG    1       29.295 -20.647   6.996  0.00  0.00    +0.085 C 
ATOM     17  C   LIG    1       30.148 -19.431   6.666  0.00  0.00    +0.017 C 
ENDBRANCH  15  16
ENDBRANCH  12  14
ENDBRANCH   1  12
BRANCH   1  18
ATOM     18  C   LIG    1       23.023 -20.150   6.244  0.00  0.00    +0.053 C 
BRANCH  18  20
ATOM     19  C   LIG    1       22.225 -18.274   4.770  0.00  0.00    +0.004 C 
ATOM     20  C   LIG    1       22.569 -19.560   4.927  0.00  0.00    -0.033 C 
ENDBRANCH  18  20
ENDBRANCH   1  18
TORSDOF 5
ENDMDL
MODEL 7
REMARK VINA RESULT:      -6.3      2.403      4.896
REMARK  Name = *****
REMARK                            x       y       z     vdW  Elec       q    Type
REMARK                         _______ _______ _______ _____ _____    ______ ____
ROOT
ATOM      1  C   LIG    1       25.219 -21.673   6.693  0.00  0.00    +0.140 C 
ATOM      2  C   LIG    1       24.718 -22.662   5.645  0.00  0.00    +0.239 C 
ATOM      3  O   LIG    1       23.972 -22.305   4.729  0.00  0.00    -0.274 OA
ATOM      4  N   LIG    1       25.215 -23.952   5.714  0.00  0.00    -0.228 N 
ATOM      5  C   LIG    1       24.944 -24.836   4.597  0.00  0.00    +0.143 C 
ATOM      6  C   LIG    1       25.719 -24.516   6.866  0.00  0.00    +0.315 C 
ATOM      7  O   LIG    1       25.976 -25.712   6.989  0.00  0.00    -0.252 OA
ATOM      8  N   LIG    1       25.889 -23.686   7.931  0.00  0.00    -0.239 N 
ATOM      9  H   LIG    1       26.213 -24.124   8.782  0.00  0.00    +0.159 HD
ATOM     10  C   LIG    1       25.609 -22.351   7.994  0.00  0.00    +0.237 C 
ATOM     11  O   LIG    1       25.748 -21.748   9.057  0.00  0.00    -0.274 OA
ENDROOT
BRANCH   1  12
ATOM     12  C   LIG    1       26.502 -20.959   6.130  0.00  0.00    +0.085 C 
ATOM     13  C   LIG    1       27.317 -20.186   7.181  0.00  0.00    +0.023 C 
BRANCH  12  14
ATOM     14  C   LIG    1       26.184 -20.029   5.024  0.00  0.00    -0.098 C 
ATOM     15  C   LIG    1       25.911 -19.232   4.156  0.00  0.00    -0.102 C 
BRANCH  15  16
ATOM     16  C   LIG    1       25.569 -18.237   3.136  0.00  0.00    +0.085 C 
ATOM     17  C   LIG    1       26.312 -16.931   3.377  0.00  0.00    +0.017 C 
ENDBRANCH  15  16
ENDBRANCH  12  14
ENDBRANCH   1  12
BRANCH   1  18
ATOM     18  C   LIG    1       24.105 -20.629   6.995  0.00  0.00    +0.053 C 
BRANCH  18  20
ATOM     19  C   LIG    1       22.496 -19.562   5.381  0.00  0.00    +0.004 C 
ATOM     20  C   LIG    1       22.947 -20.650   6.022  0.00  0.00    -0.033 C 
ENDBRANCH  18  20
ENDBRANCH   1  18
TORSDOF 5
ENDMDL
MODEL 8
REMARK VINA RESULT:      -6.1      1.765      4.985
REMARK  Name = *****
REMARK                            x       y       z     vdW  Elec       q    Type
REMARK                         _______ _______ _______ _____ _____    ______ ____
ROOT
ATOM      1  C   LIG    1       24.798 -21.987   6.102  0.00  0.00    +0.140 C 
ATOM      2  C   LIG    1       26.137 -22.356   6.732  0.00  0.00    +0.239 C 
ATOM      3  O   LIG    1       26.831 -23.271   6.280  0.00  0.00    -0.274 OA
ATOM      4  N   LIG    1       26.581 -21.557   7.772  0.00  0.00    -0.228 N 
ATOM      5  C   LIG    1       27.947 -21.738   8.222  0.00  0.00    +0.143 C 
ATOM      6  C   LIG    1       25.746 -20.796   8.560  0.00  0.00    +0.315 C 
ATOM      7  O   LIG    1       26.099 -20.245   9.601  0.00  0.00    -0.252 OA
ATOM      8  N   LIG    1       24.446 -20.705   8.167  0.00  0.00    -0.239 N 
ATOM      9  H   LIG    1       23.836 -20.184   8.782  0.00  0.00    +0.159 HD
ATOM     10  C   LIG    1       23.867 -21.290   7.078  0.00  0.00    +0.237 C 
ATOM     11  O   LIG    1       22.656 -21.174   6.894  0.00  0.00    -0.274 OA
ENDROOT
BRANCH   1  12
ATOM     12  C   LIG    1       25.065 -20.993   4.914  0.00  0.00    +0.085 C 
ATOM     13  C   LIG    1       26.300 -20.094   5.096  0.00  0.00    +0.023 C 
BRANCH  12  14
ATOM     14  C   LIG    1       23.901 -20.120   4.643  0.00  0.00    -0.098 C 
ATOM     15  C   LIG    1       22.982 -19.365   4.422  0.00  0.00    -0.102 C 
BRANCH  15  16
ATOM     16  C   LIG    1       21.898 -18.416   4.152  0.00  0.00    +0.085 C 
ATOM     17  C   LIG    1       22.247 -17.028   4.670  0.00  0.00    +0.017 C 
ENDBRANCH  15  16
ENDBRANCH  12  14
ENDBRANCH   1  12
BRANCH   1  18
ATOM     18  C   LIG    1       24.096 -23.276   5.584  0.00  0.00    +0.053 C 
BRANCH  18  20
ATOM     19  C   LIG    1       24.170 -25.667   6.362  0.00  0.00    +0.004 C 
ATOM     20  C   LIG    1       23.952 -24.370   6.618  0.00  0.00    -0.033 C 
ENDBRANCH  18  20
ENDBRANCH   1  18
TORSDOF 5
ENDMDL
MODEL 9
REMARK VINA RESULT:      -5.8      1.966      5.168
REMARK  Name = *****
REMARK                            x       y       z     vdW  Elec       q    Type
REMARK                         _______ _______ _______ _____ _____    ______ ____
ROOT
ATOM      1  C   LIG    1       25.459 -21.490   6.840  0.00  0.00    +0.140 C 
ATOM      2  C   LIG    1       24.019 -21.899   7.131  0.00  0.00    +0.239 C 
ATOM      3  O   LIG    1       23.196 -21.089   7.569  0.00  0.00    -0.274 OA
ATOM      4  N   LIG    1       23.653 -23.190   6.793  0.00  0.00    -0.228 N 
ATOM      5  C   LIG    1       22.243 -23.522   6.836  0.00  0.00    +0.143 C 
ATOM      6  C   LIG    1       24.549 -24.229   6.670  0.00  0.00    +0.315 C 
ATOM      7  O   LIG    1       24.221 -25.410   6.567  0.00  0.00    -0.252 OA
ATOM      8  N   LIG    1       25.872 -23.909   6.715  0.00  0.00    -0.239 N 
ATOM      9  H   LIG    1       26.514 -24.687   6.673  0.00  0.00    +0.159 HD
ATOM     10  C   LIG    1       26.417 -22.667   6.877  0.00  0.00    +0.237 C 
ATOM     11  O   LIG    1       27.638 -22.545   6.972  0.00  0.00    -0.274 OA
ENDROOT
BRANCH   1  12
ATOM     12  C   LIG    1       25.519 -20.878   5.393  0.00  0.00    +0.085 C 
ATOM     13  C   LIG    1       26.682 -19.898   5.161  0.00  0.00    +0.023 C 
BRANCH  12  14
ATOM     14  C   LIG    1       24.262 -20.191   5.024  0.00  0.00    -0.098 C 
ATOM     15  C   LIG    1       23.262 -19.589   4.704  0.00  0.00    -0.102 C 
BRANCH  15  16
ATOM     16  C   LIG    1       22.078 -18.826   4.300  0.00  0.00    +0.085 C 
ATOM     17  C   LIG    1       22.249 -17.347   4.613  0.00  0.00    +0.017 C 
ENDBRANCH  15  16
ENDBRANCH  12  14
ENDBRANCH   1  12
BRANCH   1  18
ATOM     18  C   LIG    1       25.924 -20.442   7.892  0.00  0.00    +0.053 C 
BRANCH  18  20
ATOM     19  C   LIG    1       28.315 -19.724   8.199  0.00  0.00    +0.004 C 
ATOM     20  C   LIG    1       27.343 -20.630   8.379  0.00  0.00    -0.033 C 
ENDBRANCH  18  20
ENDBRANCH   1  18
TORSDOF 5
ENDMDL
