MODEL 1
REMARK VINA RESULT:      -4.3      0.000      0.000
REMARK  Name = *****
REMARK                            x       y       z     vdW  Elec       q    Type
REMARK                         _______ _______ _______ _____ _____    ______ ____
ROOT
ATOM      1  C   LIG    1       24.277 -21.083   6.389  0.00  0.00    +0.193 C 
ATOM      2  N   LIG    1       24.237 -20.313   5.246  0.00  0.00    -0.320 N 
ATOM      3  H   LIG    1       23.360 -20.155   4.782  0.00  0.00    +0.169 HD
ATOM      4  C   LIG    1       25.367 -19.793   4.666  0.00  0.00    +0.114 C 
ATOM      5  S   LIG    1       25.355 -18.892   3.273  0.00  0.00    -0.030 S 
ATOM      6  C   LIG    1       26.552 -20.109   5.371  0.00  0.00    +0.116 A 
ATOM      7  C   LIG    1       26.536 -20.854   6.520  0.00  0.00    +0.183 A 
ATOM      8  N   LIG    1       27.796 -21.032   7.012  0.00  0.00    -0.216 NA
ATOM      9  C   LIG    1       28.581 -20.405   6.162  0.00  0.00    +0.199 A 
ATOM     10  N   LIG    1       27.870 -19.826   5.146  0.00  0.00    -0.341 N 
ATOM     11  H   LIG    1       28.247 -19.298   4.370  0.00  0.00    +0.167 HD
ATOM     12  N   LIG    1       25.352 -21.366   7.062  0.00  0.00    -0.195 NA
ENDROOT
BRANCH   1  13
ATOM     13  N   LIG    1       23.080 -21.572   6.807  0.00  0.00    -0.329 N 
ATOM     14  H   LIG    1       22.568 -21.107   7.541  0.00  0.00    +0.145 HD
ATOM     15  H   LIG    1       23.043 -22.586   6.830  0.00  0.00    +0.145 HD
ENDBRANCH   1  13
TORSDOF 1
ENDMDL
MODEL 2
REMARK VINA RESULT:      -4.2      1.082      1.117
REMARK  Name = *****
REMARK                            x       y       z     vdW  Elec       q    Type
REMARK                         _______ _______ _______ _____ _____    ______ ____
ROOT
ATOM      1  C   LIG    1       23.484 -21.043   5.304  0.00  0.00    +0.193 C 
ATOM      2  N   LIG    1       23.895 -20.089   4.397  0.00  0.00    -0.320 N 
ATOM      3  H   LIG    1       23.248 -19.744   3.710  0.00  0.00    +0.169 HD
ATOM      4  C   LIG    1       25.185 -19.625   4.347  0.00  0.00    +0.114 C 
ATOM      5  S   LIG    1       25.718 -18.504   3.247  0.00  0.00    -0.030 S 
ATOM      6  C   LIG    1       26.025 -20.205   5.326  0.00  0.00    +0.116 A 
ATOM      7  C   LIG    1       25.561 -21.128   6.226  0.00  0.00    +0.183 A 
ATOM      8  N   LIG    1       26.554 -21.547   7.062  0.00  0.00    -0.216 NA
ATOM      9  C   LIG    1       27.625 -20.888   6.671  0.00  0.00    +0.199 A 
ATOM     10  N   LIG    1       27.352 -20.057   5.617  0.00  0.00    -0.341 N 
ATOM     11  H   LIG    1       28.009 -19.456   5.138  0.00  0.00    +0.167 HD
ATOM     12  N   LIG    1       24.234 -21.572   6.224  0.00  0.00    -0.195 NA
ENDROOT
BRANCH   1  13
ATOM     13  N   LIG    1       22.189 -21.440   5.189  0.00  0.00    -0.329 N 
ATOM     14  H   LIG    1       21.439 -20.797   5.392  0.00  0.00    +0.145 HD
ATOM     15  H   LIG    1       22.032 -22.397   5.489  0.00  0.00    +0.145 HD
ENDBRANCH   1  13
TORSDOF 1
ENDMDL
MODEL 3
REMARK VINA RESULT:      -4.1      0.853      3.361
REMARK  Name = *****
REMARK                            x       y       z     vdW  Elec       q    Type
REMARK                         _______ _______ _______ _____ _____    ______ ____
ROOT
ATOM      1  C   LIG    1       27.110 -20.823   6.253  0.00  0.00    +0.193 C 
ATOM      2  N   LIG    1       26.946 -20.050   5.122  0.00  0.00    -0.320 N 
ATOM      3  H   LIG    1       27.749 -19.641   4.678  0.00  0.00    +0.169 HD
ATOM      4  C   LIG    1       25.711 -19.757   4.602  0.00  0.00    +0.114 C 
ATOM      5  S   LIG    1       25.479 -18.803   3.265  0.00  0.00    -0.030 S 
ATOM      6  C   LIG    1       24.647 -20.343   5.326  0.00  0.00    +0.116 A 
ATOM      7  C   LIG    1       24.864 -21.128   6.427  0.00  0.00    +0.183 A 
ATOM      8  N   LIG    1       23.688 -21.572   6.958  0.00  0.00    -0.216 NA
ATOM      9  C   LIG    1       22.754 -21.054   6.190  0.00  0.00    +0.199 A 
ATOM     10  N   LIG    1       23.289 -20.298   5.181  0.00  0.00    -0.341 N 
ATOM     11  H   LIG    1       22.777 -19.793   4.470  0.00  0.00    +0.167 HD
ATOM     12  N   LIG    1       26.148 -21.387   6.919  0.00  0.00    -0.195 NA
ENDROOT
BRANCH   1  13
ATOM     13  N   LIG    1       28.393 -20.975   6.675  0.00  0.00    -0.329 N 
ATOM     14  H   LIG    1       28.834 -21.882   6.649  0.00  0.00    +0.145 HD
ATOM     15  H   LIG    1       28.623 -20.406   7.484  0.00  0.00    +0.145 HD
ENDBRANCH   1  13
TORSDOF 1
ENDMDL
MODEL 4
REMARK VINA RESULT:      -3.8      6.490      7.136
REMARK  Name = *****
REMARK                            x       y       z     vdW  Elec       q    Type
REMARK                         _______ _______ _______ _____ _____    ______ ____
ROOT
ATOM      1  C   LIG    1       23.862 -14.667   4.064  0.00  0.00    +0.193 C 
ATOM      2  N   LIG    1       23.611 -13.544   3.305  0.00  0.00    -0.320 N 
ATOM      3  H   LIG    1       22.662 -13.284   3.098  0.00  0.00    +0.169 HD
ATOM      4  C   LIG    1       24.613 -12.784   2.757  0.00  0.00    +0.114 C 
ATOM      5  S   LIG    1       24.343 -11.448   1.812  0.00  0.00    -0.030 S 
ATOM      6  C   LIG    1       25.908 -13.258   3.070  0.00  0.00    +0.116 A 
ATOM      7  C   LIG    1       26.106 -14.364   3.854  0.00  0.00    +0.183 A 
ATOM      8  N   LIG    1       27.435 -14.629   4.009  0.00  0.00    -0.216 NA
ATOM      9  C   LIG    1       28.049 -13.694   3.316  0.00  0.00    +0.199 A 
ATOM     10  N   LIG    1       27.161 -12.834   2.727  0.00  0.00    -0.341 N 
ATOM     11  H   LIG    1       27.388 -12.043   2.139  0.00  0.00    +0.167 HD
ATOM     12  N   LIG    1       25.043 -15.107   4.380  0.00  0.00    -0.195 NA
ENDROOT
BRANCH   1  13
ATOM     13  N   LIG    1       22.763 -15.345   4.488  0.00  0.00    -0.329 N 
ATOM     14  H   LIG    1       22.463 -15.279   5.449  0.00  0.00    +0.145 HD
ATOM     15  H   LIG    1       22.667 -16.263   4.067  0.00  0.00    +0.145 HD
ENDBRANCH   1  13
TORSDOF 1
ENDMDL
MODEL 5
REMARK VINA RESULT:      -3.6      5.883      7.157
REMARK  Name = *****
REMARK                            x       y       z     vdW  Elec       q    Type
REMARK                         _______ _______ _______ _____ _____    ______ ____
ROOT
ATOM      1  C   LIG    1       26.506 -16.255   3.542  0.00  0.00    +0.193 C 
ATOM      2  N   LIG    1       27.558 -15.370   3.657  0.00  0.00    -0.320 N 
ATOM      3  H   LIG    1       28.500 -15.718   3.686  0.00  0.00    +0.169 HD
ATOM      4  C   LIG    1       27.373 -14.018   3.798  0.00  0.00    +0.114 C 
ATOM      5  S   LIG    1       28.615 -12.933   3.973  0.00  0.00    -0.030 S 
ATOM      6  C   LIG    1       26.011 -13.637   3.788  0.00  0.00    +0.116 A 
ATOM      7  C   LIG    1       25.002 -14.553   3.642  0.00  0.00    +0.183 A 
ATOM      8  N   LIG    1       23.779 -13.950   3.671  0.00  0.00    -0.216 NA
ATOM      9  C   LIG    1       24.037 -12.671   3.844  0.00  0.00    +0.199 A 
ATOM     10  N   LIG    1       25.383 -12.431   3.920  0.00  0.00    -0.341 N 
ATOM     11  H   LIG    1       25.828 -11.533   4.058  0.00  0.00    +0.167 HD
ATOM     12  N   LIG    1       25.251 -15.923   3.510  0.00  0.00    -0.195 NA
ENDROOT
BRANCH   1  13
ATOM     13  N   LIG    1       26.852 -17.568   3.467  0.00  0.00    -0.329 N 
ATOM     14  H   LIG    1       26.140 -18.278   3.388  0.00  0.00    +0.145 HD
ATOM     15  H   LIG    1       27.643 -17.811   4.054  0.00  0.00    +0.145 HD
ENDBRANCH   1  13
TORSDOF 1
ENDMDL
MODEL 6
REMARK VINA RESULT:      -3.5      2.359      3.864
REMARK  Name = *****
REMARK                            x       y       z     vdW  Elec       q    Type
REMARK                         _______ _______ _______ _____ _____    ______ ____
ROOT
ATOM      1  C   LIG    1       25.298 -18.921   3.742  0.00  0.00    +0.193 C 
ATOM      2  N   LIG    1       23.979 -18.578   3.535  0.00  0.00    -0.320 N 
ATOM      3  H   LIG    1       23.748 -17.870   2.861  0.00  0.00    +0.169 HD
ATOM      4  C   LIG    1       22.952 -19.124   4.263  0.00  0.00    +0.114 C 
ATOM      5  S   LIG    1       21.359 -18.707   4.061  0.00  0.00    -0.030 S 
ATOM      6  C   LIG    1       23.386 -20.076   5.214  0.00  0.00    +0.116 A 
ATOM      7  C   LIG    1       24.708 -20.404   5.361  0.00  0.00    +0.183 A 
ATOM      8  N   LIG    1       24.880 -21.335   6.343  0.00  0.00    -0.216 NA
ATOM      9  C   LIG    1       23.669 -21.572   6.800  0.00  0.00    +0.199 A 
ATOM     10  N   LIG    1       22.725 -20.829   6.143  0.00  0.00    -0.341 N 
ATOM     11  H   LIG    1       21.729 -20.828   6.319  0.00  0.00    +0.167 HD
ATOM     12  N   LIG    1       25.715 -19.807   4.596  0.00  0.00    -0.195 NA
ENDROOT
BRANCH   1  13
ATOM     13  N   LIG    1       26.203 -18.250   2.981  0.00  0.00    -0.329 N 
ATOM     14  H   LIG    1       26.651 -17.419   3.335  0.00  0.00    +0.145 HD
ATOM     15  H   LIG    1       25.962 -18.224   1.995  0.00  0.00    +0.145 HD
ENDBRANCH   1  13
TORSDOF 1
ENDMDL
MODEL 7
REMARK VINA RESULT:      -3.4      5.954      7.624
REMARK  Name = *****
REMARK                            x       y       z     vdW  Elec       q    Type
REMARK                         _______ _______ _______ _____ _____    ______ ____
ROOT
ATOM      1  C   LIG    1       27.848 -13.730   3.670  0.00  0.00    +0.193 C 
ATOM      2  N   LIG    1       27.641 -15.083   3.498  0.00  0.00    -0.320 N 
ATOM      3  H   LIG    1       28.416 -15.680   3.271  0.00  0.00    +0.169 HD
ATOM      4  C   LIG    1       26.394 -15.653   3.561  0.00  0.00    +0.114 C 
ATOM      5  S   LIG    1       26.109 -17.269   3.324  0.00  0.00    -0.030 S 
ATOM      6  C   LIG    1       25.368 -14.721   3.841  0.00  0.00    +0.116 A 
ATOM      7  C   LIG    1       25.629 -13.390   4.034  0.00  0.00    +0.183 A 
ATOM      8  N   LIG    1       24.484 -12.692   4.281  0.00  0.00    -0.216 NA
ATOM      9  C   LIG    1       23.524 -13.590   4.231  0.00  0.00    +0.199 A 
ATOM     10  N   LIG    1       24.013 -14.841   3.968  0.00  0.00    -0.341 N 
ATOM     11  H   LIG    1       23.474 -15.692   3.873  0.00  0.00    +0.167 HD
ATOM     12  N   LIG    1       26.922 -12.862   3.948  0.00  0.00    -0.195 NA
ENDROOT
BRANCH   1  13
ATOM     13  N   LIG    1       29.133 -13.312   3.521  0.00  0.00    -0.329 N 
ATOM     14  H   LIG    1       29.381 -12.687   2.769  0.00  0.00    +0.145 HD
ATOM     15  H   LIG    1       29.819 -14.030   3.731  0.00  0.00    +0.145 HD
ENDBRANCH   1  13
TORSDOF 1
ENDMDL
MODEL 8
REMARK VINA RESULT:      -3.4      6.828      8.281
REMARK  Name = *****
REMARK                            x       y       z     vdW  Elec       q    Type
REMARK                         _______ _______ _______ _____ _____    ______ ____
ROOT
ATOM      1  C   LIG    1       26.951 -14.383   3.674  0.00  0.00    +0.193 C 
ATOM      2  N   LIG    1       25.802 -14.936   4.199  0.00  0.00    -0.320 N 
ATOM      3  H   LIG    1       25.861 -15.766   4.762  0.00  0.00    +0.169 HD
ATOM      4  C   LIG    1       24.553 -14.435   3.931  0.00  0.00    +0.114 C 
ATOM      5  S   LIG    1       23.151 -15.098   4.519  0.00  0.00    -0.030 S 
ATOM      6  C   LIG    1       24.576 -13.296   3.094  0.00  0.00    +0.116 A 
ATOM      7  C   LIG    1       25.747 -12.766   2.622  0.00  0.00    +0.183 A 
ATOM      8  N   LIG    1       25.515 -11.679   1.831  0.00  0.00    -0.216 NA
ATOM      9  C   LIG    1       24.206 -11.548   1.813  0.00  0.00    +0.199 A 
ATOM     10  N   LIG    1       23.590 -12.509   2.568  0.00  0.00    -0.341 N 
ATOM     11  H   LIG    1       22.594 -12.623   2.703  0.00  0.00    +0.167 HD
ATOM     12  N   LIG    1       26.994 -13.326   2.920  0.00  0.00    -0.195 NA
ENDROOT
BRANCH   1  13
ATOM     13  N   LIG    1       28.106 -15.029   3.985  0.00  0.00    -0.329 N 
ATOM     14  H   LIG    1       28.220 -15.461   4.889  0.00  0.00    +0.145 HD
ATOM     15  H   LIG    1       28.935 -14.575   3.615  0.00  0.00    +0.145 HD
ENDBRANCH   1  13
TORSDOF 1
ENDMDL
MODEL 9
REMARK VINA RESULT:      -3.3      6.558      7.616
REMARK  Name = *****
REMARK                            x       y       z     vdW  Elec       q    Type
REMARK                         _______ _______ _______ _____ _____    ______ ____
ROOT
ATOM      1  C   LIG    1       24.455 -12.501   2.399  0.00  0.00    +0.193 C 
ATOM      2  N   LIG    1       23.631 -13.388   3.060  0.00  0.00    -0.320 N 
ATOM      3  H   LIG    1       22.641 -13.223   3.086  0.00  0.00    +0.169 HD
ATOM      4  C   LIG    1       24.116 -14.472   3.748  0.00  0.00    +0.114 C 
ATOM      5  S   LIG    1       23.155 -15.536   4.581  0.00  0.00    -0.030 S 
ATOM      6  C   LIG    1       25.523 -14.589   3.685  0.00  0.00    +0.116 A 
ATOM      7  C   LIG    1       26.296 -13.697   2.990  0.00  0.00    +0.183 A 
ATOM      8  N   LIG    1       27.620 -14.011   3.082  0.00  0.00    -0.216 NA
ATOM      9  C   LIG    1       27.660 -15.088   3.838  0.00  0.00    +0.199 A 
ATOM     10  N   LIG    1       26.407 -15.479   4.229  0.00  0.00    -0.341 N 
ATOM     11  H   LIG    1       26.178 -16.269   4.818  0.00  0.00    +0.167 HD
ATOM     12  N   LIG    1       25.747 -12.603   2.312  0.00  0.00    -0.195 NA
ENDROOT
BRANCH   1  13
ATOM     13  N   LIG    1       23.827 -11.447   1.812  0.00  0.00    -0.329 N 
ATOM     14  H   LIG    1       24.184 -10.511   1.931  0.00  0.00    +0.145 HD
ATOM     15  H   LIG    1       22.816 -11.527   1.813  0.00  0.00    +0.145 HD
ENDBRANCH   1  13
TORSDOF 1
ENDMDL
