MODEL 1
REMARK VINA RESULT:      -4.9      0.000      0.000
REMARK  Name = *****
REMARK                            x       y       z     vdW  Elec       q    Type
REMARK                         _______ _______ _______ _____ _____    ______ ____
ROOT
ATOM      1  C   LIG    1       25.840 -14.113   2.843  0.00  0.00    +0.208 C 
ENDROOT
BRANCH   1   2
ATOM      2  C   LIG    1       26.443 -15.472   3.304  0.00  0.00    +0.242 C 
ATOM      3  N   LIG    1       25.631 -16.563   3.045  0.00  0.00    -0.313 N 
ATOM      4  H   LIG    1       24.886 -16.422   2.370  0.00  0.00    +0.149 HD
ATOM      5  O   LIG    1       27.510 -15.587   3.876  0.00  0.00    -0.273 OA
BRANCH   3   6
ATOM      6  C   LIG    1       26.051 -17.909   3.396  0.00  0.00    +0.106 C 
BRANCH   6   7
ATOM      7  C   LIG    1       24.851 -18.804   3.698  0.00  0.00    +0.046 C 
BRANCH   7   8
ATOM      8  C   LIG    1       25.284 -20.224   4.043  0.00  0.00    +0.157 C 
BRANCH   8   9
ATOM      9  O   LIG    1       26.591 -20.228   4.600  0.00  0.00    -0.395 OA
ATOM     10  H   LIG    1       26.524 -19.907   5.515  0.00  0.00    +0.209 HD
ENDBRANCH   8   9
ENDBRANCH   7   8
ENDBRANCH   6   7
ENDBRANCH   3   6
ENDBRANCH   1   2
BRANCH   1  12
ATOM     11  C   LIG    1       25.541 -13.029   5.148  0.00  0.00    +0.016 C 
ATOM     12  C   LIG    1       24.825 -13.488   3.859  0.00  0.00    +0.023 C 
ATOM     13  C   LIG    1       23.778 -14.545   4.294  0.00  0.00    +0.016 C 
BRANCH  12  14
ATOM     14  C   LIG    1       24.090 -12.280   3.238  0.00  0.00    +0.165 C 
BRANCH  14  15
ATOM     15  O   LIG    1       24.100 -12.351   1.813  0.00  0.00    -0.394 OA
ATOM     16  H   LIG    1       23.786 -11.486   1.492  0.00  0.00    +0.209 HD
ENDBRANCH  14  15
ENDBRANCH  12  14
ENDBRANCH   1  12
BRANCH   1  17
ATOM     17  O   LIG    1       26.921 -13.231   2.518  0.00  0.00    -0.382 OA
ATOM     18  H   LIG    1       27.293 -12.935   3.378  0.00  0.00    +0.210 HD
ENDBRANCH   1  17
TORSDOF 9
ENDMDL
MODEL 2
REMARK VINA RESULT:      -4.8      2.437      6.085
REMARK  Name = *****
REMARK                            x       y       z     vdW  Elec       q    Type
REMARK                         _______ _______ _______ _____ _____    ______ ____
ROOT
ATOM      1  C   LIG    1       24.292 -20.885   4.438  0.00  0.00    +0.208 C 
ENDROOT
BRANCH   1   2
ATOM      2  C   LIG    1       25.447 -19.842   4.485  0.00  0.00    +0.242 C 
ATOM      3  N   LIG    1       25.349 -18.853   3.522  0.00  0.00    -0.313 N 
ATOM      4  H   LIG    1       24.444 -18.742   3.078  0.00  0.00    +0.149 HD
ATOM      5  O   LIG    1       26.381 -19.892   5.263  0.00  0.00    -0.273 OA
BRANCH   3   6
ATOM      6  C   LIG    1       26.337 -17.790   3.438  0.00  0.00    +0.106 C 
BRANCH   6   7
ATOM      7  C   LIG    1       25.670 -16.423   3.295  0.00  0.00    +0.046 C 
BRANCH   7   8
ATOM      8  C   LIG    1       26.696 -15.296   3.301  0.00  0.00    +0.157 C 
BRANCH   8   9
ATOM      9  O   LIG    1       26.615 -14.537   2.103  0.00  0.00    -0.395 OA
ATOM     10  H   LIG    1       25.719 -14.161   2.051  0.00  0.00    +0.209 HD
ENDBRANCH   8   9
ENDBRANCH   7   8
ENDBRANCH   6   7
ENDBRANCH   3   6
ENDBRANCH   1   2
BRANCH   1  12
ATOM     11  C   LIG    1       23.438 -20.793   6.855  0.00  0.00    +0.016 C 
ATOM     12  C   LIG    1       23.083 -20.542   5.372  0.00  0.00    +0.023 C 
ATOM     13  C   LIG    1       21.877 -21.461   5.050  0.00  0.00    +0.016 C 
BRANCH  12  14
ATOM     14  C   LIG    1       22.651 -19.069   5.204  0.00  0.00    +0.165 C 
BRANCH  14  15
ATOM     15  O   LIG    1       22.242 -18.805   3.863  0.00  0.00    -0.394 OA
ATOM     16  H   LIG    1       21.869 -17.904   3.861  0.00  0.00    +0.209 HD
ENDBRANCH  14  15
ENDBRANCH  12  14
ENDBRANCH   1  12
BRANCH   1  17
ATOM     17  O   LIG    1       23.907 -21.064   3.069  0.00  0.00    -0.382 OA
ATOM     18  H   LIG    1       22.956 -21.311   3.088  0.00  0.00    +0.210 HD
ENDBRANCH   1  17
TORSDOF 9
ENDMDL
MODEL 3
REMARK VINA RESULT:      -4.7      0.926      1.660
REMARK  Name = *****
REMARK                            x       y       z     vdW  Elec       q    Type
REMARK                         _______ _______ _______ _____ _____    ______ ____
ROOT
ATOM      1  C   LIG    1       26.084 -14.107   2.868  0.00  0.00    +0.208 C 
ENDROOT
BRANCH   1   2
ATOM      2  C   LIG    1       26.604 -15.479   3.390  0.00  0.00    +0.242 C 
ATOM      3  N   LIG    1       25.799 -16.551   3.047  0.00  0.00    -0.313 N 
ATOM      4  H   LIG    1       25.133 -16.395   2.298  0.00  0.00    +0.149 HD
ATOM      5  O   LIG    1       27.602 -15.616   4.072  0.00  0.00    -0.273 OA
BRANCH   3   6
ATOM      6  C   LIG    1       26.149 -17.906   3.441  0.00  0.00    +0.106 C 
BRANCH   6   7
ATOM      7  C   LIG    1       24.907 -18.785   3.565  0.00  0.00    +0.046 C 
BRANCH   7   8
ATOM      8  C   LIG    1       25.250 -20.164   4.117  0.00  0.00    +0.157 C 
BRANCH   8   9
ATOM      9  O   LIG    1       26.594 -20.200   4.576  0.00  0.00    -0.395 OA
ATOM     10  H   LIG    1       26.711 -21.021   5.085  0.00  0.00    +0.209 HD
ENDBRANCH   8   9
ENDBRANCH   7   8
ENDBRANCH   6   7
ENDBRANCH   3   6
ENDBRANCH   1   2
BRANCH   1  12
ATOM     11  C   LIG    1       24.034 -14.545   4.347  0.00  0.00    +0.016 C 
ATOM     12  C   LIG    1       24.971 -13.464   3.762  0.00  0.00    +0.023 C 
ATOM     13  C   LIG    1       24.076 -12.524   2.914  0.00  0.00    +0.016 C 
BRANCH  12  14
ATOM     14  C   LIG    1       25.588 -12.656   4.924  0.00  0.00    +0.165 C 
BRANCH  14  15
ATOM     15  O   LIG    1       26.588 -13.416   5.602  0.00  0.00    -0.394 OA
ATOM     16  H   LIG    1       26.465 -13.246   6.554  0.00  0.00    +0.209 HD
ENDBRANCH  14  15
ENDBRANCH  12  14
ENDBRANCH   1  12
BRANCH   1  17
ATOM     17  O   LIG    1       27.212 -13.245   2.674  0.00  0.00    -0.382 OA
ATOM     18  H   LIG    1       26.942 -12.368   3.025  0.00  0.00    +0.210 HD
ENDBRANCH   1  17
TORSDOF 9
ENDMDL
MODEL 4
REMARK VINA RESULT:      -4.6      1.491      2.111
REMARK  Name = *****
REMARK                            x       y       z     vdW  Elec       q    Type
REMARK                         _______ _______ _______ _____ _____    ______ ____
ROOT
ATOM      1  C   LIG    1       27.155 -15.402   3.417  0.00  0.00    +0.208 C 
ENDROOT
BRANCH   1   2
ATOM      2  C   LIG    1       25.810 -16.180   3.517  0.00  0.00    +0.242 C 
ATOM      3  N   LIG    1       25.938 -17.546   3.335  0.00  0.00    -0.313 N 
ATOM      4  H   LIG    1       26.874 -17.928   3.424  0.00  0.00    +0.149 HD
ATOM      5  O   LIG    1       24.728 -15.654   3.699  0.00  0.00    -0.273 OA
BRANCH   3   6
ATOM      6  C   LIG    1       24.782 -18.423   3.414  0.00  0.00    +0.106 C 
BRANCH   6   7
ATOM      7  C   LIG    1       25.203 -19.880   3.596  0.00  0.00    +0.046 C 
BRANCH   7   8
ATOM      8  C   LIG    1       25.867 -20.106   4.949  0.00  0.00    +0.157 C 
BRANCH   8   9
ATOM      9  O   LIG    1       27.276 -19.961   4.846  0.00  0.00    -0.395 OA
ATOM     10  H   LIG    1       27.590 -20.586   4.170  0.00  0.00    +0.209 HD
ENDBRANCH   8   9
ENDBRANCH   7   8
ENDBRANCH   6   7
ENDBRANCH   3   6
ENDBRANCH   1   2
BRANCH   1  12
ATOM     11  C   LIG    1       28.412 -13.189   3.739  0.00  0.00    +0.016 C 
ATOM     12  C   LIG    1       27.024 -13.864   3.683  0.00  0.00    +0.023 C 
ATOM     13  C   LIG    1       26.361 -13.612   5.062  0.00  0.00    +0.016 C 
BRANCH  12  14
ATOM     14  C   LIG    1       26.178 -13.180   2.587  0.00  0.00    +0.165 C 
BRANCH  14  15
ATOM     15  O   LIG    1       24.907 -12.780   3.096  0.00  0.00    -0.394 OA
ATOM     16  H   LIG    1       24.255 -12.983   2.400  0.00  0.00    +0.209 HD
ENDBRANCH  14  15
ENDBRANCH  12  14
ENDBRANCH   1  12
BRANCH   1  17
ATOM     17  O   LIG    1       28.106 -16.039   4.278  0.00  0.00    -0.382 OA
ATOM     18  H   LIG    1       28.309 -15.385   4.983  0.00  0.00    +0.210 HD
ENDBRANCH   1  17
TORSDOF 9
ENDMDL
MODEL 5
REMARK VINA RESULT:      -4.5      4.804      6.367
REMARK  Name = *****
REMARK                            x       y       z     vdW  Elec       q    Type
REMARK                         _______ _______ _______ _____ _____    ______ ____
ROOT
ATOM      1  C   LIG    1       24.772 -20.360   4.255  0.00  0.00    +0.208 C 
ENDROOT
BRANCH   1   2
ATOM      2  C   LIG    1       25.614 -20.720   5.514  0.00  0.00    +0.242 C 
ATOM      3  N   LIG    1       26.796 -20.010   5.620  0.00  0.00    -0.313 N 
ATOM      4  H   LIG    1       26.873 -19.172   5.053  0.00  0.00    +0.149 HD
ATOM      5  O   LIG    1       25.300 -21.572   6.325  0.00  0.00    -0.273 OA
BRANCH   3   6
ATOM      6  C   LIG    1       27.693 -20.212   6.747  0.00  0.00    +0.106 C 
BRANCH   6   7
ATOM      7  C   LIG    1       29.152 -20.035   6.333  0.00  0.00    +0.046 C 
BRANCH   7   8
ATOM      8  C   LIG    1       29.475 -18.577   6.029  0.00  0.00    +0.157 C 
BRANCH   8   9
ATOM      9  O   LIG    1       28.927 -18.193   4.776  0.00  0.00    -0.395 OA
ATOM     10  H   LIG    1       29.399 -18.684   4.082  0.00  0.00    +0.209 HD
ENDBRANCH   8   9
ENDBRANCH   7   8
ENDBRANCH   6   7
ENDBRANCH   3   6
ENDBRANCH   1   2
BRANCH   1  12
ATOM     11  C   LIG    1       22.799 -18.745   3.978  0.00  0.00    +0.016 C 
ATOM     12  C   LIG    1       23.256 -20.105   4.551  0.00  0.00    +0.023 C 
ATOM     13  C   LIG    1       23.011 -20.038   6.081  0.00  0.00    +0.016 C 
BRANCH  12  14
ATOM     14  C   LIG    1       22.376 -21.223   3.950  0.00  0.00    +0.165 C 
BRANCH  14  15
ATOM     15  O   LIG    1       21.237 -21.475   4.772  0.00  0.00    -0.394 OA
ATOM     16  H   LIG    1       20.933 -22.375   4.552  0.00  0.00    +0.209 HD
ENDBRANCH  14  15
ENDBRANCH  12  14
ENDBRANCH   1  12
BRANCH   1  17
ATOM     17  O   LIG    1       25.406 -19.258   3.593  0.00  0.00    -0.382 OA
ATOM     18  H   LIG    1       25.035 -19.243   2.683  0.00  0.00    +0.210 HD
ENDBRANCH   1  17
TORSDOF 9
ENDMDL
MODEL 6
REMARK VINA RESULT:      -4.4      1.832      2.637
REMARK  Name = *****
REMARK                            x       y       z     vdW  Elec       q    Type
REMARK                         _______ _______ _______ _____ _____    ______ ____
ROOT
ATOM      1  C   LIG    1       27.147 -15.311   3.415  0.00  0.00    +0.208 C 
ENDROOT
BRANCH   1   2
ATOM      2  C   LIG    1       25.778 -16.042   3.535  0.00  0.00    +0.242 C 
ATOM      3  N   LIG    1       25.861 -17.416   3.393  0.00  0.00    -0.313 N 
ATOM      4  H   LIG    1       26.783 -17.826   3.495  0.00  0.00    +0.149 HD
ATOM      5  O   LIG    1       24.714 -15.475   3.699  0.00  0.00    -0.273 OA
BRANCH   3   6
ATOM      6  C   LIG    1       24.676 -18.252   3.494  0.00  0.00    +0.106 C 
BRANCH   6   7
ATOM      7  C   LIG    1       25.039 -19.734   3.465  0.00  0.00    +0.046 C 
BRANCH   7   8
ATOM      8  C   LIG    1       25.667 -20.184   4.779  0.00  0.00    +0.157 C 
BRANCH   8   9
ATOM      9  O   LIG    1       27.053 -19.873   4.805  0.00  0.00    -0.395 OA
ATOM     10  H   LIG    1       27.542 -20.709   4.890  0.00  0.00    +0.209 HD
ENDBRANCH   8   9
ENDBRANCH   7   8
ENDBRANCH   6   7
ENDBRANCH   3   6
ENDBRANCH   1   2
BRANCH   1  12
ATOM     11  C   LIG    1       26.401 -13.511   5.083  0.00  0.00    +0.016 C 
ATOM     12  C   LIG    1       27.082 -13.777   3.723  0.00  0.00    +0.023 C 
ATOM     13  C   LIG    1       26.223 -13.051   2.655  0.00  0.00    +0.016 C 
BRANCH  12  14
ATOM     14  C   LIG    1       28.494 -13.153   3.740  0.00  0.00    +0.165 C 
BRANCH  14  15
ATOM     15  O   LIG    1       28.693 -12.368   4.914  0.00  0.00    -0.394 OA
ATOM     16  H   LIG    1       29.265 -11.623   4.654  0.00  0.00    +0.209 HD
ENDBRANCH  14  15
ENDBRANCH  12  14
ENDBRANCH   1  12
BRANCH   1  17
ATOM     17  O   LIG    1       28.098 -16.005   4.234  0.00  0.00    -0.382 OA
ATOM     18  H   LIG    1       28.658 -15.309   4.643  0.00  0.00    +0.210 HD
ENDBRANCH   1  17
TORSDOF 9
ENDMDL
MODEL 7
REMARK VINA RESULT:      -4.1      1.728      2.103
REMARK  Name = *****
REMARK                            x       y       z     vdW  Elec       q    Type
REMARK                         _______ _______ _______ _____ _____    ______ ____
ROOT
ATOM      1  C   LIG    1       25.666 -14.815   2.814  0.00  0.00    +0.208 C 
ENDROOT
BRANCH   1   2
ATOM      2  C   LIG    1       26.238 -16.161   3.347  0.00  0.00    +0.242 C 
ATOM      3  N   LIG    1       25.357 -17.224   3.247  0.00  0.00    -0.313 N 
ATOM      4  H   LIG    1       24.569 -17.100   2.619  0.00  0.00    +0.149 HD
ATOM      5  O   LIG    1       27.340 -16.285   3.847  0.00  0.00    -0.273 OA
BRANCH   3   6
ATOM      6  C   LIG    1       25.739 -18.557   3.684  0.00  0.00    +0.106 C 
BRANCH   6   7
ATOM      7  C   LIG    1       24.634 -19.571   3.400  0.00  0.00    +0.046 C 
BRANCH   7   8
ATOM      8  C   LIG    1       23.511 -19.478   4.427  0.00  0.00    +0.157 C 
BRANCH   8   9
ATOM      9  O   LIG    1       22.735 -18.307   4.217  0.00  0.00    -0.395 OA
ATOM     10  H   LIG    1       23.067 -17.872   3.414  0.00  0.00    +0.209 HD
ENDBRANCH   8   9
ENDBRANCH   7   8
ENDBRANCH   6   7
ENDBRANCH   3   6
ENDBRANCH   1   2
BRANCH   1  12
ATOM     11  C   LIG    1       24.462 -12.608   3.322  0.00  0.00    +0.016 C 
ATOM     12  C   LIG    1       25.112 -13.869   3.933  0.00  0.00    +0.023 C 
ATOM     13  C   LIG    1       26.269 -13.370   4.836  0.00  0.00    +0.016 C 
BRANCH  12  14
ATOM     14  C   LIG    1       24.068 -14.596   4.809  0.00  0.00    +0.165 C 
BRANCH  14  15
ATOM     15  O   LIG    1       23.065 -15.214   4.005  0.00  0.00    -0.394 OA
ATOM     16  H   LIG    1       22.372 -15.521   4.618  0.00  0.00    +0.209 HD
ENDBRANCH  14  15
ENDBRANCH  12  14
ENDBRANCH   1  12
BRANCH   1  17
ATOM     17  O   LIG    1       26.669 -14.193   2.002  0.00  0.00    -0.382 OA
ATOM     18  H   LIG    1       26.184 -13.750   1.270  0.00  0.00    +0.210 HD
ENDBRANCH   1  17
TORSDOF 9
ENDMDL
MODEL 8
REMARK VINA RESULT:      -4.0      2.271      6.422
REMARK  Name = *****
REMARK                            x       y       z     vdW  Elec       q    Type
REMARK                         _______ _______ _______ _____ _____    ______ ____
ROOT
ATOM      1  C   LIG    1       23.063 -19.222   4.098  0.00  0.00    +0.208 C 
ENDROOT
BRANCH   1   2
ATOM      2  C   LIG    1       24.455 -18.683   3.657  0.00  0.00    +0.242 C 
ATOM      3  N   LIG    1       24.541 -17.302   3.636  0.00  0.00    -0.313 N 
ATOM      4  H   LIG    1       23.822 -16.797   4.144  0.00  0.00    +0.149 HD
ATOM      5  O   LIG    1       25.386 -19.391   3.321  0.00  0.00    -0.273 OA
BRANCH   3   6
ATOM      6  C   LIG    1       25.777 -16.634   3.263  0.00  0.00    +0.106 C 
BRANCH   6   7
ATOM      7  C   LIG    1       25.717 -15.141   3.577  0.00  0.00    +0.046 C 
BRANCH   7   8
ATOM      8  C   LIG    1       27.038 -14.449   3.263  0.00  0.00    +0.157 C 
BRANCH   8   9
ATOM      9  O   LIG    1       27.116 -14.119   1.883  0.00  0.00    -0.395 OA
ATOM     10  H   LIG    1       26.208 -14.007   1.554  0.00  0.00    +0.209 HD
ENDBRANCH   8   9
ENDBRANCH   7   8
ENDBRANCH   6   7
ENDBRANCH   3   6
ENDBRANCH   1   2
BRANCH   1  12
ATOM     11  C   LIG    1       21.764 -21.283   4.903  0.00  0.00    +0.016 C 
ATOM     12  C   LIG    1       23.125 -20.552   4.923  0.00  0.00    +0.023 C 
ATOM     13  C   LIG    1       23.435 -20.248   6.411  0.00  0.00    +0.016 C 
BRANCH  12  14
ATOM     14  C   LIG    1       24.210 -21.501   4.368  0.00  0.00    +0.165 C 
BRANCH  14  15
ATOM     15  O   LIG    1       25.328 -21.572   5.251  0.00  0.00    -0.394 OA
ATOM     16  H   LIG    1       25.112 -22.253   5.914  0.00  0.00    +0.209 HD
ENDBRANCH  14  15
ENDBRANCH  12  14
ENDBRANCH   1  12
BRANCH   1  17
ATOM     17  O   LIG    1       22.372 -18.170   4.785  0.00  0.00    -0.382 OA
ATOM     18  H   LIG    1       22.511 -18.340   5.743  0.00  0.00    +0.210 HD
ENDBRANCH   1  17
TORSDOF 9
ENDMDL
MODEL 9
REMARK VINA RESULT:      -3.9      2.097      3.437
REMARK  Name = *****
REMARK                            x       y       z     vdW  Elec       q    Type
REMARK                         _______ _______ _______ _____ _____    ______ ____
ROOT
ATOM      1  C   LIG    1       26.125 -13.438   3.108  0.00  0.00    +0.208 C 
ENDROOT
BRANCH   1   2
ATOM      2  C   LIG    1       24.710 -13.618   3.732  0.00  0.00    +0.242 C 
ATOM      3  N   LIG    1       24.345 -14.940   3.921  0.00  0.00    -0.313 N 
ATOM      4  H   LIG    1       25.094 -15.624   3.897  0.00  0.00    +0.149 HD
ATOM      5  O   LIG    1       23.960 -12.699   4.000  0.00  0.00    -0.273 OA
BRANCH   3   6
ATOM      6  C   LIG    1       23.061 -15.285   4.509  0.00  0.00    +0.106 C 
BRANCH   6   7
ATOM      7  C   LIG    1       22.763 -16.775   4.357  0.00  0.00    +0.046 C 
BRANCH   7   8
ATOM      8  C   LIG    1       24.005 -17.554   3.939  0.00  0.00    +0.157 C 
BRANCH   8   9
ATOM      9  O   LIG    1       23.665 -18.888   3.587  0.00  0.00    -0.395 OA
ATOM     10  H   LIG    1       23.244 -19.299   4.361  0.00  0.00    +0.209 HD
ENDBRANCH   8   9
ENDBRANCH   7   8
ENDBRANCH   6   7
ENDBRANCH   3   6
ENDBRANCH   1   2
BRANCH   1  12
ATOM     11  C   LIG    1       27.610 -15.309   4.045  0.00  0.00    +0.016 C 
ATOM     12  C   LIG    1       27.300 -13.795   4.079  0.00  0.00    +0.023 C 
ATOM     13  C   LIG    1       26.910 -13.463   5.542  0.00  0.00    +0.016 C 
BRANCH  12  14
ATOM     14  C   LIG    1       28.581 -13.014   3.712  0.00  0.00    +0.165 C 
BRANCH  14  15
ATOM     15  O   LIG    1       29.059 -12.262   4.826  0.00  0.00    -0.394 OA
ATOM     16  H   LIG    1       29.804 -11.726   4.497  0.00  0.00    +0.209 HD
ENDBRANCH  14  15
ENDBRANCH  12  14
ENDBRANCH   1  12
BRANCH   1  17
ATOM     17  O   LIG    1       26.170 -14.176   1.880  0.00  0.00    -0.382 OA
ATOM     18  H   LIG    1       26.200 -13.504   1.165  0.00  0.00    +0.210 HD
ENDBRANCH   1  17
TORSDOF 9
ENDMDL
