MODEL 1
REMARK VINA RESULT:      -8.0      0.000      0.000
REMARK  Name = *****
REMARK                            x       y       z     vdW  Elec       q    Type
REMARK                         _______ _______ _______ _____ _____    ______ ____
ROOT
ATOM      1  C   LIG    1       26.848 -21.619   7.635  0.00  0.00    +0.245 C 
ATOM      2  N   LIG    1       26.323 -22.020   6.452  0.00  0.00    -0.307 N 
ATOM      3  H   LIG    1       26.824 -21.940   5.566  0.00  0.00    +0.149 HD
ATOM      4  O   LIG    1       26.307 -21.793   8.715  0.00  0.00    -0.270 OA
ENDROOT
BRANCH   1   9
ATOM      5  C   LIG    1       29.531 -19.126   6.662  0.00  0.00    +0.166 A 
ATOM      6  C   LIG    1       30.655 -19.567   7.413  0.00  0.00    +0.203 A 
ATOM      7  C   LIG    1       30.526 -20.702   8.237  0.00  0.00    +0.166 A 
ATOM      8  C   LIG    1       29.342 -21.444   8.206  0.00  0.00    +0.062 A 
ATOM      9  C   LIG    1       28.209 -20.963   7.547  0.00  0.00    +0.044 A 
ATOM     10  C   LIG    1       28.319 -19.793   6.793  0.00  0.00    +0.062 A 
BRANCH   5  12
ATOM     11  C   LIG    1       28.740 -17.692   4.865  0.00  0.00    +0.277 C 
ATOM     12  O   LIG    1       29.716 -18.037   5.847  0.00  0.00    -0.491 OA
ENDBRANCH   5  12
BRANCH   6  13
ATOM     13  O   LIG    1       31.774 -18.772   7.316  0.00  0.00    -0.488 OA
ATOM     14  C   LIG    1       32.056 -17.871   8.379  0.00  0.00    +0.277 C 
ENDBRANCH   6  13
BRANCH   7  15
ATOM     15  O   LIG    1       31.541 -21.069   9.087  0.00  0.00    -0.491 OA
ATOM     16  C   LIG    1       31.575 -22.455   9.451  0.00  0.00    +0.277 C 
ENDBRANCH   7  15
ENDBRANCH   1   9
BRANCH   2  17
ATOM     17  C   LIG    1       25.053 -22.700   6.373  0.00  0.00    +0.140 C 
BRANCH  17  18
ATOM     18  C   LIG    1       25.251 -24.166   6.095  0.00  0.00    -0.030 A 
ATOM     19  C   LIG    1       24.984 -24.678   4.816  0.00  0.00    +0.009 A 
ATOM     20  C   LIG    1       25.181 -26.032   4.528  0.00  0.00    +0.046 A 
ATOM     21  C   LIG    1       25.608 -26.910   5.522  0.00  0.00    +0.121 A 
ATOM     22  C   LIG    1       25.874 -26.406   6.799  0.00  0.00    +0.046 A 
ATOM     23  C   LIG    1       25.698 -25.045   7.086  0.00  0.00    +0.009 A 
BRANCH  21  24
ATOM     24  O   LIG    1       25.792 -28.260   5.361  0.00  0.00    -0.491 OA
BRANCH  24  25
ATOM     25  C   LIG    1       24.603 -29.066   5.309  0.00  0.00    +0.244 C 
BRANCH  25  26
ATOM     26  C   LIG    1       24.896 -30.445   5.934  0.00  0.00    +0.124 C 
BRANCH  26  27
ATOM     27  N   LIG    1       23.762 -31.092   6.635  0.00  0.00    -0.305 NA
ATOM     28  C   LIG    1       24.053 -31.154   8.075  0.00  0.00    +0.104 C 
ATOM     29  C   LIG    1       23.521 -32.448   6.138  0.00  0.00    +0.104 C 
ENDBRANCH  26  27
ENDBRANCH  25  26
ENDBRANCH  24  25
ENDBRANCH  21  24
ENDBRANCH  17  18
ENDBRANCH   2  17
TORSDOF 10
ENDMDL
MODEL 2
REMARK VINA RESULT:      -7.9      4.502      9.952
REMARK  Name = *****
REMARK                            x       y       z     vdW  Elec       q    Type
REMARK                         _______ _______ _______ _____ _____    ______ ____
ROOT
ATOM      1  C   LIG    1       25.140 -28.370   7.065  0.00  0.00    +0.245 C 
ATOM      2  N   LIG    1       26.056 -27.371   7.037  0.00  0.00    -0.307 N 
ATOM      3  H   LIG    1       26.834 -27.313   7.696  0.00  0.00    +0.149 HD
ATOM      4  O   LIG    1       24.260 -28.511   6.230  0.00  0.00    -0.270 OA
ENDROOT
BRANCH   1   9
ATOM      5  C   LIG    1       26.715 -30.200   9.985  0.00  0.00    +0.166 A 
ATOM      6  C   LIG    1       25.665 -31.054  10.421  0.00  0.00    +0.203 A 
ATOM      7  C   LIG    1       24.435 -31.031   9.738  0.00  0.00    +0.166 A 
ATOM      8  C   LIG    1       24.307 -30.268   8.575  0.00  0.00    +0.062 A 
ATOM      9  C   LIG    1       25.298 -29.359   8.199  0.00  0.00    +0.044 A 
ATOM     10  C   LIG    1       26.490 -29.328   8.926  0.00  0.00    +0.062 A 
BRANCH   5  12
ATOM     11  C   LIG    1       28.309 -29.248  11.555  0.00  0.00    +0.277 C 
ATOM     12  O   LIG    1       27.908 -30.284  10.660  0.00  0.00    -0.491 OA
ENDBRANCH   5  12
BRANCH   6  13
ATOM     13  O   LIG    1       25.939 -31.790  11.551  0.00  0.00    -0.488 OA
ATOM     14  C   LIG    1       25.448 -31.317  12.799  0.00  0.00    +0.277 C 
ENDBRANCH   6  13
BRANCH   7  15
ATOM     15  O   LIG    1       23.353 -31.730  10.219  0.00  0.00    -0.491 OA
ATOM     16  C   LIG    1       22.211 -30.941  10.571  0.00  0.00    +0.277 C 
ENDBRANCH   7  15
ENDBRANCH   1   9
BRANCH   2  17
ATOM     17  C   LIG    1       26.065 -26.374   5.995  0.00  0.00    +0.140 C 
BRANCH  17  18
ATOM     18  C   LIG    1       25.318 -25.142   6.432  0.00  0.00    -0.030 A 
ATOM     19  C   LIG    1       23.927 -25.067   6.254  0.00  0.00    +0.009 A 
ATOM     20  C   LIG    1       23.210 -23.942   6.670  0.00  0.00    +0.046 A 
ATOM     21  C   LIG    1       23.869 -22.853   7.236  0.00  0.00    +0.121 A 
ATOM     22  C   LIG    1       25.255 -22.922   7.414  0.00  0.00    +0.046 A 
ATOM     23  C   LIG    1       25.976 -24.056   7.017  0.00  0.00    +0.009 A 
BRANCH  21  24
ATOM     24  O   LIG    1       23.271 -21.687   7.639  0.00  0.00    -0.491 OA
BRANCH  24  25
ATOM     25  C   LIG    1       23.637 -20.497   6.920  0.00  0.00    +0.244 C 
BRANCH  25  26
ATOM     26  C   LIG    1       22.855 -20.445   5.591  0.00  0.00    +0.124 C 
BRANCH  26  27
ATOM     27  N   LIG    1       23.672 -20.273   4.367  0.00  0.00    -0.305 NA
ATOM     28  C   LIG    1       25.094 -20.427   4.707  0.00  0.00    +0.104 C 
ATOM     29  C   LIG    1       23.466 -18.956   3.759  0.00  0.00    +0.104 C 
ENDBRANCH  26  27
ENDBRANCH  25  26
ENDBRANCH  24  25
ENDBRANCH  21  24
ENDBRANCH  17  18
ENDBRANCH   2  17
TORSDOF 10
ENDMDL
MODEL 3
REMARK VINA RESULT:      -7.9      2.393      9.632
REMARK  Name = *****
REMARK                            x       y       z     vdW  Elec       q    Type
REMARK                         _______ _______ _______ _____ _____    ______ ____
ROOT
ATOM      1  C   LIG    1       25.036 -25.846   5.775  0.00  0.00    +0.245 C 
ATOM      2  N   LIG    1       24.394 -24.862   6.451  0.00  0.00    -0.307 N 
ATOM      3  H   LIG    1       24.055 -24.976   7.408  0.00  0.00    +0.149 HD
ATOM      4  O   LIG    1       25.533 -25.701   4.669  0.00  0.00    -0.270 OA
ENDROOT
BRANCH   1   9
ATOM      5  C   LIG    1       26.146 -28.396   8.349  0.00  0.00    +0.166 A 
ATOM      6  C   LIG    1       25.336 -29.523   8.041  0.00  0.00    +0.203 A 
ATOM      7  C   LIG    1       24.426 -29.442   6.970  0.00  0.00    +0.166 A 
ATOM      8  C   LIG    1       24.424 -28.307   6.154  0.00  0.00    +0.062 A 
ATOM      9  C   LIG    1       25.146 -27.166   6.508  0.00  0.00    +0.044 A 
ATOM     10  C   LIG    1       25.990 -27.224   7.618  0.00  0.00    +0.062 A 
BRANCH   5  12
ATOM     11  C   LIG    1       26.731 -28.049  10.683  0.00  0.00    +0.277 C 
ATOM     12  O   LIG    1       27.042 -28.536   9.380  0.00  0.00    -0.491 OA
ENDBRANCH   5  12
BRANCH   6  13
ATOM     13  O   LIG    1       25.472 -30.594   8.896  0.00  0.00    -0.488 OA
ATOM     14  C   LIG    1       24.487 -30.780   9.904  0.00  0.00    +0.277 C 
ENDBRANCH   6  13
BRANCH   7  15
ATOM     15  O   LIG    1       23.526 -30.453   6.736  0.00  0.00    -0.491 OA
ATOM     16  C   LIG    1       24.015 -31.553   5.960  0.00  0.00    +0.277 C 
ENDBRANCH   7  15
ENDBRANCH   1   9
BRANCH   2  17
ATOM     17  C   LIG    1       24.245 -23.536   5.906  0.00  0.00    +0.140 C 
BRANCH  17  18
ATOM     18  C   LIG    1       25.203 -22.578   6.565  0.00  0.00    -0.030 A 
ATOM     19  C   LIG    1       25.525 -21.366   5.936  0.00  0.00    +0.009 A 
ATOM     20  C   LIG    1       26.395 -20.453   6.538  0.00  0.00    +0.046 A 
ATOM     21  C   LIG    1       26.993 -20.749   7.762  0.00  0.00    +0.121 A 
ATOM     22  C   LIG    1       26.676 -21.956   8.393  0.00  0.00    +0.046 A 
ATOM     23  C   LIG    1       25.788 -22.865   7.802  0.00  0.00    +0.009 A 
BRANCH  21  24
ATOM     24  O   LIG    1       27.890 -19.947   8.420  0.00  0.00    -0.491 OA
BRANCH  24  25
ATOM     25  C   LIG    1       28.972 -19.419   7.635  0.00  0.00    +0.244 C 
BRANCH  25  26
ATOM     26  C   LIG    1       29.999 -20.538   7.366  0.00  0.00    +0.124 C 
BRANCH  26  27
ATOM     27  N   LIG    1       31.213 -20.520   8.216  0.00  0.00    -0.305 NA
ATOM     28  C   LIG    1       31.187 -21.678   9.123  0.00  0.00    +0.104 C 
ATOM     29  C   LIG    1       31.299 -19.293   9.010  0.00  0.00    +0.104 C 
ENDBRANCH  26  27
ENDBRANCH  25  26
ENDBRANCH  24  25
ENDBRANCH  21  24
ENDBRANCH  17  18
ENDBRANCH   2  17
TORSDOF 10
ENDMDL
MODEL 4
REMARK VINA RESULT:      -7.9      4.520      9.968
REMARK  Name = *****
REMARK                            x       y       z     vdW  Elec       q    Type
REMARK                         _______ _______ _______ _____ _____    ______ ____
ROOT
ATOM      1  C   LIG    1       25.177 -28.297   7.114  0.00  0.00    +0.245 C 
ATOM      2  N   LIG    1       26.072 -27.280   7.048  0.00  0.00    -0.307 N 
ATOM      3  H   LIG    1       26.862 -27.194   7.689  0.00  0.00    +0.149 HD
ATOM      4  O   LIG    1       24.283 -28.471   6.302  0.00  0.00    -0.270 OA
ENDROOT
BRANCH   1   9
ATOM      5  C   LIG    1       24.551 -31.204   9.463  0.00  0.00    +0.166 A 
ATOM      6  C   LIG    1       25.717 -31.205  10.276  0.00  0.00    +0.203 A 
ATOM      7  C   LIG    1       26.709 -30.232  10.052  0.00  0.00    +0.166 A 
ATOM      8  C   LIG    1       26.477 -29.212   9.126  0.00  0.00    +0.062 A 
ATOM      9  C   LIG    1       25.381 -29.261   8.262  0.00  0.00    +0.044 A 
ATOM     10  C   LIG    1       24.437 -30.275   8.436  0.00  0.00    +0.062 A 
BRANCH   5  12
ATOM     11  C   LIG    1       22.332 -31.768  10.283  0.00  0.00    +0.277 C 
ATOM     12  O   LIG    1       23.595 -32.150   9.742  0.00  0.00    -0.491 OA
ENDBRANCH   5  12
BRANCH   6  13
ATOM     13  O   LIG    1       25.798 -32.237  11.184  0.00  0.00    -0.488 OA
ATOM     14  C   LIG    1       25.385 -31.992  12.522  0.00  0.00    +0.277 C 
ENDBRANCH   6  13
BRANCH   7  15
ATOM     15  O   LIG    1       27.912 -30.292  10.716  0.00  0.00    -0.491 OA
ATOM     16  C   LIG    1       28.190 -29.196  11.595  0.00  0.00    +0.277 C 
ENDBRANCH   7  15
ENDBRANCH   1   9
BRANCH   2  17
ATOM     17  C   LIG    1       26.037 -26.303   5.989  0.00  0.00    +0.140 C 
BRANCH  17  18
ATOM     18  C   LIG    1       25.278 -25.076   6.422  0.00  0.00    -0.030 A 
ATOM     19  C   LIG    1       23.881 -25.033   6.286  0.00  0.00    +0.009 A 
ATOM     20  C   LIG    1       23.154 -23.914   6.700  0.00  0.00    +0.046 A 
ATOM     21  C   LIG    1       23.808 -22.798   7.221  0.00  0.00    +0.121 A 
ATOM     22  C   LIG    1       25.200 -22.836   7.357  0.00  0.00    +0.046 A 
ATOM     23  C   LIG    1       25.931 -23.964   6.962  0.00  0.00    +0.009 A 
BRANCH  21  24
ATOM     24  O   LIG    1       23.199 -21.636   7.617  0.00  0.00    -0.491 OA
BRANCH  24  25
ATOM     25  C   LIG    1       23.520 -20.455   6.863  0.00  0.00    +0.244 C 
BRANCH  25  26
ATOM     26  C   LIG    1       22.818 -20.520   5.492  0.00  0.00    +0.124 C 
BRANCH  26  27
ATOM     27  N   LIG    1       23.673 -20.245   4.314  0.00  0.00    -0.305 NA
ATOM     28  C   LIG    1       25.086 -20.392   4.695  0.00  0.00    +0.104 C 
ATOM     29  C   LIG    1       23.458 -18.893   3.792  0.00  0.00    +0.104 C 
ENDBRANCH  26  27
ENDBRANCH  25  26
ENDBRANCH  24  25
ENDBRANCH  21  24
ENDBRANCH  17  18
ENDBRANCH   2  17
TORSDOF 10
ENDMDL
MODEL 5
REMARK VINA RESULT:      -7.7      0.773      2.677
REMARK  Name = *****
REMARK                            x       y       z     vdW  Elec       q    Type
REMARK                         _______ _______ _______ _____ _____    ______ ____
ROOT
ATOM      1  C   LIG    1       26.207 -21.439   7.151  0.00  0.00    +0.245 C 
ATOM      2  N   LIG    1       25.974 -22.163   6.029  0.00  0.00    -0.307 N 
ATOM      3  H   LIG    1       26.687 -22.329   5.317  0.00  0.00    +0.149 HD
ATOM      4  O   LIG    1       25.401 -21.308   8.058  0.00  0.00    -0.270 OA
ENDROOT
BRANCH   1   9
ATOM      5  C   LIG    1       29.777 -20.869   8.290  0.00  0.00    +0.166 A 
ATOM      6  C   LIG    1       30.224 -19.843   7.413  0.00  0.00    +0.203 A 
ATOM      7  C   LIG    1       29.336 -19.331   6.448  0.00  0.00    +0.166 A 
ATOM      8  C   LIG    1       28.002 -19.747   6.450  0.00  0.00    +0.062 A 
ATOM      9  C   LIG    1       27.584 -20.818   7.242  0.00  0.00    +0.044 A 
ATOM     10  C   LIG    1       28.491 -21.377   8.145  0.00  0.00    +0.062 A 
BRANCH   5  12
ATOM     11  C   LIG    1       31.479 -22.457   8.990  0.00  0.00    +0.277 C 
ATOM     12  O   LIG    1       30.667 -21.311   9.237  0.00  0.00    -0.491 OA
ENDBRANCH   5  12
BRANCH   6  13
ATOM     13  O   LIG    1       31.548 -19.492   7.548  0.00  0.00    -0.488 OA
ATOM     14  C   LIG    1       31.864 -18.340   8.321  0.00  0.00    +0.277 C 
ENDBRANCH   6  13
BRANCH   7  15
ATOM     15  O   LIG    1       29.775 -18.448   5.490  0.00  0.00    -0.491 OA
ATOM     16  C   LIG    1       28.752 -17.709   4.812  0.00  0.00    +0.277 C 
ENDBRANCH   7  15
ENDBRANCH   1   9
BRANCH   2  17
ATOM     17  C   LIG    1       24.726 -22.852   5.813  0.00  0.00    +0.140 C 
BRANCH  17  18
ATOM     18  C   LIG    1       24.894 -24.334   6.016  0.00  0.00    -0.030 A 
ATOM     19  C   LIG    1       25.961 -24.818   6.789  0.00  0.00    +0.009 A 
ATOM     20  C   LIG    1       26.125 -26.189   7.009  0.00  0.00    +0.046 A 
ATOM     21  C   LIG    1       25.253 -27.107   6.427  0.00  0.00    +0.121 A 
ATOM     22  C   LIG    1       24.189 -26.630   5.654  0.00  0.00    +0.046 A 
ATOM     23  C   LIG    1       24.009 -25.256   5.448  0.00  0.00    +0.009 A 
BRANCH  21  24
ATOM     24  O   LIG    1       25.347 -28.470   6.541  0.00  0.00    -0.491 OA
BRANCH  24  25
ATOM     25  C   LIG    1       24.293 -29.238   5.935  0.00  0.00    +0.244 C 
BRANCH  25  26
ATOM     26  C   LIG    1       24.620 -30.740   6.062  0.00  0.00    +0.124 C 
BRANCH  26  27
ATOM     27  N   LIG    1       23.539 -31.593   6.607  0.00  0.00    -0.305 NA
ATOM     28  C   LIG    1       23.872 -31.973   7.988  0.00  0.00    +0.104 C 
ATOM     29  C   LIG    1       23.352 -32.807   5.809  0.00  0.00    +0.104 C 
ENDBRANCH  26  27
ENDBRANCH  25  26
ENDBRANCH  24  25
ENDBRANCH  21  24
ENDBRANCH  17  18
ENDBRANCH   2  17
TORSDOF 10
ENDMDL
MODEL 6
REMARK VINA RESULT:      -7.6      4.592     10.491
REMARK  Name = *****
REMARK                            x       y       z     vdW  Elec       q    Type
REMARK                         _______ _______ _______ _____ _____    ______ ____
ROOT
ATOM      1  C   LIG    1       28.805 -20.493   6.980  0.00  0.00    +0.245 C 
ATOM      2  N   LIG    1       29.518 -19.409   6.588  0.00  0.00    -0.307 N 
ATOM      3  H   LIG    1       29.109 -18.636   6.061  0.00  0.00    +0.149 HD
ATOM      4  O   LIG    1       29.249 -21.381   7.691  0.00  0.00    -0.270 OA
ENDROOT
BRANCH   1   9
ATOM      5  C   LIG    1       25.780 -19.923   4.769  0.00  0.00    +0.166 A 
ATOM      6  C   LIG    1       24.754 -20.630   5.455  0.00  0.00    +0.203 A 
ATOM      7  C   LIG    1       25.064 -21.289   6.660  0.00  0.00    +0.166 A 
ATOM      8  C   LIG    1       26.334 -21.134   7.223  0.00  0.00    +0.062 A 
ATOM      9  C   LIG    1       27.367 -20.523   6.509  0.00  0.00    +0.044 A 
ATOM     10  C   LIG    1       27.074 -19.937   5.276  0.00  0.00    +0.062 A 
BRANCH   5  12
ATOM     11  C   LIG    1       25.734 -17.887   3.441  0.00  0.00    +0.277 C 
ATOM     12  O   LIG    1       25.421 -19.267   3.618  0.00  0.00    -0.491 OA
ENDBRANCH   5  12
BRANCH   6  13
ATOM     13  O   LIG    1       23.537 -20.664   4.815  0.00  0.00    -0.488 OA
ATOM     14  C   LIG    1       22.573 -19.672   5.145  0.00  0.00    +0.277 C 
ENDBRANCH   6  13
BRANCH   7  15
ATOM     15  O   LIG    1       24.140 -22.102   7.272  0.00  0.00    -0.491 OA
ATOM     16  C   LIG    1       24.167 -23.479   6.876  0.00  0.00    +0.277 C 
ENDBRANCH   7  15
ENDBRANCH   1   9
BRANCH   2  17
ATOM     17  C   LIG    1       30.889 -19.214   6.990  0.00  0.00    +0.140 C 
BRANCH  17  18
ATOM     18  C   LIG    1       30.961 -18.425   8.271  0.00  0.00    -0.030 A 
ATOM     19  C   LIG    1       29.814 -18.274   9.065  0.00  0.00    +0.009 A 
ATOM     20  C   LIG    1       29.862 -17.564  10.268  0.00  0.00    +0.046 A 
ATOM     21  C   LIG    1       31.045 -16.955  10.683  0.00  0.00    +0.121 A 
ATOM     22  C   LIG    1       32.191 -17.101   9.894  0.00  0.00    +0.046 A 
ATOM     23  C   LIG    1       32.152 -17.830   8.697  0.00  0.00    +0.009 A 
BRANCH  21  24
ATOM     24  O   LIG    1       31.192 -16.203  11.819  0.00  0.00    -0.491 OA
BRANCH  24  25
ATOM     25  C   LIG    1       32.540 -15.892  12.212  0.00  0.00    +0.244 C 
BRANCH  25  26
ATOM     26  C   LIG    1       32.961 -16.825  13.365  0.00  0.00    +0.124 C 
BRANCH  26  27
ATOM     27  N   LIG    1       32.138 -16.745  14.595  0.00  0.00    -0.305 NA
ATOM     28  C   LIG    1       32.494 -15.528  15.339  0.00  0.00    +0.104 C 
ATOM     29  C   LIG    1       32.341 -17.911  15.459  0.00  0.00    +0.104 C 
ENDBRANCH  26  27
ENDBRANCH  25  26
ENDBRANCH  24  25
ENDBRANCH  21  24
ENDBRANCH  17  18
ENDBRANCH   2  17
TORSDOF 10
ENDMDL
MODEL 7
REMARK VINA RESULT:      -7.6      4.449     10.696
REMARK  Name = *****
REMARK                            x       y       z     vdW  Elec       q    Type
REMARK                         _______ _______ _______ _____ _____    ______ ____
ROOT
ATOM      1  C   LIG    1       25.069 -28.560   5.938  0.00  0.00    +0.245 C 
ATOM      2  N   LIG    1       25.751 -27.601   6.611  0.00  0.00    -0.307 N 
ATOM      3  H   LIG    1       26.038 -27.704   7.586  0.00  0.00    +0.149 HD
ATOM      4  O   LIG    1       24.800 -28.498   4.749  0.00  0.00    -0.270 OA
ENDROOT
BRANCH   1   9
ATOM      5  C   LIG    1       23.877 -30.620   8.888  0.00  0.00    +0.166 A 
ATOM      6  C   LIG    1       23.811 -31.932   8.345  0.00  0.00    +0.203 A 
ATOM      7  C   LIG    1       24.173 -32.137   7.000  0.00  0.00    +0.166 A 
ATOM      8  C   LIG    1       24.707 -31.077   6.262  0.00  0.00    +0.062 A 
ATOM      9  C   LIG    1       24.685 -29.772   6.758  0.00  0.00    +0.044 A 
ATOM     10  C   LIG    1       24.251 -29.561   8.068  0.00  0.00    +0.062 A 
BRANCH   5  12
ATOM     11  C   LIG    1       24.415 -29.777  11.104  0.00  0.00    +0.277 C 
ATOM     12  O   LIG    1       23.548 -30.475  10.213  0.00  0.00    -0.491 OA
ENDBRANCH   5  12
BRANCH   6  13
ATOM     13  O   LIG    1       23.312 -32.893   9.195  0.00  0.00    -0.488 OA
ATOM     14  C   LIG    1       21.990 -33.368   8.974  0.00  0.00    +0.277 C 
ENDBRANCH   6  13
BRANCH   7  15
ATOM     15  O   LIG    1       23.982 -33.359   6.401  0.00  0.00    -0.491 OA
ATOM     16  C   LIG    1       23.069 -33.373   5.297  0.00  0.00    +0.277 C 
ENDBRANCH   7  15
ENDBRANCH   1   9
BRANCH   2  17
ATOM     17  C   LIG    1       26.224 -26.404   5.960  0.00  0.00    +0.140 C 
BRANCH  17  18
ATOM     18  C   LIG    1       25.417 -25.209   6.392  0.00  0.00    -0.030 A 
ATOM     19  C   LIG    1       24.021 -25.217   6.247  0.00  0.00    +0.009 A 
ATOM     20  C   LIG    1       23.249 -24.127   6.661  0.00  0.00    +0.046 A 
ATOM     21  C   LIG    1       23.857 -22.991   7.190  0.00  0.00    +0.121 A 
ATOM     22  C   LIG    1       25.249 -22.977   7.336  0.00  0.00    +0.046 A 
ATOM     23  C   LIG    1       26.024 -24.075   6.942  0.00  0.00    +0.009 A 
BRANCH  21  24
ATOM     24  O   LIG    1       23.202 -21.854   7.587  0.00  0.00    -0.491 OA
BRANCH  24  25
ATOM     25  C   LIG    1       23.561 -20.638   6.909  0.00  0.00    +0.244 C 
BRANCH  25  26
ATOM     26  C   LIG    1       22.798 -20.557   5.571  0.00  0.00    +0.124 C 
BRANCH  26  27
ATOM     27  N   LIG    1       23.620 -20.265   4.374  0.00  0.00    -0.305 NA
ATOM     28  C   LIG    1       25.041 -20.442   4.707  0.00  0.00    +0.104 C 
ATOM     29  C   LIG    1       23.408 -18.899   3.891  0.00  0.00    +0.104 C 
ENDBRANCH  26  27
ENDBRANCH  25  26
ENDBRANCH  24  25
ENDBRANCH  21  24
ENDBRANCH  17  18
ENDBRANCH   2  17
TORSDOF 10
ENDMDL
MODEL 8
REMARK VINA RESULT:      -7.5      4.462     10.678
REMARK  Name = *****
REMARK                            x       y       z     vdW  Elec       q    Type
REMARK                         _______ _______ _______ _____ _____    ______ ____
ROOT
ATOM      1  C   LIG    1       24.977 -28.543   6.027  0.00  0.00    +0.245 C 
ATOM      2  N   LIG    1       25.712 -27.631   6.711  0.00  0.00    -0.307 N 
ATOM      3  H   LIG    1       25.996 -27.764   7.683  0.00  0.00    +0.149 HD
ATOM      4  O   LIG    1       24.709 -28.450   4.840  0.00  0.00    -0.270 OA
ENDROOT
BRANCH   1   9
ATOM      5  C   LIG    1       23.696 -32.027   6.791  0.00  0.00    +0.166 A 
ATOM      6  C   LIG    1       23.803 -32.095   8.207  0.00  0.00    +0.203 A 
ATOM      7  C   LIG    1       24.292 -30.979   8.912  0.00  0.00    +0.166 A 
ATOM      8  C   LIG    1       24.543 -29.787   8.226  0.00  0.00    +0.062 A 
ATOM      9  C   LIG    1       24.530 -29.744   6.831  0.00  0.00    +0.044 A 
ATOM     10  C   LIG    1       24.119 -30.879   6.130  0.00  0.00    +0.062 A 
BRANCH   5  12
ATOM     11  C   LIG    1       23.663 -33.509   4.864  0.00  0.00    +0.277 C 
ATOM     12  O   LIG    1       23.182 -33.127   6.151  0.00  0.00    -0.491 OA
ENDBRANCH   5  12
BRANCH   6  13
ATOM     13  O   LIG    1       23.479 -33.312   8.762  0.00  0.00    -0.488 OA
ATOM     14  C   LIG    1       22.243 -33.429   9.456  0.00  0.00    +0.277 C 
ENDBRANCH   6  13
BRANCH   7  15
ATOM     15  O   LIG    1       24.549 -31.058  10.260  0.00  0.00    -0.491 OA
ATOM     16  C   LIG    1       24.187 -29.906  11.030  0.00  0.00    +0.277 C 
ENDBRANCH   7  15
ENDBRANCH   1   9
BRANCH   2  17
ATOM     17  C   LIG    1       26.248 -26.453   6.075  0.00  0.00    +0.140 C 
BRANCH  17  18
ATOM     18  C   LIG    1       25.435 -25.238   6.436  0.00  0.00    -0.030 A 
ATOM     19  C   LIG    1       26.075 -24.087   6.921  0.00  0.00    +0.009 A 
ATOM     20  C   LIG    1       25.344 -22.940   7.243  0.00  0.00    +0.046 A 
ATOM     21  C   LIG    1       23.955 -22.932   7.126  0.00  0.00    +0.121 A 
ATOM     22  C   LIG    1       23.312 -24.077   6.644  0.00  0.00    +0.046 A 
ATOM     23  C   LIG    1       24.044 -25.222   6.301  0.00  0.00    +0.009 A 
BRANCH  21  24
ATOM     24  O   LIG    1       23.139 -21.879   7.452  0.00  0.00    -0.491 OA
BRANCH  24  25
ATOM     25  C   LIG    1       23.313 -20.673   6.691  0.00  0.00    +0.244 C 
BRANCH  25  26
ATOM     26  C   LIG    1       22.812 -20.904   5.251  0.00  0.00    +0.124 C 
BRANCH  26  27
ATOM     27  N   LIG    1       23.634 -20.301   4.176  0.00  0.00    -0.305 NA
ATOM     28  C   LIG    1       25.054 -20.367   4.555  0.00  0.00    +0.104 C 
ATOM     29  C   LIG    1       23.270 -18.903   3.934  0.00  0.00    +0.104 C 
ENDBRANCH  26  27
ENDBRANCH  25  26
ENDBRANCH  24  25
ENDBRANCH  21  24
ENDBRANCH  17  18
ENDBRANCH   2  17
TORSDOF 10
ENDMDL
MODEL 9
REMARK VINA RESULT:      -7.4      2.557      9.831
REMARK  Name = *****
REMARK                            x       y       z     vdW  Elec       q    Type
REMARK                         _______ _______ _______ _____ _____    ______ ____
ROOT
ATOM      1  C   LIG    1       25.210 -26.301   5.897  0.00  0.00    +0.245 C 
ATOM      2  N   LIG    1       24.428 -25.279   6.323  0.00  0.00    -0.307 N 
ATOM      3  H   LIG    1       23.967 -25.275   7.235  0.00  0.00    +0.149 HD
ATOM      4  O   LIG    1       25.845 -26.284   4.855  0.00  0.00    -0.270 OA
ENDROOT
BRANCH   1   9
ATOM      5  C   LIG    1       24.546 -29.743   7.337  0.00  0.00    +0.166 A 
ATOM      6  C   LIG    1       25.457 -29.807   8.427  0.00  0.00    +0.203 A 
ATOM      7  C   LIG    1       26.287 -28.701   8.692  0.00  0.00    +0.166 A 
ATOM      8  C   LIG    1       26.114 -27.520   7.964  0.00  0.00    +0.062 A 
ATOM      9  C   LIG    1       25.292 -27.485   6.836  0.00  0.00    +0.044 A 
ATOM     10  C   LIG    1       24.527 -28.612   6.529  0.00  0.00    +0.062 A 
BRANCH   5  12
ATOM     11  C   LIG    1       24.012 -31.766   6.098  0.00  0.00    +0.277 C 
ATOM     12  O   LIG    1       23.734 -30.832   7.140  0.00  0.00    -0.491 OA
ENDBRANCH   5  12
BRANCH   6  13
ATOM     13  O   LIG    1       25.493 -31.011   9.092  0.00  0.00    -0.488 OA
ATOM     14  C   LIG    1       26.596 -31.878   8.857  0.00  0.00    +0.277 C 
ENDBRANCH   6  13
BRANCH   7  15
ATOM     15  O   LIG    1       27.280 -28.780   9.639  0.00  0.00    -0.491 OA
ATOM     16  C   LIG    1       26.934 -28.294  10.942  0.00  0.00    +0.277 C 
ENDBRANCH   7  15
ENDBRANCH   1   9
BRANCH   2  17
ATOM     17  C   LIG    1       24.281 -24.064   5.562  0.00  0.00    +0.140 C 
BRANCH  17  18
ATOM     18  C   LIG    1       25.144 -22.970   6.134  0.00  0.00    -0.030 A 
ATOM     19  C   LIG    1       25.962 -23.232   7.244  0.00  0.00    +0.009 A 
ATOM     20  C   LIG    1       26.787 -22.239   7.778  0.00  0.00    +0.046 A 
ATOM     21  C   LIG    1       26.783 -20.952   7.242  0.00  0.00    +0.121 A 
ATOM     22  C   LIG    1       25.969 -20.686   6.136  0.00  0.00    +0.046 A 
ATOM     23  C   LIG    1       25.156 -21.684   5.584  0.00  0.00    +0.009 A 
BRANCH  21  24
ATOM     24  O   LIG    1       27.519 -19.895   7.713  0.00  0.00    -0.491 OA
BRANCH  24  25
ATOM     25  C   LIG    1       28.945 -19.991   7.566  0.00  0.00    +0.244 C 
BRANCH  25  26
ATOM     26  C   LIG    1       29.615 -18.843   8.347  0.00  0.00    +0.124 C 
BRANCH  26  27
ATOM     27  N   LIG    1       30.751 -19.229   9.217  0.00  0.00    -0.305 NA
ATOM     28  C   LIG    1       31.852 -18.272   9.030  0.00  0.00    +0.104 C 
ATOM     29  C   LIG    1       31.234 -20.577   8.911  0.00  0.00    +0.104 C 
ENDBRANCH  26  27
ENDBRANCH  25  26
ENDBRANCH  24  25
ENDBRANCH  21  24
ENDBRANCH  17  18
ENDBRANCH   2  17
TORSDOF 10
ENDMDL
