MODEL 1
REMARK VINA RESULT:      -6.1      0.000      0.000
REMARK  Name = *****
REMARK                            x       y       z     vdW  Elec       q    Type
REMARK                         _______ _______ _______ _____ _____    ______ ____
ROOT
ATOM      1  C   LIG    1       25.489 -32.933   9.948  0.00  0.00    +0.132 C 
ATOM      2  C   LIG    1       25.389 -31.493  10.560  0.00  0.00    +0.011 C 
ATOM      3  C   LIG    1       25.363 -31.710  12.117  0.00  0.00    +0.015 C 
ATOM      4  C   LIG    1       24.045 -30.945   9.970  0.00  0.00    +0.002 C 
ATOM      5  C   LIG    1       24.109 -30.095   8.651  0.00  0.00    +0.000 C 
ATOM      6  C   LIG    1       25.184 -28.986   8.724  0.00  0.00    +0.018 C 
ATOM      7  C   LIG    1       26.548 -29.586   9.126  0.00  0.00    +0.009 C 
ATOM      8  C   LIG    1       25.335 -28.230   7.388  0.00  0.00    -0.066 C 
ATOM      9  C   LIG    1       26.078 -26.903   7.462  0.00  0.00    +0.038 C 
ATOM     10  C   LIG    1       26.128 -26.142   6.141  0.00  0.00    +0.079 C 
ATOM     11  C   LIG    1       26.362 -27.152   5.056  0.00  0.00    +0.138 C 
ATOM     12  O   LIG    1       27.402 -27.203   4.404  0.00  0.00    -0.297 OA
ATOM     13  C   LIG    1       25.219 -28.117   4.863  0.00  0.00    +0.105 C 
ATOM     14  C   LIG    1       24.891 -28.728   6.206  0.00  0.00    -0.063 C 
ATOM     15  C   LIG    1       24.121 -30.011   6.103  0.00  0.00    +0.031 C 
ATOM     16  C   LIG    1       24.318 -30.867   7.336  0.00  0.00    +0.009 C 
ATOM     17  C   LIG    1       23.135 -32.170   9.785  0.00  0.00    +0.008 C 
ATOM     18  C   LIG    1       26.525 -30.459  10.377  0.00  0.00    +0.011 C 
ATOM     19  C   LIG    1       24.015 -33.396  10.020  0.00  0.00    +0.049 C 
ENDROOT
BRANCH   1  21
ATOM     20  C   LIG    1       26.782 -33.090   7.631  0.00  0.00    +0.007 C 
ATOM     21  C   LIG    1       26.124 -32.987   8.618  0.00  0.00    -0.070 C 
ENDBRANCH   1  21
BRANCH   1  22
ATOM     22  O   LIG    1       26.261 -33.825  10.752  0.00  0.00    -0.376 OA
ATOM     23  H   LIG    1       26.311 -33.425  11.640  0.00  0.00    +0.211 HD
ENDBRANCH   1  22
TORSDOF 2
ENDMDL
MODEL 2
REMARK VINA RESULT:      -5.6      2.984      5.181
REMARK  Name = *****
REMARK                            x       y       z     vdW  Elec       q    Type
REMARK                         _______ _______ _______ _____ _____    ______ ____
ROOT
ATOM      1  C   LIG    1       25.499 -31.377   7.224  0.00  0.00    +0.132 C 
ATOM      2  C   LIG    1       26.204 -31.717   8.583  0.00  0.00    +0.011 C 
ATOM      3  C   LIG    1       27.420 -32.637   8.196  0.00  0.00    +0.015 C 
ATOM      4  C   LIG    1       25.083 -32.451   9.395  0.00  0.00    +0.002 C 
ATOM      5  C   LIG    1       24.196 -31.597  10.370  0.00  0.00    +0.000 C 
ATOM      6  C   LIG    1       25.048 -30.688  11.285  0.00  0.00    +0.018 C 
ATOM      7  C   LIG    1       26.018 -29.833  10.441  0.00  0.00    +0.009 C 
ATOM      8  C   LIG    1       24.180 -29.758  12.157  0.00  0.00    -0.066 C 
ATOM      9  C   LIG    1       24.889 -29.107  13.337  0.00  0.00    +0.038 C 
ATOM     10  C   LIG    1       23.977 -28.268  14.227  0.00  0.00    +0.079 C 
ATOM     11  C   LIG    1       23.039 -27.523  13.323  0.00  0.00    +0.138 C 
ATOM     12  O   LIG    1       23.070 -26.302  13.188  0.00  0.00    -0.297 OA
ATOM     13  C   LIG    1       22.078 -28.412  12.574  0.00  0.00    +0.105 C 
ATOM     14  C   LIG    1       22.882 -29.482  11.871  0.00  0.00    -0.063 C 
ATOM     15  C   LIG    1       22.141 -30.135  10.741  0.00  0.00    +0.031 C 
ATOM     16  C   LIG    1       23.100 -30.727   9.730  0.00  0.00    +0.009 C 
ATOM     17  C   LIG    1       24.209 -33.169   8.353  0.00  0.00    +0.008 C 
ATOM     18  C   LIG    1       26.867 -30.617   9.444  0.00  0.00    +0.011 C 
ATOM     19  C   LIG    1       24.663 -32.658   6.988  0.00  0.00    +0.049 C 
ENDROOT
BRANCH   1  21
ATOM     20  C   LIG    1       24.295 -29.011   7.139  0.00  0.00    +0.007 C 
ATOM     21  C   LIG    1       24.755 -30.104   7.226  0.00  0.00    -0.070 C 
ENDBRANCH   1  21
BRANCH   1  22
ATOM     22  O   LIG    1       26.418 -31.256   6.138  0.00  0.00    -0.376 OA
ATOM     23  H   LIG    1       26.620 -32.163   5.844  0.00  0.00    +0.211 HD
ENDBRANCH   1  22
TORSDOF 2
ENDMDL
MODEL 3
REMARK VINA RESULT:      -5.5      2.367      4.133
REMARK  Name = *****
REMARK                            x       y       z     vdW  Elec       q    Type
REMARK                         _______ _______ _______ _____ _____    ______ ____
ROOT
ATOM      1  C   LIG    1       24.046 -30.093  13.593  0.00  0.00    +0.132 C 
ATOM      2  C   LIG    1       23.862 -31.168  12.466  0.00  0.00    +0.011 C 
ATOM      3  C   LIG    1       23.329 -32.449  13.206  0.00  0.00    +0.015 C 
ATOM      4  C   LIG    1       25.307 -31.324  11.881  0.00  0.00    +0.002 C 
ATOM      5  C   LIG    1       25.695 -30.460  10.628  0.00  0.00    +0.000 C 
ATOM      6  C   LIG    1       24.626 -30.537   9.515  0.00  0.00    +0.018 C 
ATOM      7  C   LIG    1       23.232 -30.192  10.082  0.00  0.00    +0.009 C 
ATOM      8  C   LIG    1       24.942 -29.594   8.335  0.00  0.00    -0.066 C 
ATOM      9  C   LIG    1       24.173 -29.866   7.049  0.00  0.00    +0.038 C 
ATOM     10  C   LIG    1       24.577 -28.974   5.880  0.00  0.00    +0.079 C 
ATOM     11  C   LIG    1       24.791 -27.593   6.430  0.00  0.00    +0.138 C 
ATOM     12  O   LIG    1       24.062 -26.644   6.155  0.00  0.00    -0.297 OA
ATOM     13  C   LIG    1       25.962 -27.487   7.375  0.00  0.00    +0.105 C 
ATOM     14  C   LIG    1       25.803 -28.550   8.438  0.00  0.00    -0.063 C 
ATOM     15  C   LIG    1       26.606 -28.278   9.676  0.00  0.00    +0.031 C 
ATOM     16  C   LIG    1       26.007 -28.973  10.879  0.00  0.00    +0.009 C 
ATOM     17  C   LIG    1       26.268 -31.051  13.050  0.00  0.00    +0.008 C 
ATOM     18  C   LIG    1       22.832 -30.975  11.329  0.00  0.00    +0.011 C 
ATOM     19  C   LIG    1       25.410 -30.511  14.192  0.00  0.00    +0.049 C 
ENDROOT
BRANCH   1  21
ATOM     20  C   LIG    1       23.764 -27.543  12.902  0.00  0.00    +0.007 C 
ATOM     21  C   LIG    1       23.939 -28.697  13.126  0.00  0.00    -0.070 C 
ENDBRANCH   1  21
BRANCH   1  22
ATOM     22  O   LIG    1       23.069 -30.202  14.628  0.00  0.00    -0.376 OA
ATOM     23  H   LIG    1       23.300 -29.533  15.299  0.00  0.00    +0.211 HD
ENDBRANCH   1  22
TORSDOF 2
ENDMDL
MODEL 4
REMARK VINA RESULT:      -5.5      2.612      5.258
REMARK  Name = *****
REMARK                            x       y       z     vdW  Elec       q    Type
REMARK                         _______ _______ _______ _____ _____    ______ ____
ROOT
ATOM      1  C   LIG    1       25.663 -32.545   6.389  0.00  0.00    +0.132 C 
ATOM      2  C   LIG    1       24.203 -32.151   6.805  0.00  0.00    +0.011 C 
ATOM      3  C   LIG    1       23.279 -32.770   5.693  0.00  0.00    +0.015 C 
ATOM      4  C   LIG    1       24.240 -30.585   6.804  0.00  0.00    +0.002 C 
ATOM      5  C   LIG    1       24.544 -29.851   8.159  0.00  0.00    +0.000 C 
ATOM      6  C   LIG    1       23.678 -30.392   9.319  0.00  0.00    +0.018 C 
ATOM      7  C   LIG    1       23.808 -31.927   9.418  0.00  0.00    +0.009 C 
ATOM      8  C   LIG    1       24.059 -29.762  10.675  0.00  0.00    -0.066 C 
ATOM      9  C   LIG    1       23.041 -29.938  11.794  0.00  0.00    +0.038 C 
ATOM     10  C   LIG    1       23.410 -29.225  13.091  0.00  0.00    +0.079 C 
ATOM     11  C   LIG    1       24.886 -29.405  13.291  0.00  0.00    +0.138 C 
ATOM     12  O   LIG    1       25.359 -30.080  14.202  0.00  0.00    -0.297 OA
ATOM     13  C   LIG    1       25.733 -28.710  12.254  0.00  0.00    +0.105 C 
ATOM     14  C   LIG    1       25.245 -29.138  10.889  0.00  0.00    -0.063 C 
ATOM     15  C   LIG    1       26.253 -28.912   9.801  0.00  0.00    +0.031 C 
ATOM     16  C   LIG    1       26.009 -29.840   8.630  0.00  0.00    +0.009 C 
ATOM     17  C   LIG    1       25.265 -30.188   5.728  0.00  0.00    +0.008 C 
ATOM     18  C   LIG    1       23.568 -32.679   8.113  0.00  0.00    +0.011 C 
ATOM     19  C   LIG    1       25.970 -31.477   5.311  0.00  0.00    +0.049 C 
ENDROOT
BRANCH   1  21
ATOM     20  C   LIG    1       27.337 -32.870   8.426  0.00  0.00    +0.007 C 
ATOM     21  C   LIG    1       26.615 -32.629   7.512  0.00  0.00    -0.070 C 
ENDBRANCH   1  21
BRANCH   1  22
ATOM     22  O   LIG    1       25.734 -33.824   5.759  0.00  0.00    -0.376 OA
ATOM     23  H   LIG    1       26.100 -34.439   6.421  0.00  0.00    +0.211 HD
ENDBRANCH   1  22
TORSDOF 2
ENDMDL
MODEL 5
REMARK VINA RESULT:      -5.4      1.763      3.397
REMARK  Name = *****
REMARK                            x       y       z     vdW  Elec       q    Type
REMARK                         _______ _______ _______ _____ _____    ______ ____
ROOT
ATOM      1  C   LIG    1       24.118 -32.435   8.983  0.00  0.00    +0.132 C 
ATOM      2  C   LIG    1       24.515 -32.348   7.468  0.00  0.00    +0.011 C 
ATOM      3  C   LIG    1       24.422 -33.825   6.935  0.00  0.00    +0.015 C 
ATOM      4  C   LIG    1       25.973 -31.777   7.512  0.00  0.00    +0.002 C 
ATOM      5  C   LIG    1       26.163 -30.223   7.379  0.00  0.00    +0.000 C 
ATOM      6  C   LIG    1       25.366 -29.639   6.191  0.00  0.00    +0.018 C 
ATOM      7  C   LIG    1       23.884 -30.064   6.276  0.00  0.00    +0.009 C 
ATOM      8  C   LIG    1       25.450 -28.100   6.131  0.00  0.00    -0.066 C 
ATOM      9  C   LIG    1       25.025 -27.466   4.814  0.00  0.00    +0.038 C 
ATOM     10  C   LIG    1       25.207 -25.953   4.761  0.00  0.00    +0.079 C 
ATOM     11  C   LIG    1       24.798 -25.411   6.100  0.00  0.00    +0.138 C 
ATOM     12  O   LIG    1       23.804 -24.707   6.260  0.00  0.00    -0.297 OA
ATOM     13  C   LIG    1       25.700 -25.835   7.232  0.00  0.00    +0.105 C 
ATOM     14  C   LIG    1       25.821 -27.342   7.194  0.00  0.00    -0.063 C 
ATOM     15  C   LIG    1       26.283 -27.933   8.493  0.00  0.00    +0.031 C 
ATOM     16  C   LIG    1       25.842 -29.375   8.623  0.00  0.00    +0.009 C 
ATOM     17  C   LIG    1       26.589 -32.291   8.824  0.00  0.00    +0.008 C 
ATOM     18  C   LIG    1       23.653 -31.562   6.453  0.00  0.00    +0.011 C 
ATOM     19  C   LIG    1       25.444 -32.918   9.617  0.00  0.00    +0.049 C 
ENDROOT
BRANCH   1  21
ATOM     20  C   LIG    1       22.930 -30.250   9.918  0.00  0.00    +0.007 C 
ATOM     21  C   LIG    1       23.547 -31.192   9.535  0.00  0.00    -0.070 C 
ENDBRANCH   1  21
BRANCH   1  22
ATOM     22  O   LIG    1       23.129 -33.431   9.241  0.00  0.00    -0.376 OA
ATOM     23  H   LIG    1       22.908 -33.364  10.188  0.00  0.00    +0.211 HD
ENDBRANCH   1  22
TORSDOF 2
ENDMDL
MODEL 6
REMARK VINA RESULT:      -5.3      7.263     10.226
REMARK  Name = *****
REMARK                            x       y       z     vdW  Elec       q    Type
REMARK                         _______ _______ _______ _____ _____    ______ ____
ROOT
ATOM      1  C   LIG    1       24.617 -22.786   6.464  0.00  0.00    +0.132 C 
ATOM      2  C   LIG    1       24.550 -21.464   7.305  0.00  0.00    +0.011 C 
ATOM      3  C   LIG    1       23.024 -21.262   7.629  0.00  0.00    +0.015 C 
ATOM      4  C   LIG    1       25.142 -20.389   6.331  0.00  0.00    +0.002 C 
ATOM      5  C   LIG    1       26.675 -20.064   6.433  0.00  0.00    +0.000 C 
ATOM      6  C   LIG    1       27.120 -19.809   7.890  0.00  0.00    +0.018 C 
ATOM      7  C   LIG    1       26.687 -20.979   8.799  0.00  0.00    +0.009 C 
ATOM      8  C   LIG    1       28.646 -19.612   8.010  0.00  0.00    -0.066 C 
ATOM      9  C   LIG    1       29.132 -18.992   9.313  0.00  0.00    +0.038 C 
ATOM     10  C   LIG    1       30.634 -18.730   9.357  0.00  0.00    +0.079 C 
ATOM     11  C   LIG    1       31.308 -19.903   8.707  0.00  0.00    +0.138 C 
ATOM     12  O   LIG    1       32.011 -20.697   9.326  0.00  0.00    -0.297 OA
ATOM     13  C   LIG    1       31.017 -20.034   7.233  0.00  0.00    +0.105 C 
ATOM     14  C   LIG    1       29.517 -20.012   7.049  0.00  0.00    -0.063 C 
ATOM     15  C   LIG    1       29.071 -20.589   5.737  0.00  0.00    +0.031 C 
ATOM     16  C   LIG    1       27.645 -21.090   5.817  0.00  0.00    +0.009 C 
ATOM     17  C   LIG    1       24.777 -20.858   4.913  0.00  0.00    +0.008 C 
ATOM     18  C   LIG    1       25.213 -21.361   8.698  0.00  0.00    +0.011 C 
ATOM     19  C   LIG    1       24.221 -22.272   5.059  0.00  0.00    +0.049 C 
ENDROOT
BRANCH   1  21
ATOM     20  C   LIG    1       26.844 -24.216   6.696  0.00  0.00    +0.007 C 
ATOM     21  C   LIG    1       25.903 -23.502   6.557  0.00  0.00    -0.070 C 
ENDBRANCH   1  21
BRANCH   1  22
ATOM     22  O   LIG    1       23.640 -23.747   6.862  0.00  0.00    -0.376 OA
ATOM     23  H   LIG    1       24.104 -24.602   6.931  0.00  0.00    +0.211 HD
ENDBRANCH   1  22
TORSDOF 2
ENDMDL
MODEL 7
REMARK VINA RESULT:      -5.2      4.275      6.250
REMARK  Name = *****
REMARK                            x       y       z     vdW  Elec       q    Type
REMARK                         _______ _______ _______ _____ _____    ______ ____
ROOT
ATOM      1  C   LIG    1       20.276 -28.935  13.862  0.00  0.00    +0.132 C 
ATOM      2  C   LIG    1       20.672 -30.272  13.145  0.00  0.00    +0.011 C 
ATOM      3  C   LIG    1       19.466 -31.248  13.404  0.00  0.00    +0.015 C 
ATOM      4  C   LIG    1       21.996 -30.689  13.870  0.00  0.00    +0.002 C 
ATOM      5  C   LIG    1       23.361 -30.248  13.228  0.00  0.00    +0.000 C 
ATOM      6  C   LIG    1       23.422 -30.567  11.717  0.00  0.00    +0.018 C 
ATOM      7  C   LIG    1       22.193 -29.979  10.992  0.00  0.00    +0.009 C 
ATOM      8  C   LIG    1       24.708 -30.026  11.058  0.00  0.00    -0.066 C 
ATOM      9  C   LIG    1       25.039 -30.600   9.687  0.00  0.00    +0.038 C 
ATOM     10  C   LIG    1       26.362 -30.109   9.108  0.00  0.00    +0.079 C 
ATOM     11  C   LIG    1       26.472 -28.648   9.432  0.00  0.00    +0.138 C 
ATOM     12  O   LIG    1       26.432 -27.769   8.574  0.00  0.00    -0.297 OA
ATOM     13  C   LIG    1       26.604 -28.357  10.906  0.00  0.00    +0.105 C 
ATOM     14  C   LIG    1       25.473 -29.058  11.623  0.00  0.00    -0.063 C 
ATOM     15  C   LIG    1       25.199 -28.499  12.989  0.00  0.00    +0.031 C 
ATOM     16  C   LIG    1       23.774 -28.778  13.416  0.00  0.00    +0.009 C 
ATOM     17  C   LIG    1       21.875 -30.160  15.308  0.00  0.00    +0.008 C 
ATOM     18  C   LIG    1       20.846 -30.342  11.610  0.00  0.00    +0.011 C 
ATOM     19  C   LIG    1       20.643 -29.257  15.330  0.00  0.00    +0.049 C 
ENDROOT
BRANCH   1  21
ATOM     20  C   LIG    1       21.316 -26.666  12.953  0.00  0.00    +0.007 C 
ATOM     21  C   LIG    1       20.897 -27.728  13.285  0.00  0.00    -0.070 C 
ENDBRANCH   1  21
BRANCH   1  22
ATOM     22  O   LIG    1       18.873 -28.675  13.817  0.00  0.00    -0.376 OA
ATOM     23  H   LIG    1       18.768 -27.708  13.886  0.00  0.00    +0.211 HD
ENDBRANCH   1  22
TORSDOF 2
ENDMDL
MODEL 8
REMARK VINA RESULT:      -5.0      2.520      4.243
REMARK  Name = *****
REMARK                            x       y       z     vdW  Elec       q    Type
REMARK                         _______ _______ _______ _____ _____    ______ ____
ROOT
ATOM      1  C   LIG    1       24.151 -30.037  12.250  0.00  0.00    +0.132 C 
ATOM      2  C   LIG    1       25.471 -30.854  12.033  0.00  0.00    +0.011 C 
ATOM      3  C   LIG    1       26.041 -31.104  13.477  0.00  0.00    +0.015 C 
ATOM      4  C   LIG    1       26.347 -29.894  11.158  0.00  0.00    +0.002 C 
ATOM      5  C   LIG    1       26.297 -30.062   9.597  0.00  0.00    +0.000 C 
ATOM      6  C   LIG    1       26.475 -31.536   9.166  0.00  0.00    +0.018 C 
ATOM      7  C   LIG    1       25.467 -32.440   9.906  0.00  0.00    +0.009 C 
ATOM      8  C   LIG    1       26.303 -31.724   7.644  0.00  0.00    -0.066 C 
ATOM      9  C   LIG    1       26.821 -33.039   7.078  0.00  0.00    +0.038 C 
ATOM     10  C   LIG    1       26.716 -33.150   5.561  0.00  0.00    +0.079 C 
ATOM     11  C   LIG    1       25.399 -32.549   5.163  0.00  0.00    +0.138 C 
ATOM     12  O   LIG    1       24.475 -33.212   4.698  0.00  0.00    -0.297 OA
ATOM     13  C   LIG    1       25.304 -31.065   5.414  0.00  0.00    +0.105 C 
ATOM     14  C   LIG    1       25.681 -30.810   6.856  0.00  0.00    -0.063 C 
ATOM     15  C   LIG    1       25.195 -29.488   7.372  0.00  0.00    +0.031 C 
ATOM     16  C   LIG    1       25.053 -29.509   8.879  0.00  0.00    +0.009 C 
ATOM     17  C   LIG    1       25.944 -28.467  11.566  0.00  0.00    +0.008 C 
ATOM     18  C   LIG    1       25.447 -32.276  11.423  0.00  0.00    +0.011 C 
ATOM     19  C   LIG    1       24.708 -28.608  12.452  0.00  0.00    +0.049 C 
ENDROOT
BRANCH   1  21
ATOM     20  C   LIG    1       22.251 -30.432  10.435  0.00  0.00    +0.007 C 
ATOM     21  C   LIG    1       23.149 -30.201  11.180  0.00  0.00    -0.070 C 
ENDBRANCH   1  21
BRANCH   1  22
ATOM     22  O   LIG    1       23.462 -30.403  13.446  0.00  0.00    -0.376 OA
ATOM     23  H   LIG    1       22.576 -30.000  13.390  0.00  0.00    +0.211 HD
ENDBRANCH   1  22
TORSDOF 2
ENDMDL
MODEL 9
REMARK VINA RESULT:      -5.0      3.307      5.030
REMARK  Name = *****
REMARK                            x       y       z     vdW  Elec       q    Type
REMARK                         _______ _______ _______ _____ _____    ______ ____
ROOT
ATOM      1  C   LIG    1       25.164 -31.650   8.174  0.00  0.00    +0.132 C 
ATOM      2  C   LIG    1       26.269 -31.872   9.264  0.00  0.00    +0.011 C 
ATOM      3  C   LIG    1       27.088 -33.121   8.769  0.00  0.00    +0.015 C 
ATOM      4  C   LIG    1       25.439 -32.131  10.568  0.00  0.00    +0.002 C 
ATOM      5  C   LIG    1       25.133 -30.907  11.504  0.00  0.00    +0.000 C 
ATOM      6  C   LIG    1       26.399 -30.070  11.799  0.00  0.00    +0.018 C 
ATOM      7  C   LIG    1       27.097 -29.667  10.482  0.00  0.00    +0.009 C 
ATOM      8  C   LIG    1       26.082 -28.800  12.615  0.00  0.00    -0.066 C 
ATOM      9  C   LIG    1       27.278 -28.120  13.269  0.00  0.00    +0.038 C 
ATOM     10  C   LIG    1       26.914 -26.922  14.140  0.00  0.00    +0.079 C 
ATOM     11  C   LIG    1       25.832 -26.166  13.426  0.00  0.00    +0.138 C 
ATOM     12  O   LIG    1       25.999 -25.044  12.957  0.00  0.00    -0.297 OA
ATOM     13  C   LIG    1       24.533 -26.924  13.310  0.00  0.00    +0.105 C 
ATOM     14  C   LIG    1       24.833 -28.277  12.707  0.00  0.00    -0.063 C 
ATOM     15  C   LIG    1       23.627 -28.942  12.110  0.00  0.00    +0.031 C 
ATOM     16  C   LIG    1       24.026 -29.941  11.045  0.00  0.00    +0.009 C 
ATOM     17  C   LIG    1       24.136 -32.807  10.111  0.00  0.00    +0.008 C 
ATOM     18  C   LIG    1       27.371 -30.819   9.520  0.00  0.00    +0.011 C 
ATOM     19  C   LIG    1       24.112 -32.707   8.588  0.00  0.00    +0.049 C 
ENDROOT
BRANCH   1  21
ATOM     20  C   LIG    1       24.277 -29.172   7.808  0.00  0.00    +0.007 C 
ATOM     21  C   LIG    1       24.684 -30.260   8.068  0.00  0.00    -0.070 C 
ENDBRANCH   1  21
BRANCH   1  22
ATOM     22  O   LIG    1       25.609 -31.979   6.858  0.00  0.00    -0.376 OA
ATOM     23  H   LIG    1       26.570 -31.818   6.842  0.00  0.00    +0.211 HD
ENDBRANCH   1  22
TORSDOF 2
ENDMDL
