MODEL 1
REMARK VINA RESULT:      -5.2      0.000      0.000
REMARK  Name = *****
REMARK                            x       y       z     vdW  Elec       q    Type
REMARK                         _______ _______ _______ _____ _____    ______ ____
ROOT
ATOM      1  C   LIG    1       25.547 -18.264   3.750  0.00  0.00    +0.005 C 
ATOM      2  C   LIG    1       24.738 -19.014   2.965  0.00  0.00    -0.001 C 
ENDROOT
BRANCH   1   7
ATOM      3  C   LIG    1       29.475 -20.992   7.062  0.00  0.00    +0.044 C 
ATOM      4  C   LIG    1       28.457 -20.262   6.233  0.00  0.00    -0.050 A 
ATOM      5  C   LIG    1       28.822 -19.165   5.443  0.00  0.00    +0.004 A 
ATOM      6  C   LIG    1       27.871 -18.500   4.660  0.00  0.00    +0.009 A 
ATOM      7  C   LIG    1       26.540 -18.932   4.633  0.00  0.00    -0.016 A 
ATOM      8  C   LIG    1       26.172 -20.025   5.433  0.00  0.00    +0.009 A 
ATOM      9  C   LIG    1       27.122 -20.682   6.225  0.00  0.00    +0.004 A 
ENDBRANCH   1   7
BRANCH   1  10
ATOM     10  C   LIG    1       25.377 -16.774   3.672  0.00  0.00    +0.072 A 
ATOM     11  N   LIG    1       26.434 -16.040   3.206  0.00  0.00    -0.247 NA
ATOM     12  C   LIG    1       26.333 -14.690   3.232  0.00  0.00    +0.065 A 
ATOM     13  C   LIG    1       25.171 -14.032   3.607  0.00  0.00    +0.028 A 
ATOM     14  C   LIG    1       24.079 -14.785   4.017  0.00  0.00    +0.004 A 
ATOM     15  C   LIG    1       24.186 -16.172   4.070  0.00  0.00    +0.028 A 
BRANCH  12  16
ATOM     16  C   LIG    1       27.536 -13.913   2.913  0.00  0.00    +0.035 C 
ATOM     17  C   LIG    1       28.292 -13.108   3.675  0.00  0.00    +0.093 C 
BRANCH  17  18
ATOM     18  C   LIG    1       28.270 -12.769   5.113  0.00  0.00    +0.330 C 
ATOM     19  O   LIG    1       27.449 -13.267   5.858  0.00  0.00    -0.246 OA
BRANCH  18  20
ATOM     20  O   LIG    1       29.082 -11.759   5.477  0.00  0.00    -0.477 OA
ATOM     21  H   LIG    1       29.975 -12.075   5.731  0.00  0.00    +0.295 HD
ENDBRANCH  18  20
ENDBRANCH  17  18
ENDBRANCH  12  16
ENDBRANCH   1  10
BRANCH   2  22
ATOM     22  C   LIG    1       24.591 -20.510   2.890  0.00  0.00    +0.112 C 
BRANCH  22  23
ATOM     23  N   LIG    1       23.505 -20.977   3.758  0.00  0.00    -0.299 NA
ATOM     24  C   LIG    1       23.992 -21.472   5.045  0.00  0.00    +0.085 C 
ATOM     25  C   LIG    1       22.715 -21.572   5.860  0.00  0.00    +0.017 C 
ATOM     26  C   LIG    1       21.869 -20.403   5.378  0.00  0.00    +0.017 C 
ATOM     27  C   LIG    1       22.524 -19.935   4.084  0.00  0.00    +0.085 C 
ENDBRANCH  22  23
ENDBRANCH   2  22
TORSDOF 7
ENDMDL
MODEL 2
REMARK VINA RESULT:      -4.4      1.632      2.416
REMARK  Name = *****
REMARK                            x       y       z     vdW  Elec       q    Type
REMARK                         _______ _______ _______ _____ _____    ______ ____
ROOT
ATOM      1  C   LIG    1       26.283 -17.652   3.703  0.00  0.00    +0.005 C 
ATOM      2  C   LIG    1       25.340 -18.201   2.903  0.00  0.00    -0.001 C 
ENDROOT
BRANCH   1   7
ATOM      3  C   LIG    1       29.474 -21.170   7.062  0.00  0.00    +0.044 C 
ATOM      4  C   LIG    1       28.645 -20.240   6.223  0.00  0.00    -0.050 A 
ATOM      5  C   LIG    1       29.206 -19.093   5.650  0.00  0.00    +0.004 A 
ATOM      6  C   LIG    1       28.431 -18.239   4.855  0.00  0.00    +0.009 A 
ATOM      7  C   LIG    1       27.085 -18.527   4.600  0.00  0.00    -0.016 A 
ATOM      8  C   LIG    1       26.521 -19.671   5.184  0.00  0.00    +0.009 A 
ATOM      9  C   LIG    1       27.294 -20.518   5.988  0.00  0.00    +0.004 A 
ENDBRANCH   1   7
BRANCH   1  10
ATOM     10  C   LIG    1       26.455 -16.163   3.626  0.00  0.00    +0.072 A 
ATOM     11  N   LIG    1       25.324 -15.401   3.504  0.00  0.00    -0.247 NA
ATOM     12  C   LIG    1       25.471 -14.066   3.327  0.00  0.00    +0.065 A 
ATOM     13  C   LIG    1       26.705 -13.435   3.372  0.00  0.00    +0.028 A 
ATOM     14  C   LIG    1       27.844 -14.207   3.561  0.00  0.00    +0.004 A 
ATOM     15  C   LIG    1       27.723 -15.590   3.671  0.00  0.00    +0.028 A 
BRANCH  12  16
ATOM     16  C   LIG    1       24.269 -13.288   3.006  0.00  0.00    +0.035 C 
ATOM     17  C   LIG    1       23.603 -12.364   3.715  0.00  0.00    +0.093 C 
BRANCH  17  18
ATOM     18  C   LIG    1       23.859 -11.716   5.018  0.00  0.00    +0.330 C 
ATOM     19  O   LIG    1       24.993 -11.569   5.429  0.00  0.00    -0.246 OA
BRANCH  18  20
ATOM     20  O   LIG    1       22.766 -11.484   5.768  0.00  0.00    -0.477 OA
ATOM     21  H   LIG    1       22.269 -12.307   5.963  0.00  0.00    +0.295 HD
ENDBRANCH  18  20
ENDBRANCH  17  18
ENDBRANCH  12  16
ENDBRANCH   1  10
BRANCH   2  22
ATOM     22  C   LIG    1       24.860 -19.626   2.821  0.00  0.00    +0.112 C 
BRANCH  22  23
ATOM     23  N   LIG    1       23.510 -19.760   3.377  0.00  0.00    -0.299 NA
ATOM     24  C   LIG    1       23.422 -20.819   4.382  0.00  0.00    +0.085 C 
ATOM     25  C   LIG    1       22.075 -20.545   5.027  0.00  0.00    +0.017 C 
ATOM     26  C   LIG    1       21.951 -19.030   5.010  0.00  0.00    +0.017 C 
ATOM     27  C   LIG    1       23.025 -18.545   4.043  0.00  0.00    +0.085 C 
ENDBRANCH  22  23
ENDBRANCH   2  22
TORSDOF 7
ENDMDL
MODEL 3
REMARK VINA RESULT:      -3.9      1.301      3.990
REMARK  Name = *****
REMARK                            x       y       z     vdW  Elec       q    Type
REMARK                         _______ _______ _______ _____ _____    ______ ____
ROOT
ATOM      1  C   LIG    1       25.154 -17.582   3.914  0.00  0.00    +0.005 C 
ATOM      2  C   LIG    1       26.450 -17.972   3.949  0.00  0.00    -0.001 C 
ENDROOT
BRANCH   1   7
ATOM      3  C   LIG    1       20.960 -21.522   4.766  0.00  0.00    +0.044 C 
ATOM      4  C   LIG    1       22.035 -20.505   4.510  0.00  0.00    -0.050 A 
ATOM      5  C   LIG    1       21.729 -19.143   4.411  0.00  0.00    +0.004 A 
ATOM      6  C   LIG    1       22.739 -18.198   4.189  0.00  0.00    +0.009 A 
ATOM      7  C   LIG    1       24.078 -18.595   4.084  0.00  0.00    -0.016 A 
ATOM      8  C   LIG    1       24.382 -19.962   4.174  0.00  0.00    +0.009 A 
ATOM      9  C   LIG    1       23.370 -20.907   4.384  0.00  0.00    +0.004 A 
ENDBRANCH   1   7
BRANCH   1  10
ATOM     10  C   LIG    1       24.890 -16.121   3.699  0.00  0.00    +0.072 A 
ATOM     11  N   LIG    1       25.887 -15.375   3.129  0.00  0.00    -0.247 NA
ATOM     12  C   LIG    1       25.704 -14.037   3.027  0.00  0.00    +0.065 A 
ATOM     13  C   LIG    1       24.514 -13.415   3.376  0.00  0.00    +0.028 A 
ATOM     14  C   LIG    1       23.482 -14.187   3.893  0.00  0.00    +0.004 A 
ATOM     15  C   LIG    1       23.676 -15.553   4.077  0.00  0.00    +0.028 A 
BRANCH  12  16
ATOM     16  C   LIG    1       26.847 -13.226   2.595  0.00  0.00    +0.035 C 
ATOM     17  C   LIG    1       27.826 -12.638   3.299  0.00  0.00    +0.093 C 
BRANCH  17  18
ATOM     18  C   LIG    1       28.185 -12.653   4.733  0.00  0.00    +0.330 C 
ATOM     19  O   LIG    1       27.466 -13.193   5.549  0.00  0.00    -0.246 OA
BRANCH  18  20
ATOM     20  O   LIG    1       29.237 -11.883   5.068  0.00  0.00    -0.477 OA
ATOM     21  H   LIG    1       28.960 -11.025   5.454  0.00  0.00    +0.295 HD
ENDBRANCH  18  20
ENDBRANCH  17  18
ENDBRANCH  12  16
ENDBRANCH   1  10
BRANCH   2  22
ATOM     22  C   LIG    1       27.035 -19.356   4.042  0.00  0.00    +0.112 C 
BRANCH  22  23
ATOM     23  N   LIG    1       27.509 -19.636   5.401  0.00  0.00    -0.299 NA
ATOM     24  C   LIG    1       27.247 -21.015   5.812  0.00  0.00    +0.085 C 
ATOM     25  C   LIG    1       28.098 -21.151   7.062  0.00  0.00    +0.017 C 
ATOM     26  C   LIG    1       29.327 -20.303   6.775  0.00  0.00    +0.017 C 
ATOM     27  C   LIG    1       28.955 -19.445   5.570  0.00  0.00    +0.085 C 
ENDBRANCH  22  23
ENDBRANCH   2  22
TORSDOF 7
ENDMDL
MODEL 4
REMARK VINA RESULT:      -3.1      3.164      6.873
REMARK  Name = *****
REMARK                            x       y       z     vdW  Elec       q    Type
REMARK                         _______ _______ _______ _____ _____    ______ ____
ROOT
ATOM      1  C   LIG    1       26.208 -17.355   3.864  0.00  0.00    +0.005 C 
ATOM      2  C   LIG    1       26.630 -16.251   3.205  0.00  0.00    -0.001 C 
ENDROOT
BRANCH   1   7
ATOM      3  C   LIG    1       20.621 -18.975   3.756  0.00  0.00    +0.044 C 
ATOM      4  C   LIG    1       22.058 -18.537   3.753  0.00  0.00    -0.050 A 
ATOM      5  C   LIG    1       22.434 -17.293   4.271  0.00  0.00    +0.004 A 
ATOM      6  C   LIG    1       23.778 -16.898   4.280  0.00  0.00    +0.009 A 
ATOM      7  C   LIG    1       24.775 -17.750   3.792  0.00  0.00    -0.016 A 
ATOM      8  C   LIG    1       24.397 -18.994   3.264  0.00  0.00    +0.009 A 
ATOM      9  C   LIG    1       23.051 -19.383   3.244  0.00  0.00    +0.004 A 
ENDBRANCH   1   7
BRANCH   1  10
ATOM     10  C   LIG    1       27.240 -18.118   4.641  0.00  0.00    +0.072 A 
ATOM     11  N   LIG    1       26.837 -19.264   5.273  0.00  0.00    -0.247 NA
ATOM     12  C   LIG    1       27.731 -19.904   6.064  0.00  0.00    +0.065 A 
ATOM     13  C   LIG    1       29.056 -19.507   6.171  0.00  0.00    +0.028 A 
ATOM     14  C   LIG    1       29.475 -18.381   5.475  0.00  0.00    +0.004 A 
ATOM     15  C   LIG    1       28.554 -17.664   4.715  0.00  0.00    +0.028 A 
BRANCH  12  16
ATOM     16  C   LIG    1       27.238 -21.015   6.885  0.00  0.00    +0.035 C 
ATOM     17  C   LIG    1       26.021 -21.571   6.976  0.00  0.00    +0.093 C 
BRANCH  17  18
ATOM     18  C   LIG    1       24.757 -21.354   6.241  0.00  0.00    +0.330 C 
ATOM     19  O   LIG    1       23.716 -21.157   6.836  0.00  0.00    -0.246 OA
BRANCH  18  20
ATOM     20  O   LIG    1       24.820 -21.571   4.914  0.00  0.00    -0.477 OA
ATOM     21  H   LIG    1       25.743 -21.675   4.600  0.00  0.00    +0.295 HD
ENDBRANCH  18  20
ENDBRANCH  17  18
ENDBRANCH  12  16
ENDBRANCH   1  10
BRANCH   2  22
ATOM     22  C   LIG    1       25.837 -15.229   2.434  0.00  0.00    +0.112 C 
BRANCH  22  23
ATOM     23  N   LIG    1       25.730 -13.972   3.182  0.00  0.00    -0.299 NA
ATOM     24  C   LIG    1       24.342 -13.580   3.422  0.00  0.00    +0.085 C 
ATOM     25  C   LIG    1       24.488 -12.483   4.462  0.00  0.00    +0.017 C 
ATOM     26  C   LIG    1       25.670 -12.924   5.310  0.00  0.00    +0.017 C 
ATOM     27  C   LIG    1       26.359 -14.022   4.508  0.00  0.00    +0.085 C 
ENDBRANCH  22  23
ENDBRANCH   2  22
TORSDOF 7
ENDMDL
