MODEL 1
REMARK VINA RESULT:      25.5      0.000      0.000
REMARK  Name = *****
REMARK                            x       y       z     vdW  Elec       q    Type
REMARK                         _______ _______ _______ _____ _____    ______ ____
ROOT
ATOM      1  N   LIG    1       24.584 -15.929   3.727  0.00  0.00    -0.261 N 
ATOM      2  C   LIG    1       25.594 -16.831   4.094  0.00  0.00    +0.075 C 
ATOM      3  C   LIG    1       25.160 -18.123   4.573  0.00  0.00    +0.102 C 
ATOM      4  C   LIG    1       26.006 -19.169   4.755  0.00  0.00    +0.120 C 
ATOM      5  N   LIG    1       27.372 -18.938   4.540  0.00  0.00    -0.299 N 
ATOM      6  C   LIG    1       27.890 -17.672   4.295  0.00  0.00    +0.257 C 
ATOM      7  O   LIG    1       29.096 -17.412   4.324  0.00  0.00    -0.267 OA
ATOM      8  C   LIG    1       28.354 -20.004   4.718  0.00  0.00    +0.153 C 
ATOM      9  C   LIG    1       23.701 -18.310   4.789  0.00  0.00    +0.268 C 
ATOM     10  O   LIG    1       23.279 -18.984   5.717  0.00  0.00    -0.267 OA
ATOM     11  N   LIG    1       22.920 -17.648   3.849  0.00  0.00    -0.257 N 
ATOM     12  C   LIG    1       26.915 -16.605   3.916  0.00  0.00    +0.039 C 
ATOM     13  C   LIG    1       27.570 -15.459   3.194  0.00  0.00    +0.051 C 
ATOM     14  C   LIG    1       23.273 -16.370   3.394  0.00  0.00    +0.337 C 
ATOM     15  O   LIG    1       22.451 -15.650   2.824  0.00  0.00    -0.246 OA
ENDROOT
BRANCH   1  18
ATOM     16  C   LIG    1       26.023 -12.548   4.594  0.00  0.00    +0.035 A 
ATOM     17  C   LIG    1       25.885 -13.945   4.478  0.00  0.00    +0.049 A 
ATOM     18  C   LIG    1       24.738 -14.503   3.881  0.00  0.00    +0.053 A 
ATOM     19  C   LIG    1       23.739 -13.650   3.386  0.00  0.00    +0.026 A 
ATOM     20  C   LIG    1       23.901 -12.269   3.458  0.00  0.00    +0.004 A 
ATOM     21  C   LIG    1       25.034 -11.731   4.061  0.00  0.00    +0.023 A 
BRANCH  16  24
ATOM     22  C   LIG    1       29.474 -11.575   5.784  0.00  0.00    +0.109 C 
ATOM     23  C   LIG    1       28.487 -12.366   4.975  0.00  0.00    +0.214 C 
ATOM     24  N   LIG    1       27.159 -12.055   5.276  0.00  0.00    -0.286 N 
ATOM     25  H   LIG    1       27.003 -11.391   6.011  0.00  0.00    +0.155 HD
ATOM     26  O   LIG    1       28.891 -13.142   4.106  0.00  0.00    -0.276 OA
ENDBRANCH  16  24
ENDBRANCH   1  18
BRANCH  11  27
ATOM     27  C   LIG    1       21.501 -17.982   3.806  0.00  0.00    +0.095 C 
ATOM     28  C   LIG    1       20.697 -17.952   2.526  0.00  0.00    +0.027 C 
ATOM     29  C   LIG    1       20.985 -19.261   3.191  0.00  0.00    +0.027 C 
ENDBRANCH  11  27
BRANCH   4  30
ATOM     30  N   LIG    1       25.558 -20.427   5.171  0.00  0.00    -0.298 N 
ATOM     31  H   LIG    1       25.934 -20.662   6.104  0.00  0.00    +0.154 HD
BRANCH  30  32
ATOM     32  C   LIG    1       24.172 -20.780   5.199  0.00  0.00    +0.068 A 
ATOM     33  C   LIG    1       23.533 -21.123   3.996  0.00  0.00    +0.145 A 
ATOM     34  F   LIG    1       24.259 -21.228   2.872  0.00  0.00    -0.203 F 
ATOM     35  C   LIG    1       22.165 -21.376   3.931  0.00  0.00    +0.054 A 
ATOM     36  C   LIG    1       21.400 -21.250   5.086  0.00  0.00    +0.016 A 
ATOM     37  I   LIG    1       19.350 -21.570   5.013  0.00  0.00    -0.044 I 
ATOM     38  C   LIG    1       22.001 -20.898   6.294  0.00  0.00    +0.016 A 
ATOM     39  C   LIG    1       23.380 -20.671   6.349  0.00  0.00    +0.027 A 
ENDBRANCH  30  32
ENDBRANCH   4  30
TORSDOF 5
ENDMDL
MODEL 2
REMARK VINA RESULT:      26.3      1.614      2.291
REMARK  Name = *****
REMARK                            x       y       z     vdW  Elec       q    Type
REMARK                         _______ _______ _______ _____ _____    ______ ____
ROOT
ATOM      1  N   LIG    1       25.574 -16.575   3.834  0.00  0.00    -0.261 N 
ATOM      2  C   LIG    1       26.293 -17.583   4.495  0.00  0.00    +0.075 C 
ATOM      3  C   LIG    1       25.553 -18.769   4.859  0.00  0.00    +0.102 C 
ATOM      4  C   LIG    1       26.147 -19.907   5.299  0.00  0.00    +0.120 C 
ATOM      5  N   LIG    1       27.536 -19.881   5.479  0.00  0.00    -0.299 N 
ATOM      6  C   LIG    1       28.287 -18.718   5.363  0.00  0.00    +0.257 C 
ATOM      7  O   LIG    1       29.462 -18.626   5.731  0.00  0.00    -0.267 OA
ATOM      8  C   LIG    1       28.258 -21.059   5.954  0.00  0.00    +0.153 C 
ATOM      9  C   LIG    1       24.081 -18.738   4.652  0.00  0.00    +0.268 C 
ATOM     10  O   LIG    1       23.320 -19.285   5.436  0.00  0.00    -0.267 OA
ATOM     11  N   LIG    1       23.703 -18.036   3.513  0.00  0.00    -0.257 N 
ATOM     12  C   LIG    1       27.630 -17.553   4.697  0.00  0.00    +0.039 C 
ATOM     13  C   LIG    1       28.625 -16.558   4.167  0.00  0.00    +0.051 C 
ATOM     14  C   LIG    1       24.358 -16.852   3.150  0.00  0.00    +0.337 C 
ATOM     15  O   LIG    1       23.846 -16.063   2.352  0.00  0.00    -0.246 OA
ENDROOT
BRANCH   1  18
ATOM     16  C   LIG    1       25.476 -12.980   4.983  0.00  0.00    +0.035 A 
ATOM     17  C   LIG    1       25.130 -14.337   4.825  0.00  0.00    +0.049 A 
ATOM     18  C   LIG    1       25.893 -15.177   3.993  0.00  0.00    +0.053 A 
ATOM     19  C   LIG    1       27.015 -14.653   3.332  0.00  0.00    +0.026 A 
ATOM     20  C   LIG    1       27.383 -13.324   3.528  0.00  0.00    +0.004 A 
ATOM     21  C   LIG    1       26.613 -12.501   4.345  0.00  0.00    +0.023 A 
BRANCH  16  24
ATOM     22  C   LIG    1       22.658 -11.447   6.979  0.00  0.00    +0.109 C 
ATOM     23  C   LIG    1       23.261 -12.397   5.984  0.00  0.00    +0.214 C 
ATOM     24  N   LIG    1       24.622 -12.172   5.768  0.00  0.00    -0.286 N 
ATOM     25  H   LIG    1       25.036 -11.395   6.248  0.00  0.00    +0.155 HD
ATOM     26  O   LIG    1       22.570 -13.298   5.502  0.00  0.00    -0.276 OA
ENDBRANCH  16  24
ENDBRANCH   1  18
BRANCH  11  27
ATOM     27  C   LIG    1       22.319 -18.173   3.074  0.00  0.00    +0.095 C 
ATOM     28  C   LIG    1       21.163 -18.259   4.044  0.00  0.00    +0.027 C 
ATOM     29  C   LIG    1       21.318 -17.047   3.179  0.00  0.00    +0.027 C 
ENDBRANCH  11  27
BRANCH   4  30
ATOM     30  N   LIG    1       25.416 -21.062   5.598  0.00  0.00    -0.298 N 
ATOM     31  H   LIG    1       25.493 -21.298   6.601  0.00  0.00    +0.154 HD
BRANCH  30  32
ATOM     32  C   LIG    1       24.034 -21.207   5.259  0.00  0.00    +0.068 A 
ATOM     33  C   LIG    1       23.679 -21.397   3.913  0.00  0.00    +0.145 A 
ATOM     34  F   LIG    1       24.644 -21.557   2.995  0.00  0.00    -0.203 F 
ATOM     35  C   LIG    1       22.350 -21.442   3.498  0.00  0.00    +0.054 A 
ATOM     36  C   LIG    1       21.343 -21.257   4.438  0.00  0.00    +0.016 A 
ATOM     37  I   LIG    1       19.354 -21.267   3.843  0.00  0.00    -0.044 I 
ATOM     38  C   LIG    1       21.660 -21.052   5.781  0.00  0.00    +0.016 A 
ATOM     39  C   LIG    1       22.999 -21.034   6.187  0.00  0.00    +0.027 A 
ENDBRANCH  30  32
ENDBRANCH   4  30
TORSDOF 5
ENDMDL
