MODEL 1
REMARK VINA RESULT:      -5.0      0.000      0.000
REMARK  Name = *****
REMARK                            x       y       z     vdW  Elec       q    Type
REMARK                         _______ _______ _______ _____ _____    ______ ____
ROOT
ATOM      1  C   LIG    1       24.829 -20.157   3.580  0.00  0.00    +0.027 C 
ATOM      2  C   LIG    1       24.354 -19.501   4.891  0.00  0.00    +0.086 C 
ATOM      3  N   LIG    1       22.873 -19.391   5.008  0.00  0.00    -0.298 NA
ATOM      4  C   LIG    1       22.243 -18.668   3.911  0.00  0.00    +0.105 C 
ATOM      5  C   LIG    1       22.261 -20.720   5.201  0.00  0.00    +0.112 C 
ATOM      6  C   LIG    1       22.903 -21.472   6.378  0.00  0.00    +0.176 C 
ATOM      7  O   LIG    1       24.325 -21.572   6.235  0.00  0.00    -0.369 OA
ATOM      8  C   LIG    1       24.906 -20.253   6.150  0.00  0.00    +0.165 C 
ENDROOT
BRANCH   8   9
ATOM      9  C   LIG    1       26.424 -20.329   6.201  0.00  0.00    -0.017 A 
ATOM     10  C   LIG    1       27.239 -19.430   5.496  0.00  0.00    +0.006 A 
ATOM     11  C   LIG    1       28.630 -19.515   5.574  0.00  0.00    +0.000 A 
ATOM     12  C   LIG    1       29.227 -20.500   6.357  0.00  0.00    +0.000 A 
ATOM     13  C   LIG    1       28.434 -21.402   7.062  0.00  0.00    +0.000 A 
ATOM     14  C   LIG    1       27.043 -21.318   6.986  0.00  0.00    +0.006 A 
ENDBRANCH   8   9
TORSDOF 1
ENDMDL
MODEL 2
REMARK VINA RESULT:      -3.6      4.822      6.028
REMARK  Name = *****
REMARK                            x       y       z     vdW  Elec       q    Type
REMARK                         _______ _______ _______ _____ _____    ______ ____
ROOT
ATOM      1  C   LIG    1       24.621 -14.828   4.136  0.00  0.00    +0.027 C 
ATOM      2  C   LIG    1       25.539 -14.905   2.902  0.00  0.00    +0.086 C 
ATOM      3  N   LIG    1       25.944 -13.574   2.367  0.00  0.00    -0.298 NA
ATOM      4  C   LIG    1       24.823 -12.709   2.017  0.00  0.00    +0.105 C 
ATOM      5  C   LIG    1       26.880 -12.900   3.286  0.00  0.00    +0.112 C 
ATOM      6  C   LIG    1       28.079 -13.799   3.631  0.00  0.00    +0.176 C 
ATOM      7  O   LIG    1       27.662 -15.067   4.152  0.00  0.00    -0.369 OA
ATOM      8  C   LIG    1       26.830 -15.747   3.189  0.00  0.00    +0.165 C 
ENDROOT
BRANCH   8   9
ATOM      9  C   LIG    1       26.544 -17.172   3.635  0.00  0.00    -0.017 A 
ATOM     10  C   LIG    1       25.353 -17.832   3.299  0.00  0.00    +0.006 A 
ATOM     11  C   LIG    1       25.125 -19.147   3.710  0.00  0.00    +0.000 A 
ATOM     12  C   LIG    1       26.083 -19.820   4.465  0.00  0.00    +0.000 A 
ATOM     13  C   LIG    1       27.270 -19.179   4.808  0.00  0.00    +0.000 A 
ATOM     14  C   LIG    1       27.501 -17.865   4.397  0.00  0.00    +0.006 A 
ENDBRANCH   8   9
TORSDOF 1
ENDMDL
MODEL 3
REMARK VINA RESULT:      -3.3      4.595      6.186
REMARK  Name = *****
REMARK                            x       y       z     vdW  Elec       q    Type
REMARK                         _______ _______ _______ _____ _____    ______ ____
ROOT
ATOM      1  C   LIG    1       24.142 -14.526   4.419  0.00  0.00    +0.027 C 
ATOM      2  C   LIG    1       24.883 -14.721   3.082  0.00  0.00    +0.086 C 
ATOM      3  N   LIG    1       25.618 -13.511   2.619  0.00  0.00    -0.298 NA
ATOM      4  C   LIG    1       24.783 -12.325   2.479  0.00  0.00    +0.105 C 
ATOM      5  C   LIG    1       26.791 -13.248   3.475  0.00  0.00    +0.112 C 
ATOM      6  C   LIG    1       27.690 -14.489   3.598  0.00  0.00    +0.176 C 
ATOM      7  O   LIG    1       26.961 -15.634   4.054  0.00  0.00    -0.369 OA
ATOM      8  C   LIG    1       25.881 -15.927   3.142  0.00  0.00    +0.165 C 
ENDROOT
BRANCH   8   9
ATOM      9  C   LIG    1       25.222 -17.251   3.496  0.00  0.00    -0.017 A 
ATOM     10  C   LIG    1       23.858 -17.341   3.813  0.00  0.00    +0.006 A 
ATOM     11  C   LIG    1       23.276 -18.572   4.120  0.00  0.00    +0.000 A 
ATOM     12  C   LIG    1       24.049 -19.731   4.115  0.00  0.00    +0.000 A 
ATOM     13  C   LIG    1       25.404 -19.660   3.804  0.00  0.00    +0.000 A 
ATOM     14  C   LIG    1       25.988 -18.429   3.497  0.00  0.00    +0.006 A 
ENDBRANCH   8   9
TORSDOF 1
ENDMDL
MODEL 4
REMARK VINA RESULT:      -2.6      4.896      6.828
REMARK  Name = *****
REMARK                            x       y       z     vdW  Elec       q    Type
REMARK                         _______ _______ _______ _____ _____    ______ ____
ROOT
ATOM      1  C   LIG    1       26.495 -15.424   2.957  0.00  0.00    +0.027 C 
ATOM      2  C   LIG    1       25.865 -14.744   4.188  0.00  0.00    +0.086 C 
ATOM      3  N   LIG    1       26.232 -13.307   4.337  0.00  0.00    -0.298 NA
ATOM      4  C   LIG    1       27.668 -13.065   4.398  0.00  0.00    +0.105 C 
ATOM      5  C   LIG    1       25.590 -12.489   3.291  0.00  0.00    +0.112 C 
ATOM      6  C   LIG    1       24.071 -12.720   3.245  0.00  0.00    +0.176 C 
ATOM      7  O   LIG    1       23.746 -14.107   3.091  0.00  0.00    -0.369 OA
ATOM      8  C   LIG    1       24.303 -14.868   4.185  0.00  0.00    +0.165 C 
ENDROOT
BRANCH   8   9
ATOM      9  C   LIG    1       23.803 -16.303   4.150  0.00  0.00    -0.017 A 
ATOM     10  C   LIG    1       24.600 -17.358   3.678  0.00  0.00    +0.006 A 
ATOM     11  C   LIG    1       24.120 -18.668   3.672  0.00  0.00    +0.000 A 
ATOM     12  C   LIG    1       22.836 -18.945   4.136  0.00  0.00    +0.000 A 
ATOM     13  C   LIG    1       22.031 -17.910   4.606  0.00  0.00    +0.000 A 
ATOM     14  C   LIG    1       22.509 -16.599   4.614  0.00  0.00    +0.006 A 
ENDBRANCH   8   9
TORSDOF 1
ENDMDL
