MODEL 1
REMARK VINA RESULT:      -5.7      0.000      0.000
REMARK  Name = *****
REMARK                            x       y       z     vdW  Elec       q    Type
REMARK                         _______ _______ _______ _____ _____    ______ ____
ROOT
ATOM      1  C   LIG    1       25.773 -20.360   6.017  0.00  0.00    +0.022 C 
ENDROOT
BRANCH   1   2
ATOM      2  C   LIG    1       24.845 -21.014   4.964  0.00  0.00    -0.010 C 
ATOM      3  C   LIG    1       23.422 -21.188   5.533  0.00  0.00    +0.003 C 
ATOM      4  C   LIG    1       22.660 -19.869   5.659  0.00  0.00    +0.000 C 
ATOM      5  C   LIG    1       22.636 -19.100   4.341  0.00  0.00    +0.000 C 
ATOM      6  C   LIG    1       24.033 -18.912   3.757  0.00  0.00    +0.000 C 
ATOM      7  C   LIG    1       24.776 -20.242   3.635  0.00  0.00    +0.003 C 
ENDBRANCH   1   2
BRANCH   1   8
ATOM      8  C   LIG    1       27.290 -20.498   5.756  0.00  0.00    +0.051 C 
ATOM      9  C   LIG    1       28.076 -20.691   7.059  0.00  0.00    +0.024 C 
BRANCH   8  11
ATOM     10  C   LIG    1       29.098 -18.842   5.686  0.00  0.00    +0.101 C 
ATOM     11  N   LIG    1       27.854 -19.311   5.090  0.00  0.00    -0.317 NA
ATOM     12  H   LIG    1       27.999 -19.498   4.102  0.00  0.00    +0.122 HD
ENDBRANCH   8  11
ENDBRANCH   1   8
TORSDOF 3
ENDMDL
MODEL 2
REMARK VINA RESULT:      -4.7      6.067      8.027
REMARK  Name = *****
REMARK                            x       y       z     vdW  Elec       q    Type
REMARK                         _______ _______ _______ _____ _____    ______ ____
ROOT
ATOM      1  C   LIG    1       25.136 -12.816   4.525  0.00  0.00    +0.022 C 
ENDROOT
BRANCH   1   2
ATOM      2  C   LIG    1       26.153 -13.936   4.859  0.00  0.00    -0.010 C 
ATOM      3  C   LIG    1       26.702 -14.569   3.564  0.00  0.00    +0.003 C 
ATOM      4  C   LIG    1       27.670 -13.656   2.813  0.00  0.00    +0.000 C 
ATOM      5  C   LIG    1       28.804 -13.169   3.711  0.00  0.00    +0.000 C 
ATOM      6  C   LIG    1       28.287 -12.535   5.000  0.00  0.00    +0.000 C 
ATOM      7  C   LIG    1       27.325 -13.465   5.738  0.00  0.00    +0.003 C 
ENDBRANCH   1   2
BRANCH   1   8
ATOM      8  C   LIG    1       23.797 -13.284   3.913  0.00  0.00    +0.051 C 
ATOM      9  C   LIG    1       23.520 -14.762   4.211  0.00  0.00    +0.024 C 
BRANCH   8  11
ATOM     10  C   LIG    1       24.468 -11.949   1.968  0.00  0.00    +0.101 C 
ATOM     11  N   LIG    1       23.766 -13.131   2.448  0.00  0.00    -0.317 NA
ATOM     12  H   LIG    1       24.148 -13.960   2.000  0.00  0.00    +0.122 HD
ENDBRANCH   8  11
ENDBRANCH   1   8
TORSDOF 3
ENDMDL
MODEL 3
REMARK VINA RESULT:      -4.3      5.856      7.024
REMARK  Name = *****
REMARK                            x       y       z     vdW  Elec       q    Type
REMARK                         _______ _______ _______ _____ _____    ______ ____
ROOT
ATOM      1  C   LIG    1       26.540 -13.823   2.620  0.00  0.00    +0.022 C 
ENDROOT
BRANCH   1   2
ATOM      2  C   LIG    1       25.000 -13.976   2.669  0.00  0.00    -0.010 C 
ATOM      3  C   LIG    1       24.496 -13.903   4.125  0.00  0.00    +0.003 C 
ATOM      4  C   LIG    1       24.562 -12.494   4.713  0.00  0.00    +0.000 C 
ATOM      5  C   LIG    1       23.845 -11.477   3.831  0.00  0.00    +0.000 C 
ATOM      6  C   LIG    1       24.327 -11.526   2.384  0.00  0.00    +0.000 C 
ATOM      7  C   LIG    1       24.248 -12.941   1.813  0.00  0.00    +0.003 C 
ENDBRANCH   1   2
BRANCH   1   8
ATOM      8  C   LIG    1       27.278 -14.011   3.965  0.00  0.00    +0.051 C 
ATOM      9  C   LIG    1       28.346 -12.931   4.183  0.00  0.00    +0.024 C 
BRANCH   8  11
ATOM     10  C   LIG    1       27.124 -16.442   3.683  0.00  0.00    +0.101 C 
ATOM     11  N   LIG    1       27.964 -15.311   4.051  0.00  0.00    -0.317 NA
ATOM     12  H   LIG    1       28.801 -15.307   3.475  0.00  0.00    +0.122 HD
ENDBRANCH   8  11
ENDBRANCH   1   8
TORSDOF 3
ENDMDL
MODEL 4
REMARK VINA RESULT:      -4.3      6.314      7.372
REMARK  Name = *****
REMARK                            x       y       z     vdW  Elec       q    Type
REMARK                         _______ _______ _______ _____ _____    ______ ____
ROOT
ATOM      1  C   LIG    1       26.776 -12.989   2.890  0.00  0.00    +0.022 C 
ENDROOT
BRANCH   1   2
ATOM      2  C   LIG    1       25.348 -13.585   2.949  0.00  0.00    -0.010 C 
ATOM      3  C   LIG    1       24.801 -13.535   4.391  0.00  0.00    +0.003 C 
ATOM      4  C   LIG    1       24.432 -12.123   4.844  0.00  0.00    +0.000 C 
ATOM      5  C   LIG    1       23.473 -11.447   3.868  0.00  0.00    +0.000 C 
ATOM      6  C   LIG    1       23.992 -11.481   2.433  0.00  0.00    +0.000 C 
ATOM      7  C   LIG    1       24.351 -12.901   1.998  0.00  0.00    +0.003 C 
ENDBRANCH   1   2
BRANCH   1   8
ATOM      8  C   LIG    1       27.933 -13.989   3.104  0.00  0.00    +0.051 C 
ATOM      9  C   LIG    1       27.540 -15.117   4.065  0.00  0.00    +0.024 C 
BRANCH   8  11
ATOM     10  C   LIG    1       28.836 -12.229   4.554  0.00  0.00    +0.101 C 
ATOM     11  N   LIG    1       29.133 -13.347   3.668  0.00  0.00    -0.317 NA
ATOM     12  H   LIG    1       29.700 -14.032   4.162  0.00  0.00    +0.122 HD
ENDBRANCH   8  11
ENDBRANCH   1   8
TORSDOF 3
ENDMDL
MODEL 5
REMARK VINA RESULT:      -4.1      2.102      4.578
REMARK  Name = *****
REMARK                            x       y       z     vdW  Elec       q    Type
REMARK                         _______ _______ _______ _____ _____    ______ ____
ROOT
ATOM      1  C   LIG    1       23.517 -20.078   6.179  0.00  0.00    +0.022 C 
ENDROOT
BRANCH   1   2
ATOM      2  C   LIG    1       24.496 -21.204   5.764  0.00  0.00    -0.010 C 
ATOM      3  C   LIG    1       25.227 -20.828   4.459  0.00  0.00    +0.003 C 
ATOM      4  C   LIG    1       26.276 -19.733   4.653  0.00  0.00    +0.000 C 
ATOM      5  C   LIG    1       27.267 -20.086   5.758  0.00  0.00    +0.000 C 
ATOM      6  C   LIG    1       26.568 -20.460   7.062  0.00  0.00    +0.000 C 
ATOM      7  C   LIG    1       25.528 -21.559   6.848  0.00  0.00    +0.003 C 
ENDBRANCH   1   2
BRANCH   1   8
ATOM      8  C   LIG    1       22.252 -19.928   5.306  0.00  0.00    +0.051 C 
ATOM      9  C   LIG    1       21.758 -21.282   4.782  0.00  0.00    +0.024 C 
BRANCH   8  11
ATOM     10  C   LIG    1       22.400 -17.648   4.413  0.00  0.00    +0.101 C 
ATOM     11  N   LIG    1       22.482 -19.074   4.127  0.00  0.00    -0.317 NA
ATOM     12  H   LIG    1       23.383 -19.287   3.709  0.00  0.00    +0.122 HD
ENDBRANCH   8  11
ENDBRANCH   1   8
TORSDOF 3
ENDMDL
MODEL 6
REMARK VINA RESULT:      -4.0      1.170      2.135
REMARK  Name = *****
REMARK                            x       y       z     vdW  Elec       q    Type
REMARK                         _______ _______ _______ _____ _____    ______ ____
ROOT
ATOM      1  C   LIG    1       24.807 -20.404   4.873  0.00  0.00    +0.022 C 
ENDROOT
BRANCH   1   2
ATOM      2  C   LIG    1       23.645 -20.093   5.847  0.00  0.00    -0.010 C 
ATOM      3  C   LIG    1       22.855 -18.857   5.369  0.00  0.00    +0.003 C 
ATOM      4  C   LIG    1       21.995 -19.135   4.136  0.00  0.00    +0.000 C 
ATOM      5  C   LIG    1       21.071 -20.331   4.347  0.00  0.00    +0.000 C 
ATOM      6  C   LIG    1       21.828 -21.569   4.819  0.00  0.00    +0.000 C 
ATOM      7  C   LIG    1       22.678 -21.272   6.054  0.00  0.00    +0.003 C 
ENDBRANCH   1   2
BRANCH   1   8
ATOM      8  C   LIG    1       26.155 -20.777   5.529  0.00  0.00    +0.051 C 
ATOM      9  C   LIG    1       26.165 -20.461   7.029  0.00  0.00    +0.024 C 
BRANCH   8  11
ATOM     10  C   LIG    1       28.348 -19.737   5.883  0.00  0.00    +0.101 C 
ATOM     11  N   LIG    1       27.289 -20.049   4.933  0.00  0.00    -0.317 NA
ATOM     12  H   LIG    1       27.675 -20.575   4.154  0.00  0.00    +0.122 HD
ENDBRANCH   8  11
ENDBRANCH   1   8
TORSDOF 3
ENDMDL
MODEL 7
REMARK VINA RESULT:      -3.9      2.494      4.744
REMARK  Name = *****
REMARK                            x       y       z     vdW  Elec       q    Type
REMARK                         _______ _______ _______ _____ _____    ______ ____
ROOT
ATOM      1  C   LIG    1       23.421 -18.824   4.207  0.00  0.00    +0.022 C 
ENDROOT
BRANCH   1   2
ATOM      2  C   LIG    1       23.561 -20.362   4.322  0.00  0.00    -0.010 C 
ATOM      3  C   LIG    1       25.047 -20.761   4.431  0.00  0.00    +0.003 C 
ATOM      4  C   LIG    1       25.664 -20.417   5.786  0.00  0.00    +0.000 C 
ATOM      5  C   LIG    1       24.853 -20.994   6.941  0.00  0.00    +0.000 C 
ATOM      6  C   LIG    1       23.378 -20.611   6.860  0.00  0.00    +0.000 C 
ATOM      7  C   LIG    1       22.779 -20.968   5.500  0.00  0.00    +0.003 C 
ENDBRANCH   1   2
BRANCH   1   8
ATOM      8  C   LIG    1       22.047 -18.240   4.604  0.00  0.00    +0.051 C 
ATOM      9  C   LIG    1       20.994 -18.474   3.515  0.00  0.00    +0.024 C 
BRANCH   8  11
ATOM     10  C   LIG    1       23.273 -16.144   4.262  0.00  0.00    +0.101 C 
ATOM     11  N   LIG    1       22.101 -16.787   4.840  0.00  0.00    -0.317 NA
ATOM     12  H   LIG    1       21.258 -16.342   4.487  0.00  0.00    +0.122 HD
ENDBRANCH   8  11
ENDBRANCH   1   8
TORSDOF 3
ENDMDL
MODEL 8
REMARK VINA RESULT:      -3.8      4.369      6.053
REMARK  Name = *****
REMARK                            x       y       z     vdW  Elec       q    Type
REMARK                         _______ _______ _______ _____ _____    ______ ____
ROOT
ATOM      1  C   LIG    1       26.563 -16.342   3.678  0.00  0.00    +0.022 C 
ENDROOT
BRANCH   1   2
ATOM      2  C   LIG    1       26.064 -14.949   3.221  0.00  0.00    -0.010 C 
ATOM      3  C   LIG    1       25.468 -14.172   4.413  0.00  0.00    +0.003 C 
ATOM      4  C   LIG    1       26.527 -13.676   5.397  0.00  0.00    +0.000 C 
ATOM      5  C   LIG    1       27.614 -12.864   4.699  0.00  0.00    +0.000 C 
ATOM      6  C   LIG    1       28.223 -13.612   3.517  0.00  0.00    +0.000 C 
ATOM      7  C   LIG    1       27.149 -14.095   2.543  0.00  0.00    +0.003 C 
ENDBRANCH   1   2
BRANCH   1   8
ATOM      8  C   LIG    1       25.701 -17.545   3.236  0.00  0.00    +0.051 C 
ATOM      9  C   LIG    1       24.262 -17.435   3.754  0.00  0.00    +0.024 C 
BRANCH   8  11
ATOM     10  C   LIG    1       25.205 -19.821   4.002  0.00  0.00    +0.101 C 
ATOM     11  N   LIG    1       26.234 -18.827   3.728  0.00  0.00    -0.317 NA
ATOM     12  H   LIG    1       26.906 -19.206   3.066  0.00  0.00    +0.122 HD
ENDBRANCH   8  11
ENDBRANCH   1   8
TORSDOF 3
ENDMDL
MODEL 9
REMARK VINA RESULT:      -3.8      2.560      3.540
REMARK  Name = *****
REMARK                            x       y       z     vdW  Elec       q    Type
REMARK                         _______ _______ _______ _____ _____    ______ ____
ROOT
ATOM      1  C   LIG    1       25.308 -18.644   3.947  0.00  0.00    +0.022 C 
ENDROOT
BRANCH   1   2
ATOM      2  C   LIG    1       24.002 -19.250   3.377  0.00  0.00    -0.010 C 
ATOM      3  C   LIG    1       24.114 -20.786   3.289  0.00  0.00    +0.003 C 
ATOM      4  C   LIG    1       24.058 -21.472   4.653  0.00  0.00    +0.000 C 
ATOM      5  C   LIG    1       22.824 -21.055   5.447  0.00  0.00    +0.000 C 
ATOM      6  C   LIG    1       22.690 -19.539   5.552  0.00  0.00    +0.000 C 
ATOM      7  C   LIG    1       22.744 -18.873   4.178  0.00  0.00    +0.003 C 
ENDBRANCH   1   2
BRANCH   1   8
ATOM      8  C   LIG    1       25.806 -17.352   3.261  0.00  0.00    +0.051 C 
ATOM      9  C   LIG    1       27.235 -16.996   3.688  0.00  0.00    +0.024 C 
BRANCH   8  11
ATOM     10  C   LIG    1       25.681 -14.920   3.555  0.00  0.00    +0.101 C 
ATOM     11  N   LIG    1       24.963 -16.187   3.582  0.00  0.00    -0.317 NA
ATOM     12  H   LIG    1       24.170 -16.142   2.948  0.00  0.00    +0.122 HD
ENDBRANCH   8  11
ENDBRANCH   1   8
TORSDOF 3
ENDMDL
