MODEL 1
REMARK VINA RESULT:      -8.8      0.000      0.000
REMARK  Name = *****
REMARK                            x       y       z     vdW  Elec       q    Type
REMARK                         _______ _______ _______ _____ _____    ______ ____
ROOT
ATOM      1  C   LIG    1       25.471 -25.361   5.752  0.00  0.00    +0.120 A 
ATOM      2  C   LIG    1       25.953 -24.050   5.794  0.00  0.00    +0.050 A 
ATOM      3  C   LIG    1       25.148 -22.981   6.253  0.00  0.00    -0.034 A 
ATOM      4  C   LIG    1       25.717 -21.538   6.299  0.00  0.00    +0.002 C 
ATOM      5  C   LIG    1       25.697 -20.972   4.848  0.00  0.00    +0.027 C 
ATOM      6  C   LIG    1       24.443 -20.127   4.531  0.00  0.00    +0.085 C 
ATOM      7  N   LIG    1       23.234 -20.600   5.206  0.00  0.00    -0.302 NA
ATOM      8  C   LIG    1       22.069 -19.796   4.850  0.00  0.00    +0.105 C 
ATOM      9  C   LIG    1       23.370 -20.761   6.678  0.00  0.00    +0.065 C 
ATOM     10  C   LIG    1       22.868 -22.164   7.058  0.00  0.00    +0.054 C 
ATOM     11  C   LIG    1       24.826 -20.588   7.143  0.00  0.00    +0.017 C 
ATOM     12  C   LIG    1       25.078 -20.760   8.645  0.00  0.00    +0.006 C 
ATOM     13  C   LIG    1       26.511 -20.343   9.000  0.00  0.00    +0.000 C 
ATOM     14  C   LIG    1       27.473 -20.391   7.808  0.00  0.00    +0.001 C 
ATOM     15  C   LIG    1       27.166 -21.570   6.887  0.00  0.00    +0.012 C 
ATOM     16  C   LIG    1       23.815 -23.257   6.620  0.00  0.00    -0.042 A 
ATOM     17  C   LIG    1       23.341 -24.578   6.587  0.00  0.00    +0.007 A 
ATOM     18  C   LIG    1       24.165 -25.617   6.161  0.00  0.00    +0.046 A 
ENDROOT
BRANCH   1  20
ATOM     19  C   LIG    1       25.488 -27.711   5.394  0.00  0.00    +0.277 C 
ATOM     20  O   LIG    1       26.167 -26.463   5.338  0.00  0.00    -0.495 OA
ENDBRANCH   1  20
TORSDOF 1
ENDMDL
MODEL 2
REMARK VINA RESULT:      -8.6      2.238      4.847
REMARK  Name = *****
REMARK                            x       y       z     vdW  Elec       q    Type
REMARK                         _______ _______ _______ _____ _____    ______ ____
ROOT
ATOM      1  C   LIG    1       28.516 -20.284   7.452  0.00  0.00    +0.120 A 
ATOM      2  C   LIG    1       27.402 -21.110   7.623  0.00  0.00    +0.050 A 
ATOM      3  C   LIG    1       26.400 -21.214   6.629  0.00  0.00    -0.034 A 
ATOM      4  C   LIG    1       25.181 -22.150   6.844  0.00  0.00    +0.002 C 
ATOM      5  C   LIG    1       24.193 -21.431   7.810  0.00  0.00    +0.027 C 
ATOM      6  C   LIG    1       23.069 -20.658   7.083  0.00  0.00    +0.085 C 
ATOM      7  N   LIG    1       23.492 -20.069   5.813  0.00  0.00    -0.302 NA
ATOM      8  C   LIG    1       22.412 -19.320   5.180  0.00  0.00    +0.105 C 
ATOM      9  C   LIG    1       24.133 -21.026   4.870  0.00  0.00    +0.065 C 
ATOM     10  C   LIG    1       25.462 -20.416   4.393  0.00  0.00    +0.054 C 
ATOM     11  C   LIG    1       24.395 -22.391   5.528  0.00  0.00    +0.017 C 
ATOM     12  C   LIG    1       25.075 -23.443   4.646  0.00  0.00    +0.006 C 
ATOM     13  C   LIG    1       25.071 -24.811   5.341  0.00  0.00    +0.000 C 
ATOM     14  C   LIG    1       24.924 -24.720   6.863  0.00  0.00    +0.001 C 
ATOM     15  C   LIG    1       25.670 -23.515   7.429  0.00  0.00    +0.012 C 
ATOM     16  C   LIG    1       26.520 -20.417   5.473  0.00  0.00    -0.042 A 
ATOM     17  C   LIG    1       27.647 -19.599   5.302  0.00  0.00    +0.007 A 
ATOM     18  C   LIG    1       28.635 -19.539   6.282  0.00  0.00    +0.046 A 
ENDROOT
BRANCH   1  20
ATOM     19  C   LIG    1       30.853 -20.020   7.799  0.00  0.00    +0.277 C 
ATOM     20  O   LIG    1       29.543 -20.121   8.341  0.00  0.00    -0.495 OA
ENDBRANCH   1  20
TORSDOF 1
ENDMDL
MODEL 3
REMARK VINA RESULT:      -8.6      2.434      4.839
REMARK  Name = *****
REMARK                            x       y       z     vdW  Elec       q    Type
REMARK                         _______ _______ _______ _____ _____    ______ ____
ROOT
ATOM      1  C   LIG    1       28.078 -19.848   6.601  0.00  0.00    +0.120 A 
ATOM      2  C   LIG    1       27.080 -20.061   5.647  0.00  0.00    +0.050 A 
ATOM      3  C   LIG    1       25.791 -20.513   6.015  0.00  0.00    -0.034 A 
ATOM      4  C   LIG    1       24.701 -20.729   4.932  0.00  0.00    +0.002 C 
ATOM      5  C   LIG    1       25.003 -22.077   4.213  0.00  0.00    +0.027 C 
ATOM      6  C   LIG    1       24.218 -23.276   4.789  0.00  0.00    +0.085 C 
ATOM      7  N   LIG    1       23.996 -23.190   6.233  0.00  0.00    -0.302 NA
ATOM      8  C   LIG    1       23.284 -24.358   6.740  0.00  0.00    +0.105 C 
ATOM      9  C   LIG    1       23.373 -21.917   6.688  0.00  0.00    +0.065 C 
ATOM     10  C   LIG    1       24.219 -21.352   7.842  0.00  0.00    +0.054 C 
ATOM     11  C   LIG    1       23.287 -20.882   5.554  0.00  0.00    +0.017 C 
ATOM     12  C   LIG    1       22.681 -19.525   5.926  0.00  0.00    +0.006 C 
ATOM     13  C   LIG    1       22.447 -18.678   4.668  0.00  0.00    +0.000 C 
ATOM     14  C   LIG    1       23.321 -19.096   3.481  0.00  0.00    +0.001 C 
ATOM     15  C   LIG    1       24.715 -19.526   3.934  0.00  0.00    +0.012 C 
ATOM     16  C   LIG    1       25.546 -20.802   7.372  0.00  0.00    -0.042 A 
ATOM     17  C   LIG    1       26.549 -20.574   8.327  0.00  0.00    +0.007 A 
ATOM     18  C   LIG    1       27.800 -20.097   7.942  0.00  0.00    +0.046 A 
ENDROOT
BRANCH   1  20
ATOM     19  C   LIG    1       30.337 -19.706   7.328  0.00  0.00    +0.277 C 
ATOM     20  O   LIG    1       29.348 -19.402   6.354  0.00  0.00    -0.495 OA
ENDBRANCH   1  20
TORSDOF 1
ENDMDL
MODEL 4
REMARK VINA RESULT:      -5.9      1.431      3.459
REMARK  Name = *****
REMARK                            x       y       z     vdW  Elec       q    Type
REMARK                         _______ _______ _______ _____ _____    ______ ____
ROOT
ATOM      1  C   LIG    1       24.364 -25.473   5.936  0.00  0.00    +0.120 A 
ATOM      2  C   LIG    1       23.870 -24.173   5.804  0.00  0.00    +0.050 A 
ATOM      3  C   LIG    1       24.676 -23.045   6.083  0.00  0.00    -0.034 A 
ATOM      4  C   LIG    1       24.101 -21.613   5.914  0.00  0.00    +0.002 C 
ATOM      5  C   LIG    1       23.200 -21.313   7.148  0.00  0.00    +0.027 C 
ATOM      6  C   LIG    1       23.927 -20.546   8.274  0.00  0.00    +0.085 C 
ATOM      7  N   LIG    1       25.341 -20.899   8.404  0.00  0.00    -0.302 NA
ATOM      8  C   LIG    1       25.978 -20.178   9.501  0.00  0.00    +0.105 C 
ATOM      9  C   LIG    1       26.122 -20.795   7.142  0.00  0.00    +0.065 C 
ATOM     10  C   LIG    1       26.892 -22.112   6.942  0.00  0.00    +0.054 C 
ATOM     11  C   LIG    1       25.217 -20.534   5.926  0.00  0.00    +0.017 C 
ATOM     12  C   LIG    1       25.923 -20.434   4.570  0.00  0.00    +0.006 C 
ATOM     13  C   LIG    1       24.947 -19.952   3.490  0.00  0.00    +0.000 C 
ATOM     14  C   LIG    1       23.478 -20.206   3.839  0.00  0.00    +0.001 C 
ATOM     15  C   LIG    1       23.297 -21.531   4.576  0.00  0.00    +0.012 C 
ATOM     16  C   LIG    1       25.986 -23.260   6.556  0.00  0.00    -0.042 A 
ATOM     17  C   LIG    1       26.480 -24.567   6.675  0.00  0.00    +0.007 A 
ATOM     18  C   LIG    1       25.675 -25.661   6.364  0.00  0.00    +0.046 A 
ENDROOT
BRANCH   1  20
ATOM     19  C   LIG    1       24.398 -27.846   5.794  0.00  0.00    +0.277 C 
ATOM     20  O   LIG    1       23.676 -26.628   5.682  0.00  0.00    -0.495 OA
ENDBRANCH   1  20
TORSDOF 1
ENDMDL
