MODEL 1
REMARK VINA RESULT:       0.5      0.000      0.000
REMARK  Name = *****
REMARK                            x       y       z     vdW  Elec       q    Type
REMARK                         _______ _______ _______ _____ _____    ______ ____
ROOT
ATOM      1  C   LIG    1       26.241 -14.428   4.787  0.00  0.00    +0.037 C 
ATOM      2  C   LIG    1       25.069 -13.926   5.585  0.00  0.00    +0.062 C 
ATOM      3  C   LIG    1       23.674 -14.255   5.005  0.00  0.00    +0.079 C 
ATOM      4  C   LIG    1       23.725 -14.827   3.550  0.00  0.00    +0.122 C 
ATOM      5  C   LIG    1       24.816 -15.922   3.375  0.00  0.00    +0.164 C 
ATOM      6  C   LIG    1       26.136 -15.372   3.835  0.00  0.00    +0.017 C 
ENDROOT
BRANCH   4   7
ATOM      7  N   LIG    1       23.906 -13.744   2.557  0.00  0.00    -0.308 N 
ATOM      8  H   LIG    1       24.136 -13.990   1.601  0.00  0.00    +0.149 HD
ATOM      9  C   LIG    1       23.928 -12.418   2.927  0.00  0.00    +0.210 C 
ATOM     10  O   LIG    1       23.717 -12.039   4.074  0.00  0.00    -0.276 OA
ATOM     11  C   LIG    1       24.259 -11.461   1.813  0.00  0.00    +0.109 C 
ENDBRANCH   4   7
BRANCH   3  12
ATOM     12  N   LIG    1       22.932 -15.107   5.953  0.00  0.00    -0.325 NA
ATOM     13  H   LIG    1       22.471 -14.518   6.646  0.00  0.00    +0.118 HD
ATOM     14  H   LIG    1       22.199 -15.620   5.461  0.00  0.00    +0.118 HD
ENDBRANCH   3  12
BRANCH   1  15
ATOM     15  C   LIG    1       27.549 -13.798   5.141  0.00  0.00    +0.335 C 
ATOM     16  O   LIG    1       27.743 -13.159   6.146  0.00  0.00    -0.245 OA
BRANCH  15  17
ATOM     17  O   LIG    1       28.457 -14.050   4.156  0.00  0.00    -0.462 OA
BRANCH  17  19
ATOM     18  C   LIG    1       27.678 -12.366   2.666  0.00  0.00    +0.048 C 
ATOM     19  C   LIG    1       28.881 -12.904   3.418  0.00  0.00    +0.229 C 
ENDBRANCH  17  19
ENDBRANCH  15  17
ENDBRANCH   1  15
BRANCH   5  20
ATOM     20  O   LIG    1       24.622 -17.154   4.074  0.00  0.00    -0.367 OA
BRANCH  20  21
ATOM     21  C   LIG    1       24.019 -18.237   3.349  0.00  0.00    +0.119 C 
BRANCH  21  22
ATOM     22  C   LIG    1       22.555 -18.349   3.828  0.00  0.00    +0.028 C 
ATOM     23  C   LIG    1       22.341 -19.179   5.090  0.00  0.00    +0.006 C 
ENDBRANCH  21  22
BRANCH  21  24
ATOM     24  C   LIG    1       24.816 -19.553   3.398  0.00  0.00    +0.028 C 
ATOM     25  C   LIG    1       26.008 -19.623   4.343  0.00  0.00    +0.006 C 
ENDBRANCH  21  24
ENDBRANCH  20  21
ENDBRANCH   5  20
TORSDOF 9
ENDMDL
MODEL 2
REMARK VINA RESULT:       0.5      2.853      5.613
REMARK  Name = *****
REMARK                            x       y       z     vdW  Elec       q    Type
REMARK                         _______ _______ _______ _____ _____    ______ ____
ROOT
ATOM      1  C   LIG    1       24.781 -17.292   3.640  0.00  0.00    +0.037 C 
ATOM      2  C   LIG    1       25.292 -18.471   2.858  0.00  0.00    +0.062 C 
ATOM      3  C   LIG    1       24.695 -19.843   3.249  0.00  0.00    +0.079 C 
ATOM      4  C   LIG    1       23.856 -19.803   4.568  0.00  0.00    +0.122 C 
ATOM      5  C   LIG    1       22.882 -18.591   4.623  0.00  0.00    +0.164 C 
ATOM      6  C   LIG    1       23.662 -17.329   4.384  0.00  0.00    +0.017 C 
ENDROOT
BRANCH   4   7
ATOM      7  N   LIG    1       24.734 -19.821   5.761  0.00  0.00    -0.308 N 
ATOM      8  H   LIG    1       24.592 -19.126   6.484  0.00  0.00    +0.149 HD
ATOM      9  C   LIG    1       25.831 -20.650   5.839  0.00  0.00    +0.210 C 
ATOM     10  O   LIG    1       26.107 -21.480   4.980  0.00  0.00    -0.276 OA
ATOM     11  C   LIG    1       26.689 -20.441   7.059  0.00  0.00    +0.109 C 
ENDBRANCH   4   7
BRANCH   3  12
ATOM     12  N   LIG    1       23.968 -20.412   2.099  0.00  0.00    -0.325 NA
ATOM     13  H   LIG    1       23.118 -20.869   2.431  0.00  0.00    +0.118 HD
ATOM     14  H   LIG    1       23.676 -19.664   1.467  0.00  0.00    +0.118 HD
ENDBRANCH   3  12
BRANCH   1  15
ATOM     15  C   LIG    1       25.616 -16.058   3.521  0.00  0.00    +0.335 C 
ATOM     16  O   LIG    1       26.714 -16.030   3.019  0.00  0.00    -0.245 OA
BRANCH  15  17
ATOM     17  O   LIG    1       24.952 -15.003   4.071  0.00  0.00    -0.462 OA
BRANCH  17  19
ATOM     18  C   LIG    1       24.542 -13.513   2.262  0.00  0.00    +0.048 C 
ATOM     19  C   LIG    1       25.313 -13.724   3.551  0.00  0.00    +0.229 C 
ENDBRANCH  17  19
ENDBRANCH  15  17
ENDBRANCH   1  15
BRANCH   5  20
ATOM     20  O   LIG    1       21.799 -18.582   3.689  0.00  0.00    -0.367 OA
BRANCH  20  21
ATOM     21  C   LIG    1       20.625 -19.334   4.033  0.00  0.00    +0.119 C 
BRANCH  21  22
ATOM     22  C   LIG    1       20.978 -20.830   3.887  0.00  0.00    +0.028 C 
ATOM     23  C   LIG    1       21.241 -21.571   5.194  0.00  0.00    +0.006 C 
ENDBRANCH  21  22
BRANCH  21  24
ATOM     24  C   LIG    1       19.352 -18.896   3.285  0.00  0.00    +0.028 C 
ATOM     25  C   LIG    1       19.494 -17.821   2.216  0.00  0.00    +0.006 C 
ENDBRANCH  21  24
ENDBRANCH  20  21
ENDBRANCH   5  20
TORSDOF 9
ENDMDL
MODEL 3
REMARK VINA RESULT:       0.7      3.123      5.894
REMARK  Name = *****
REMARK                            x       y       z     vdW  Elec       q    Type
REMARK                         _______ _______ _______ _____ _____    ______ ____
ROOT
ATOM      1  C   LIG    1       24.791 -18.326   3.688  0.00  0.00    +0.037 C 
ATOM      2  C   LIG    1       25.206 -19.599   3.002  0.00  0.00    +0.062 C 
ATOM      3  C   LIG    1       24.621 -20.901   3.597  0.00  0.00    +0.079 C 
ATOM      4  C   LIG    1       23.906 -20.691   4.972  0.00  0.00    +0.122 C 
ATOM      5  C   LIG    1       22.965 -19.453   4.975  0.00  0.00    +0.164 C 
ATOM      6  C   LIG    1       23.744 -18.248   4.528  0.00  0.00    +0.017 C 
ENDROOT
BRANCH   4   7
ATOM      7  N   LIG    1       24.889 -20.603   6.076  0.00  0.00    -0.308 N 
ATOM      8  H   LIG    1       24.561 -20.371   7.007  0.00  0.00    +0.149 HD
ATOM      9  C   LIG    1       26.245 -20.671   5.846  0.00  0.00    +0.210 C 
ATOM     10  O   LIG    1       26.727 -20.891   4.740  0.00  0.00    -0.276 OA
ATOM     11  C   LIG    1       27.101 -20.426   7.061  0.00  0.00    +0.109 C 
ENDBRANCH   4   7
BRANCH   3  12
ATOM     12  N   LIG    1       23.781 -21.572   2.587  0.00  0.00    -0.325 NA
ATOM     13  H   LIG    1       24.081 -21.285   1.655  0.00  0.00    +0.118 HD
ATOM     14  H   LIG    1       23.908 -22.584   2.643  0.00  0.00    +0.118 HD
ENDBRANCH   3  12
BRANCH   1  15
ATOM     15  C   LIG    1       25.635 -17.138   3.357  0.00  0.00    +0.335 C 
ATOM     16  O   LIG    1       26.813 -17.196   3.103  0.00  0.00    -0.245 OA
BRANCH  15  17
ATOM     17  O   LIG    1       24.872 -16.010   3.404  0.00  0.00    -0.462 OA
BRANCH  17  19
ATOM     18  C   LIG    1       24.585 -13.690   3.849  0.00  0.00    +0.048 C 
ATOM     19  C   LIG    1       25.595 -14.802   3.638  0.00  0.00    +0.229 C 
ENDBRANCH  17  19
ENDBRANCH  15  17
ENDBRANCH   1  15
BRANCH   5  20
ATOM     20  O   LIG    1       21.801 -19.515   4.146  0.00  0.00    -0.367 OA
BRANCH  20  21
ATOM     21  C   LIG    1       20.877 -18.420   4.222  0.00  0.00    +0.119 C 
BRANCH  21  22
ATOM     22  C   LIG    1       19.698 -18.748   3.280  0.00  0.00    +0.028 C 
ATOM     23  C   LIG    1       19.450 -17.738   2.164  0.00  0.00    +0.006 C 
ENDBRANCH  21  22
BRANCH  21  24
ATOM     24  C   LIG    1       21.516 -17.037   3.997  0.00  0.00    +0.028 C 
ATOM     25  C   LIG    1       21.643 -16.111   5.199  0.00  0.00    +0.006 C 
ENDBRANCH  21  24
ENDBRANCH  20  21
ENDBRANCH   5  20
TORSDOF 9
ENDMDL
MODEL 4
REMARK VINA RESULT:       0.8      3.258      5.939
REMARK  Name = *****
REMARK                            x       y       z     vdW  Elec       q    Type
REMARK                         _______ _______ _______ _____ _____    ______ ____
ROOT
ATOM      1  C   LIG    1       25.096 -18.525   3.690  0.00  0.00    +0.037 C 
ATOM      2  C   LIG    1       25.318 -19.838   2.991  0.00  0.00    +0.062 C 
ATOM      3  C   LIG    1       24.541 -21.044   3.570  0.00  0.00    +0.079 C 
ATOM      4  C   LIG    1       23.861 -20.742   4.946  0.00  0.00    +0.122 C 
ATOM      5  C   LIG    1       23.117 -19.377   4.961  0.00  0.00    +0.164 C 
ATOM      6  C   LIG    1       24.070 -18.298   4.529  0.00  0.00    +0.017 C 
ENDROOT
BRANCH   4   7
ATOM      7  N   LIG    1       24.843 -20.815   6.053  0.00  0.00    -0.308 N 
ATOM      8  H   LIG    1       24.509 -20.751   7.008  0.00  0.00    +0.149 HD
ATOM      9  C   LIG    1       26.199 -20.808   5.819  0.00  0.00    +0.210 C 
ATOM     10  O   LIG    1       26.686 -20.827   4.694  0.00  0.00    -0.276 OA
ATOM     11  C   LIG    1       27.050 -20.749   7.061  0.00  0.00    +0.109 C 
ENDBRANCH   4   7
BRANCH   3  12
ATOM     12  N   LIG    1       23.613 -21.569   2.551  0.00  0.00    -0.325 NA
ATOM     13  H   LIG    1       24.146 -21.887   1.742  0.00  0.00    +0.118 HD
ATOM     14  H   LIG    1       23.115 -22.382   2.919  0.00  0.00    +0.118 HD
ENDBRANCH   3  12
BRANCH   1  15
ATOM     15  C   LIG    1       26.111 -17.474   3.374  0.00  0.00    +0.335 C 
ATOM     16  O   LIG    1       27.302 -17.626   3.493  0.00  0.00    -0.245 OA
BRANCH  15  17
ATOM     17  O   LIG    1       25.480 -16.342   2.952  0.00  0.00    -0.462 OA
BRANCH  17  19
ATOM     18  C   LIG    1       25.768 -14.351   4.222  0.00  0.00    +0.048 C 
ATOM     19  C   LIG    1       26.260 -15.150   3.031  0.00  0.00    +0.229 C 
ENDBRANCH  17  19
ENDBRANCH  15  17
ENDBRANCH   1  15
BRANCH   5  20
ATOM     20  O   LIG    1       21.960 -19.255   4.129  0.00  0.00    -0.367 OA
BRANCH  20  21
ATOM     21  C   LIG    1       21.548 -17.929   3.762  0.00  0.00    +0.119 C 
BRANCH  21  22
ATOM     22  C   LIG    1       21.958 -16.986   4.915  0.00  0.00    +0.028 C 
ATOM     23  C   LIG    1       22.648 -15.694   4.489  0.00  0.00    +0.006 C 
ENDBRANCH  21  22
BRANCH  21  24
ATOM     24  C   LIG    1       20.073 -17.822   3.335  0.00  0.00    +0.028 C 
ATOM     25  C   LIG    1       19.350 -19.107   2.956  0.00  0.00    +0.006 C 
ENDBRANCH  21  24
ENDBRANCH  20  21
ENDBRANCH   5  20
TORSDOF 9
ENDMDL
MODEL 5
REMARK VINA RESULT:       1.0      2.871      5.293
REMARK  Name = *****
REMARK                            x       y       z     vdW  Elec       q    Type
REMARK                         _______ _______ _______ _____ _____    ______ ____
ROOT
ATOM      1  C   LIG    1       25.769 -16.982   3.328  0.00  0.00    +0.037 C 
ATOM      2  C   LIG    1       26.288 -18.054   2.409  0.00  0.00    +0.062 C 
ATOM      3  C   LIG    1       26.011 -19.509   2.852  0.00  0.00    +0.079 C 
ATOM      4  C   LIG    1       25.467 -19.620   4.315  0.00  0.00    +0.122 C 
ATOM      5  C   LIG    1       24.346 -18.585   4.618  0.00  0.00    +0.164 C 
ATOM      6  C   LIG    1       24.849 -17.210   4.282  0.00  0.00    +0.017 C 
ENDROOT
BRANCH   4   7
ATOM      7  N   LIG    1       26.565 -19.505   5.302  0.00  0.00    -0.308 N 
ATOM      8  H   LIG    1       27.221 -18.737   5.219  0.00  0.00    +0.149 HD
ATOM      9  C   LIG    1       26.813 -20.494   6.228  0.00  0.00    +0.210 C 
ATOM     10  O   LIG    1       26.102 -21.485   6.357  0.00  0.00    -0.276 OA
ATOM     11  C   LIG    1       28.049 -20.278   7.061  0.00  0.00    +0.109 C 
ENDBRANCH   4   7
BRANCH   3  12
ATOM     12  N   LIG    1       25.160 -20.177   1.850  0.00  0.00    -0.325 NA
ATOM     13  H   LIG    1       24.240 -19.737   1.842  0.00  0.00    +0.118 HD
ATOM     14  H   LIG    1       25.558 -20.055   0.917  0.00  0.00    +0.118 HD
ENDBRANCH   3  12
BRANCH   1  15
ATOM     15  C   LIG    1       26.355 -15.627   3.096  0.00  0.00    +0.335 C 
ATOM     16  O   LIG    1       26.060 -14.912   2.170  0.00  0.00    -0.245 OA
BRANCH  15  17
ATOM     17  O   LIG    1       27.263 -15.349   4.074  0.00  0.00    -0.462 OA
BRANCH  17  19
ATOM     18  C   LIG    1       26.206 -13.635   5.342  0.00  0.00    +0.048 C 
ATOM     19  C   LIG    1       27.368 -13.970   4.427  0.00  0.00    +0.229 C 
ENDBRANCH  17  19
ENDBRANCH  15  17
ENDBRANCH   1  15
BRANCH   5  20
ATOM     20  O   LIG    1       23.106 -18.745   3.925  0.00  0.00    -0.367 OA
BRANCH  20  21
ATOM     21  C   LIG    1       22.182 -19.717   4.440  0.00  0.00    +0.119 C 
BRANCH  21  22
ATOM     22  C   LIG    1       20.758 -19.205   4.131  0.00  0.00    +0.028 C 
ATOM     23  C   LIG    1       20.670 -18.125   3.058  0.00  0.00    +0.006 C 
ENDBRANCH  21  22
BRANCH  21  24
ATOM     24  C   LIG    1       22.424 -20.101   5.911  0.00  0.00    +0.028 C 
ATOM     25  C   LIG    1       23.039 -21.465   6.195  0.00  0.00    +0.006 C 
ENDBRANCH  21  24
ENDBRANCH  20  21
ENDBRANCH   5  20
TORSDOF 9
ENDMDL
MODEL 6
REMARK VINA RESULT:       1.2      2.953      5.494
REMARK  Name = *****
REMARK                            x       y       z     vdW  Elec       q    Type
REMARK                         _______ _______ _______ _____ _____    ______ ____
ROOT
ATOM      1  C   LIG    1       25.162 -17.142   3.509  0.00  0.00    +0.037 C 
ATOM      2  C   LIG    1       25.992 -17.932   2.535  0.00  0.00    +0.062 C 
ATOM      3  C   LIG    1       26.268 -19.402   2.929  0.00  0.00    +0.079 C 
ATOM      4  C   LIG    1       25.856 -19.739   4.400  0.00  0.00    +0.122 C 
ATOM      5  C   LIG    1       24.453 -19.181   4.773  0.00  0.00    +0.164 C 
ATOM      6  C   LIG    1       24.420 -17.708   4.477  0.00  0.00    +0.017 C 
ENDROOT
BRANCH   4   7
ATOM      7  N   LIG    1       26.879 -19.267   5.361  0.00  0.00    -0.308 N 
ATOM      8  H   LIG    1       27.097 -18.277   5.398  0.00  0.00    +0.149 HD
ATOM      9  C   LIG    1       27.649 -20.146   6.090  0.00  0.00    +0.210 C 
ATOM     10  O   LIG    1       27.488 -21.361   6.060  0.00  0.00    -0.276 OA
ATOM     11  C   LIG    1       28.730 -19.498   6.914  0.00  0.00    +0.109 C 
ENDBRANCH   4   7
BRANCH   3  12
ATOM     12  N   LIG    1       25.673 -20.303   1.925  0.00  0.00    -0.325 NA
ATOM     13  H   LIG    1       26.414 -20.696   1.344  0.00  0.00    +0.118 HD
ATOM     14  H   LIG    1       25.211 -21.087   2.389  0.00  0.00    +0.118 HD
ENDBRANCH   3  12
BRANCH   1  15
ATOM     15  C   LIG    1       25.217 -15.661   3.314  0.00  0.00    +0.335 C 
ATOM     16  O   LIG    1       24.331 -14.904   3.627  0.00  0.00    -0.245 OA
BRANCH  15  17
ATOM     17  O   LIG    1       26.400 -15.322   2.729  0.00  0.00    -0.462 OA
BRANCH  17  19
ATOM     18  C   LIG    1       28.122 -14.702   4.250  0.00  0.00    +0.048 C 
ATOM     19  C   LIG    1       27.055 -14.190   3.301  0.00  0.00    +0.229 C 
ENDBRANCH  17  19
ENDBRANCH  15  17
ENDBRANCH   1  15
BRANCH   5  20
ATOM     20  O   LIG    1       23.325 -19.755   4.107  0.00  0.00    -0.367 OA
BRANCH  20  21
ATOM     21  C   LIG    1       22.160 -20.030   4.900  0.00  0.00    +0.119 C 
BRANCH  21  22
ATOM     22  C   LIG    1       22.431 -21.340   5.673  0.00  0.00    +0.028 C 
ATOM     23  C   LIG    1       23.070 -21.169   7.048  0.00  0.00    +0.006 C 
ENDBRANCH  21  22
BRANCH  21  24
ATOM     24  C   LIG    1       20.839 -20.009   4.111  0.00  0.00    +0.028 C 
ATOM     25  C   LIG    1       20.405 -18.688   3.491  0.00  0.00    +0.006 C 
ENDBRANCH  21  24
ENDBRANCH  20  21
ENDBRANCH   5  20
TORSDOF 9
ENDMDL
MODEL 7
REMARK VINA RESULT:       1.5      3.050      6.525
REMARK  Name = *****
REMARK                            x       y       z     vdW  Elec       q    Type
REMARK                         _______ _______ _______ _____ _____    ______ ____
ROOT
ATOM      1  C   LIG    1       26.280 -19.922   5.318  0.00  0.00    +0.037 C 
ATOM      2  C   LIG    1       26.055 -20.851   4.156  0.00  0.00    +0.062 C 
ATOM      3  C   LIG    1       25.000 -20.388   3.124  0.00  0.00    +0.079 C 
ATOM      4  C   LIG    1       24.160 -19.158   3.602  0.00  0.00    +0.122 C 
ATOM      5  C   LIG    1       25.038 -18.041   4.233  0.00  0.00    +0.164 C 
ATOM      6  C   LIG    1       25.877 -18.639   5.327  0.00  0.00    +0.017 C 
ENDROOT
BRANCH   4   7
ATOM      7  N   LIG    1       23.091 -19.575   4.539  0.00  0.00    -0.308 N 
ATOM      8  H   LIG    1       22.903 -19.001   5.353  0.00  0.00    +0.149 HD
ATOM      9  C   LIG    1       22.459 -20.792   4.421  0.00  0.00    +0.210 C 
ATOM     10  O   LIG    1       22.670 -21.571   3.497  0.00  0.00    -0.276 OA
ATOM     11  C   LIG    1       21.498 -21.111   5.536  0.00  0.00    +0.109 C 
ENDBRANCH   4   7
BRANCH   3  12
ATOM     12  N   LIG    1       25.645 -20.192   1.812  0.00  0.00    -0.325 NA
ATOM     13  H   LIG    1       25.300 -20.896   1.159  0.00  0.00    +0.118 HD
ATOM     14  H   LIG    1       25.390 -19.280   1.430  0.00  0.00    +0.118 HD
ENDBRANCH   3  12
BRANCH   1  15
ATOM     15  C   LIG    1       27.000 -20.537   6.474  0.00  0.00    +0.335 C 
ATOM     16  O   LIG    1       26.622 -21.521   7.061  0.00  0.00    -0.245 OA
BRANCH  15  17
ATOM     17  O   LIG    1       28.119 -19.810   6.752  0.00  0.00    -0.462 OA
BRANCH  17  19
ATOM     18  C   LIG    1       29.425 -18.246   5.523  0.00  0.00    +0.048 C 
ATOM     19  C   LIG    1       29.055 -19.709   5.680  0.00  0.00    +0.229 C 
ENDBRANCH  17  19
ENDBRANCH  15  17
ENDBRANCH   1  15
BRANCH   5  20
ATOM     20  O   LIG    1       25.938 -17.348   3.363  0.00  0.00    -0.367 OA
BRANCH  20  21
ATOM     21  C   LIG    1       25.771 -15.928   3.236  0.00  0.00    +0.119 C 
BRANCH  21  22
ATOM     22  C   LIG    1       27.130 -15.275   3.571  0.00  0.00    +0.028 C 
ATOM     23  C   LIG    1       27.072 -13.795   3.938  0.00  0.00    +0.006 C 
ENDBRANCH  21  22
BRANCH  21  24
ATOM     24  C   LIG    1       24.572 -15.360   4.016  0.00  0.00    +0.028 C 
ATOM     25  C   LIG    1       24.066 -13.977   3.629  0.00  0.00    +0.006 C 
ENDBRANCH  21  24
ENDBRANCH  20  21
ENDBRANCH   5  20
TORSDOF 9
ENDMDL
MODEL 8
REMARK VINA RESULT:       2.8      2.358      4.078
REMARK  Name = *****
REMARK                            x       y       z     vdW  Elec       q    Type
REMARK                         _______ _______ _______ _____ _____    ______ ____
ROOT
ATOM      1  C   LIG    1       23.845 -15.815   3.979  0.00  0.00    +0.037 C 
ATOM      2  C   LIG    1       22.873 -15.819   5.128  0.00  0.00    +0.062 C 
ATOM      3  C   LIG    1       22.125 -17.151   5.367  0.00  0.00    +0.079 C 
ATOM      4  C   LIG    1       22.313 -18.187   4.210  0.00  0.00    +0.122 C 
ATOM      5  C   LIG    1       23.793 -18.305   3.746  0.00  0.00    +0.164 C 
ATOM      6  C   LIG    1       24.306 -16.937   3.398  0.00  0.00    +0.017 C 
ENDROOT
BRANCH   4   7
ATOM      7  N   LIG    1       21.430 -17.871   3.063  0.00  0.00    -0.308 N 
ATOM      8  H   LIG    1       21.729 -17.172   2.393  0.00  0.00    +0.149 HD
ATOM      9  C   LIG    1       20.156 -18.383   2.969  0.00  0.00    +0.210 C 
ATOM     10  O   LIG    1       19.696 -19.191   3.769  0.00  0.00    -0.276 OA
ATOM     11  C   LIG    1       19.350 -17.851   1.813  0.00  0.00    +0.109 C 
ENDBRANCH   4   7
BRANCH   3  12
ATOM     12  N   LIG    1       22.471 -17.680   6.699  0.00  0.00    -0.325 NA
ATOM     13  H   LIG    1       22.758 -18.656   6.610  0.00  0.00    +0.118 HD
ATOM     14  H   LIG    1       23.268 -17.169   7.082  0.00  0.00    +0.118 HD
ENDBRANCH   3  12
BRANCH   1  15
ATOM     15  C   LIG    1       24.270 -14.454   3.529  0.00  0.00    +0.335 C 
ATOM     16  O   LIG    1       23.519 -13.518   3.406  0.00  0.00    -0.245 OA
BRANCH  15  17
ATOM     17  O   LIG    1       25.609 -14.455   3.278  0.00  0.00    -0.462 OA
BRANCH  17  19
ATOM     18  C   LIG    1       27.867 -14.135   3.957  0.00  0.00    +0.048 C 
ATOM     19  C   LIG    1       26.440 -14.338   4.432  0.00  0.00    +0.229 C 
ENDBRANCH  17  19
ENDBRANCH  15  17
ENDBRANCH   1  15
BRANCH   5  20
ATOM     20  O   LIG    1       24.725 -18.865   4.676  0.00  0.00    -0.367 OA
BRANCH  20  21
ATOM     21  C   LIG    1       24.910 -20.288   4.650  0.00  0.00    +0.119 C 
BRANCH  21  22
ATOM     22  C   LIG    1       23.510 -20.930   4.526  0.00  0.00    +0.028 C 
ATOM     23  C   LIG    1       22.841 -21.303   5.845  0.00  0.00    +0.006 C 
ENDBRANCH  21  22
BRANCH  21  24
ATOM     24  C   LIG    1       25.769 -20.835   5.805  0.00  0.00    +0.028 C 
ATOM     25  C   LIG    1       27.060 -20.099   6.137  0.00  0.00    +0.006 C 
ENDBRANCH  21  24
ENDBRANCH  20  21
ENDBRANCH   5  20
TORSDOF 9
ENDMDL
MODEL 9
REMARK VINA RESULT:       2.9      2.991      6.372
REMARK  Name = *****
REMARK                            x       y       z     vdW  Elec       q    Type
REMARK                         _______ _______ _______ _____ _____    ______ ____
ROOT
ATOM      1  C   LIG    1       23.452 -19.153   4.202  0.00  0.00    +0.037 C 
ATOM      2  C   LIG    1       23.698 -19.608   2.790  0.00  0.00    +0.062 C 
ATOM      3  C   LIG    1       25.111 -19.321   2.231  0.00  0.00    +0.079 C 
ATOM      4  C   LIG    1       25.958 -18.371   3.141  0.00  0.00    +0.122 C 
ATOM      5  C   LIG    1       25.881 -18.757   4.646  0.00  0.00    +0.164 C 
ATOM      6  C   LIG    1       24.438 -18.830   5.057  0.00  0.00    +0.017 C 
ENDROOT
BRANCH   4   7
ATOM      7  N   LIG    1       25.569 -16.956   2.943  0.00  0.00    -0.308 N 
ATOM      8  H   LIG    1       24.691 -16.750   2.479  0.00  0.00    +0.149 HD
ATOM      9  C   LIG    1       26.431 -15.921   3.228  0.00  0.00    +0.210 C 
ATOM     10  O   LIG    1       27.534 -16.088   3.737  0.00  0.00    -0.276 OA
ATOM     11  C   LIG    1       25.924 -14.557   2.839  0.00  0.00    +0.109 C 
ENDBRANCH   4   7
BRANCH   3  12
ATOM     12  N   LIG    1       25.785 -20.593   1.911  0.00  0.00    -0.325 NA
ATOM     13  H   LIG    1       26.789 -20.489   2.059  0.00  0.00    +0.118 HD
ATOM     14  H   LIG    1       25.465 -21.326   2.546  0.00  0.00    +0.118 HD
ENDBRANCH   3  12
BRANCH   1  15
ATOM     15  C   LIG    1       22.010 -19.093   4.593  0.00  0.00    +0.335 C 
ATOM     16  O   LIG    1       21.402 -18.068   4.780  0.00  0.00    -0.245 OA
BRANCH  15  17
ATOM     17  O   LIG    1       21.516 -20.358   4.710  0.00  0.00    -0.462 OA
BRANCH  17  19
ATOM     18  C   LIG    1       22.660 -21.021   6.688  0.00  0.00    +0.048 C 
ATOM     19  C   LIG    1       22.439 -21.321   5.218  0.00  0.00    +0.229 C 
ENDBRANCH  17  19
ENDBRANCH  15  17
ENDBRANCH   1  15
BRANCH   5  20
ATOM     20  O   LIG    1       26.478 -19.998   5.033  0.00  0.00    -0.367 OA
BRANCH  20  21
ATOM     21  C   LIG    1       27.904 -20.023   5.193  0.00  0.00    +0.119 C 
BRANCH  21  22
ATOM     22  C   LIG    1       28.193 -20.216   6.698  0.00  0.00    +0.028 C 
ATOM     23  C   LIG    1       29.193 -21.316   7.037  0.00  0.00    +0.006 C 
ENDBRANCH  21  22
BRANCH  21  24
ATOM     24  C   LIG    1       28.634 -18.833   4.543  0.00  0.00    +0.028 C 
ATOM     25  C   LIG    1       29.177 -17.748   5.463  0.00  0.00    +0.006 C 
ENDBRANCH  21  24
ENDBRANCH  20  21
ENDBRANCH   5  20
TORSDOF 9
ENDMDL
