MODEL 1
REMARK VINA RESULT:      -7.1      0.000      0.000
REMARK  Name = *****
REMARK                            x       y       z     vdW  Elec       q    Type
REMARK                         _______ _______ _______ _____ _____    ______ ____
ROOT
ATOM      1  N   LIG    1       26.017 -30.948   8.491  0.00  0.00    -0.227 N 
ATOM      2  C   LIG    1       25.714 -30.091   7.457  0.00  0.00    +0.134 A 
ATOM      3  C   LIG    1       25.226 -28.740   7.515  0.00  0.00    +0.270 C 
ATOM      4  N   LIG    1       25.332 -28.009   6.298  0.00  0.00    -0.266 N 
ATOM      5  C   LIG    1       25.922 -28.678   5.106  0.00  0.00    +0.119 C 
ATOM      6  C   LIG    1       25.590 -30.179   4.988  0.00  0.00    +0.059 C 
ATOM      7  O   LIG    1       24.704 -28.331   8.550  0.00  0.00    -0.268 OA
ATOM      8  C   LIG    1       25.832 -30.814   6.295  0.00  0.00    +0.017 A 
ATOM      9  C   LIG    1       26.072 -32.143   6.691  0.00  0.00    +0.151 A 
ATOM     10  N   LIG    1       26.127 -32.236   8.037  0.00  0.00    -0.161 NA
ENDROOT
BRANCH   1  14
ATOM     11  C   LIG    1       26.708 -30.103  12.586  0.00  0.00    +0.120 A 
ATOM     12  C   LIG    1       25.598 -30.848  12.190  0.00  0.00    +0.048 A 
ATOM     13  C   LIG    1       25.383 -31.137  10.837  0.00  0.00    +0.031 A 
ATOM     14  C   LIG    1       26.266 -30.655   9.864  0.00  0.00    +0.066 A 
ATOM     15  C   LIG    1       27.394 -29.926  10.265  0.00  0.00    +0.031 A 
ATOM     16  C   LIG    1       27.615 -29.663  11.622  0.00  0.00    +0.048 A 
BRANCH  11  18
ATOM     17  C   LIG    1       28.422 -29.708  14.157  0.00  0.00    +0.277 C 
ATOM     18  O   LIG    1       27.028 -29.798  13.881  0.00  0.00    -0.495 OA
ENDBRANCH  11  18
ENDBRANCH   1  14
BRANCH   4  19
ATOM     19  C   LIG    1       25.052 -26.587   6.232  0.00  0.00    +0.037 A 
ATOM     20  C   LIG    1       26.004 -25.620   6.579  0.00  0.00    +0.025 A 
ATOM     21  C   LIG    1       25.732 -24.240   6.488  0.00  0.00    +0.025 A 
ATOM     22  C   LIG    1       24.492 -23.754   6.053  0.00  0.00    +0.036 A 
ATOM     23  C   LIG    1       23.531 -24.716   5.764  0.00  0.00    +0.025 A 
ATOM     24  C   LIG    1       23.808 -26.088   5.838  0.00  0.00    +0.025 A 
BRANCH  22  25
ATOM     25  N   LIG    1       24.226 -22.338   5.921  0.00  0.00    -0.271 N 
ATOM     26  C   LIG    1       23.515 -21.636   6.911  0.00  0.00    +0.220 C 
ATOM     27  O   LIG    1       23.078 -22.112   7.962  0.00  0.00    -0.275 OA
ATOM     28  C   LIG    1       23.320 -20.146   6.711  0.00  0.00    +0.096 C 
ATOM     29  C   LIG    1       23.249 -19.717   5.265  0.00  0.00    +0.011 C 
ATOM     30  C   LIG    1       24.491 -20.222   4.569  0.00  0.00    +0.020 C 
ATOM     31  C   LIG    1       24.487 -21.740   4.605  0.00  0.00    +0.114 C 
ENDBRANCH  22  25
ENDBRANCH   4  19
BRANCH   9  32
ATOM     32  C   LIG    1       26.198 -33.317   5.816  0.00  0.00    +0.262 C 
ATOM     33  O   LIG    1       25.258 -33.823   5.212  0.00  0.00    -0.269 OA
ATOM     34  N   LIG    1       27.462 -33.825   5.729  0.00  0.00    -0.324 N 
ATOM     35  H   LIG    1       27.625 -34.658   5.185  0.00  0.00    +0.145 HD
ATOM     36  H   LIG    1       28.199 -33.401   6.279  0.00  0.00    +0.145 HD
ENDBRANCH   9  32
TORSDOF 5
ENDMDL
MODEL 2
REMARK VINA RESULT:      -6.9      3.160      9.831
REMARK  Name = *****
REMARK                            x       y       z     vdW  Elec       q    Type
REMARK                         _______ _______ _______ _____ _____    ______ ____
ROOT
ATOM      1  N   LIG    1       25.704 -21.249   6.196  0.00  0.00    -0.227 N 
ATOM      2  C   LIG    1       24.984 -22.421   6.144  0.00  0.00    +0.134 A 
ATOM      3  C   LIG    1       25.460 -23.778   6.184  0.00  0.00    +0.270 C 
ATOM      4  N   LIG    1       24.461 -24.757   6.452  0.00  0.00    -0.266 N 
ATOM      5  C   LIG    1       23.056 -24.313   6.664  0.00  0.00    +0.119 C 
ATOM      6  C   LIG    1       22.632 -23.107   5.802  0.00  0.00    +0.059 C 
ATOM      7  O   LIG    1       26.639 -24.012   5.929  0.00  0.00    -0.268 OA
ATOM      8  C   LIG    1       23.677 -22.074   5.900  0.00  0.00    +0.017 A 
ATOM      9  C   LIG    1       23.685 -20.685   5.673  0.00  0.00    +0.151 A 
ATOM     10  N   LIG    1       24.934 -20.189   5.795  0.00  0.00    -0.161 NA
ENDROOT
BRANCH   1  14
ATOM     11  C   LIG    1       29.687 -20.563   7.471  0.00  0.00    +0.120 A 
ATOM     12  C   LIG    1       29.199 -19.969   6.307  0.00  0.00    +0.048 A 
ATOM     13  C   LIG    1       27.878 -20.188   5.899  0.00  0.00    +0.031 A 
ATOM     14  C   LIG    1       27.040 -21.029   6.640  0.00  0.00    +0.066 A 
ATOM     15  C   LIG    1       27.524 -21.606   7.822  0.00  0.00    +0.031 A 
ATOM     16  C   LIG    1       28.839 -21.363   8.237  0.00  0.00    +0.048 A 
BRANCH  11  18
ATOM     17  C   LIG    1       31.383 -19.031   8.055  0.00  0.00    +0.277 C 
ATOM     18  O   LIG    1       30.946 -20.385   7.975  0.00  0.00    -0.495 OA
ENDBRANCH  11  18
ENDBRANCH   1  14
BRANCH   4  19
ATOM     19  C   LIG    1       24.799 -26.145   6.703  0.00  0.00    +0.037 A 
ATOM     20  C   LIG    1       25.846 -26.520   7.554  0.00  0.00    +0.025 A 
ATOM     21  C   LIG    1       26.151 -27.871   7.811  0.00  0.00    +0.025 A 
ATOM     22  C   LIG    1       25.430 -28.920   7.225  0.00  0.00    +0.036 A 
ATOM     23  C   LIG    1       24.429 -28.547   6.337  0.00  0.00    +0.025 A 
ATOM     24  C   LIG    1       24.115 -27.201   6.095  0.00  0.00    +0.025 A 
BRANCH  22  25
ATOM     25  N   LIG    1       25.717 -30.308   7.520  0.00  0.00    -0.271 N 
ATOM     26  C   LIG    1       25.930 -31.241   6.490  0.00  0.00    +0.220 C 
ATOM     27  O   LIG    1       25.921 -30.999   5.281  0.00  0.00    -0.275 OA
ATOM     28  C   LIG    1       26.267 -32.664   6.891  0.00  0.00    +0.096 C 
ATOM     29  C   LIG    1       25.669 -33.096   8.209  0.00  0.00    +0.011 C 
ATOM     30  C   LIG    1       26.091 -32.097   9.261  0.00  0.00    +0.020 C 
ATOM     31  C   LIG    1       25.507 -30.742   8.908  0.00  0.00    +0.114 C 
ENDBRANCH  22  25
ENDBRANCH   4  19
BRANCH   9  32
ATOM     32  C   LIG    1       22.539 -19.846   5.295  0.00  0.00    +0.262 C 
ATOM     33  O   LIG    1       22.454 -18.649   5.553  0.00  0.00    -0.269 OA
ATOM     34  N   LIG    1       21.546 -20.508   4.632  0.00  0.00    -0.324 N 
ATOM     35  H   LIG    1       20.705 -20.014   4.378  0.00  0.00    +0.145 HD
ATOM     36  H   LIG    1       21.640 -21.504   4.480  0.00  0.00    +0.145 HD
ENDBRANCH   9  32
TORSDOF 5
ENDMDL
MODEL 3
REMARK VINA RESULT:      -6.6      5.014      9.007
REMARK  Name = *****
REMARK                            x       y       z     vdW  Elec       q    Type
REMARK                         _______ _______ _______ _____ _____    ______ ____
ROOT
ATOM      1  N   LIG    1       24.033 -27.419  13.881  0.00  0.00    -0.227 N 
ATOM      2  C   LIG    1       24.867 -27.930  12.913  0.00  0.00    +0.134 A 
ATOM      3  C   LIG    1       24.603 -28.955  11.940  0.00  0.00    +0.270 C 
ATOM      4  N   LIG    1       25.538 -29.024  10.868  0.00  0.00    -0.266 N 
ATOM      5  C   LIG    1       26.672 -28.060  10.841  0.00  0.00    +0.119 C 
ATOM      6  C   LIG    1       27.233 -27.696  12.230  0.00  0.00    +0.059 C 
ATOM      7  O   LIG    1       23.662 -29.727  12.117  0.00  0.00    -0.268 OA
ATOM      8  C   LIG    1       26.104 -27.368  13.118  0.00  0.00    +0.017 A 
ATOM      9  C   LIG    1       25.999 -26.631  14.312  0.00  0.00    +0.151 A 
ATOM     10  N   LIG    1       24.747 -26.710  14.811  0.00  0.00    -0.161 NA
ENDROOT
BRANCH   1  14
ATOM     11  C   LIG    1       19.807 -27.598  14.147  0.00  0.00    +0.120 A 
ATOM     12  C   LIG    1       20.430 -26.667  13.316  0.00  0.00    +0.048 A 
ATOM     13  C   LIG    1       21.826 -26.622  13.221  0.00  0.00    +0.031 A 
ATOM     14  C   LIG    1       22.613 -27.494  13.982  0.00  0.00    +0.066 A 
ATOM     15  C   LIG    1       21.986 -28.444  14.800  0.00  0.00    +0.031 A 
ATOM     16  C   LIG    1       20.589 -28.499  14.871  0.00  0.00    +0.048 A 
BRANCH  11  18
ATOM     17  C   LIG    1       17.704 -26.537  14.269  0.00  0.00    +0.277 C 
ATOM     18  O   LIG    1       18.454 -27.748  14.284  0.00  0.00    -0.495 OA
ENDBRANCH  11  18
ENDBRANCH   1  14
BRANCH   4  19
ATOM     19  C   LIG    1       25.320 -29.877   9.716  0.00  0.00    +0.037 A 
ATOM     20  C   LIG    1       25.063 -29.361   8.440  0.00  0.00    +0.025 A 
ATOM     21  C   LIG    1       24.878 -30.198   7.321  0.00  0.00    +0.025 A 
ATOM     22  C   LIG    1       24.932 -31.594   7.420  0.00  0.00    +0.036 A 
ATOM     23  C   LIG    1       25.130 -32.105   8.698  0.00  0.00    +0.025 A 
ATOM     24  C   LIG    1       25.332 -31.271   9.807  0.00  0.00    +0.025 A 
BRANCH  22  25
ATOM     25  N   LIG    1       24.782 -32.453   6.265  0.00  0.00    -0.271 N 
ATOM     26  C   LIG    1       25.901 -32.892   5.535  0.00  0.00    +0.220 C 
ATOM     27  O   LIG    1       27.079 -32.633   5.792  0.00  0.00    -0.275 OA
ATOM     28  C   LIG    1       25.654 -33.825   4.365  0.00  0.00    +0.096 C 
ATOM     29  C   LIG    1       24.322 -33.625   3.683  0.00  0.00    +0.011 C 
ATOM     30  C   LIG    1       23.241 -33.736   4.732  0.00  0.00    +0.020 C 
ATOM     31  C   LIG    1       23.420 -32.614   5.738  0.00  0.00    +0.114 C 
ENDBRANCH  22  25
ENDBRANCH   4  19
BRANCH   9  32
ATOM     32  C   LIG    1       27.075 -25.904  14.999  0.00  0.00    +0.262 C 
ATOM     33  O   LIG    1       28.109 -26.431  15.398  0.00  0.00    -0.269 OA
ATOM     34  N   LIG    1       26.834 -24.572  15.178  0.00  0.00    -0.324 N 
ATOM     35  H   LIG    1       27.503 -24.011  15.682  0.00  0.00    +0.145 HD
ATOM     36  H   LIG    1       25.948 -24.190  14.872  0.00  0.00    +0.145 HD
ENDBRANCH   9  32
TORSDOF 5
ENDMDL
MODEL 4
REMARK VINA RESULT:      -6.0      4.123      8.492
REMARK  Name = *****
REMARK                            x       y       z     vdW  Elec       q    Type
REMARK                         _______ _______ _______ _____ _____    ______ ____
ROOT
ATOM      1  N   LIG    1       25.191 -29.799   6.152  0.00  0.00    -0.227 N 
ATOM      2  C   LIG    1       24.597 -30.749   6.950  0.00  0.00    +0.134 A 
ATOM      3  C   LIG    1       24.031 -30.602   8.264  0.00  0.00    +0.270 C 
ATOM      4  N   LIG    1       23.197 -31.677   8.683  0.00  0.00    -0.266 N 
ATOM      5  C   LIG    1       22.984 -32.825   7.759  0.00  0.00    +0.119 C 
ATOM      6  C   LIG    1       24.213 -33.193   6.906  0.00  0.00    +0.059 C 
ATOM      7  O   LIG    1       24.340 -29.629   8.949  0.00  0.00    -0.268 OA
ATOM      8  C   LIG    1       24.758 -31.957   6.316  0.00  0.00    +0.017 A 
ATOM      9  C   LIG    1       25.581 -31.701   5.203  0.00  0.00    +0.151 A 
ATOM     10  N   LIG    1       25.895 -30.390   5.135  0.00  0.00    -0.161 NA
ENDROOT
BRANCH   1  14
ATOM     11  C   LIG    1       25.002 -25.573   6.416  0.00  0.00    +0.120 A 
ATOM     12  C   LIG    1       25.973 -26.288   7.117  0.00  0.00    +0.048 A 
ATOM     13  C   LIG    1       26.040 -27.683   7.014  0.00  0.00    +0.031 A 
ATOM     14  C   LIG    1       25.113 -28.377   6.228  0.00  0.00    +0.066 A 
ATOM     15  C   LIG    1       24.153 -27.657   5.506  0.00  0.00    +0.031 A 
ATOM     16  C   LIG    1       24.108 -26.260   5.594  0.00  0.00    +0.048 A 
BRANCH  11  18
ATOM     17  C   LIG    1       25.908 -23.505   7.098  0.00  0.00    +0.277 C 
ATOM     18  O   LIG    1       24.874 -24.211   6.419  0.00  0.00    -0.495 OA
ENDBRANCH  11  18
ENDBRANCH   1  14
BRANCH   4  19
ATOM     19  C   LIG    1       22.409 -31.605   9.899  0.00  0.00    +0.037 A 
ATOM     20  C   LIG    1       22.995 -31.538  11.169  0.00  0.00    +0.025 A 
ATOM     21  C   LIG    1       22.222 -31.443  12.343  0.00  0.00    +0.025 A 
ATOM     22  C   LIG    1       20.821 -31.417  12.310  0.00  0.00    +0.036 A 
ATOM     23  C   LIG    1       20.241 -31.541  11.053  0.00  0.00    +0.025 A 
ATOM     24  C   LIG    1       21.012 -31.618   9.885  0.00  0.00    +0.025 A 
BRANCH  22  25
ATOM     25  N   LIG    1       20.027 -31.279  13.512  0.00  0.00    -0.271 N 
ATOM     26  C   LIG    1       19.497 -32.406  14.167  0.00  0.00    +0.220 C 
ATOM     27  O   LIG    1       19.655 -33.580  13.828  0.00  0.00    -0.275 OA
ATOM     28  C   LIG    1       18.714 -32.170  15.445  0.00  0.00    +0.096 C 
ATOM     29  C   LIG    1       17.999 -30.842  15.499  0.00  0.00    +0.011 C 
ATOM     30  C   LIG    1       19.017 -29.755  15.252  0.00  0.00    +0.020 C 
ATOM     31  C   LIG    1       19.581 -29.922  13.853  0.00  0.00    +0.114 C 
ENDBRANCH  22  25
ENDBRANCH   4  19
BRANCH   9  32
ATOM     32  C   LIG    1       26.105 -32.686   4.247  0.00  0.00    +0.262 C 
ATOM     33  O   LIG    1       27.010 -33.473   4.503  0.00  0.00    -0.269 OA
ATOM     34  N   LIG    1       25.508 -32.655   3.019  0.00  0.00    -0.324 N 
ATOM     35  H   LIG    1       25.840 -33.268   2.291  0.00  0.00    +0.145 HD
ATOM     36  H   LIG    1       24.795 -31.959   2.839  0.00  0.00    +0.145 HD
ENDBRANCH   9  32
TORSDOF 5
ENDMDL
MODEL 5
REMARK VINA RESULT:      -5.7      1.432      1.957
REMARK  Name = *****
REMARK                            x       y       z     vdW  Elec       q    Type
REMARK                         _______ _______ _______ _____ _____    ______ ____
ROOT
ATOM      1  N   LIG    1       25.183 -31.557   7.765  0.00  0.00    -0.227 N 
ATOM      2  C   LIG    1       25.213 -30.498   6.886  0.00  0.00    +0.134 A 
ATOM      3  C   LIG    1       24.778 -29.143   7.087  0.00  0.00    +0.270 C 
ATOM      4  N   LIG    1       25.247 -28.210   6.118  0.00  0.00    -0.266 N 
ATOM      5  C   LIG    1       26.123 -28.697   5.017  0.00  0.00    +0.119 C 
ATOM      6  C   LIG    1       25.783 -30.112   4.510  0.00  0.00    +0.059 C 
ATOM      7  O   LIG    1       24.002 -28.888   8.005  0.00  0.00    -0.268 OA
ATOM      8  C   LIG    1       25.625 -31.000   5.675  0.00  0.00    +0.017 A 
ATOM      9  C   LIG    1       25.696 -32.396   5.841  0.00  0.00    +0.151 A 
ATOM     10  N   LIG    1       25.368 -32.743   7.103  0.00  0.00    -0.161 NA
ENDROOT
BRANCH   1  14
ATOM     11  C   LIG    1       24.724 -31.548  11.978  0.00  0.00    +0.120 A 
ATOM     12  C   LIG    1       23.653 -31.871  11.146  0.00  0.00    +0.048 A 
ATOM     13  C   LIG    1       23.814 -31.887   9.755  0.00  0.00    +0.031 A 
ATOM     14  C   LIG    1       25.047 -31.550   9.184  0.00  0.00    +0.066 A 
ATOM     15  C   LIG    1       26.129 -31.247  10.022  0.00  0.00    +0.031 A 
ATOM     16  C   LIG    1       25.966 -31.258  11.412  0.00  0.00    +0.048 A 
BRANCH  11  18
ATOM     17  C   LIG    1       23.509 -32.107  13.920  0.00  0.00    +0.277 C 
ATOM     18  O   LIG    1       24.681 -31.539  13.345  0.00  0.00    -0.495 OA
ENDBRANCH  11  18
ENDBRANCH   1  14
BRANCH   4  19
ATOM     19  C   LIG    1       25.050 -26.782   6.273  0.00  0.00    +0.037 A 
ATOM     20  C   LIG    1       23.915 -26.125   5.782  0.00  0.00    +0.025 A 
ATOM     21  C   LIG    1       23.720 -24.740   5.960  0.00  0.00    +0.025 A 
ATOM     22  C   LIG    1       24.653 -23.938   6.629  0.00  0.00    +0.036 A 
ATOM     23  C   LIG    1       25.805 -24.582   7.065  0.00  0.00    +0.025 A 
ATOM     24  C   LIG    1       25.990 -25.963   6.904  0.00  0.00    +0.025 A 
BRANCH  22  25
ATOM     25  N   LIG    1       24.434 -22.524   6.847  0.00  0.00    -0.271 N 
ATOM     26  C   LIG    1       25.079 -21.841   7.894  0.00  0.00    +0.220 C 
ATOM     27  O   LIG    1       25.881 -22.332   8.692  0.00  0.00    -0.275 OA
ATOM     28  C   LIG    1       24.826 -20.351   8.021  0.00  0.00    +0.096 C 
ATOM     29  C   LIG    1       23.465 -19.910   7.538  0.00  0.00    +0.011 C 
ATOM     30  C   LIG    1       23.296 -20.393   6.117  0.00  0.00    +0.020 C 
ATOM     31  C   LIG    1       23.322 -21.910   6.111  0.00  0.00    +0.114 C 
ENDBRANCH  22  25
ENDBRANCH   4  19
BRANCH   9  32
ATOM     32  C   LIG    1       26.019 -33.392   4.810  0.00  0.00    +0.262 C 
ATOM     33  O   LIG    1       25.207 -33.823   3.998  0.00  0.00    -0.269 OA
ATOM     34  N   LIG    1       27.314 -33.825   4.827  0.00  0.00    -0.324 N 
ATOM     35  H   LIG    1       27.606 -34.542   4.181  0.00  0.00    +0.145 HD
ATOM     36  H   LIG    1       27.937 -33.474   5.543  0.00  0.00    +0.145 HD
ENDBRANCH   9  32
TORSDOF 5
ENDMDL
MODEL 6
REMARK VINA RESULT:      -5.5      1.229      1.448
REMARK  Name = *****
REMARK                            x       y       z     vdW  Elec       q    Type
REMARK                         _______ _______ _______ _____ _____    ______ ____
ROOT
ATOM      1  N   LIG    1       25.084 -31.384   7.902  0.00  0.00    -0.227 N 
ATOM      2  C   LIG    1       25.200 -30.387   6.960  0.00  0.00    +0.134 A 
ATOM      3  C   LIG    1       24.687 -29.045   6.996  0.00  0.00    +0.270 C 
ATOM      4  N   LIG    1       25.254 -28.158   6.037  0.00  0.00    -0.266 N 
ATOM      5  C   LIG    1       26.298 -28.674   5.110  0.00  0.00    +0.119 C 
ATOM      6  C   LIG    1       26.091 -30.136   4.666  0.00  0.00    +0.059 C 
ATOM      7  O   LIG    1       23.776 -28.767   7.774  0.00  0.00    -0.268 OA
ATOM      8  C   LIG    1       25.802 -30.949   5.860  0.00  0.00    +0.017 A 
ATOM      9  C   LIG    1       25.904 -32.325   6.138  0.00  0.00    +0.151 A 
ATOM     10  N   LIG    1       25.410 -32.601   7.364  0.00  0.00    -0.161 NA
ENDROOT
BRANCH   1  14
ATOM     11  C   LIG    1       24.022 -31.113  11.996  0.00  0.00    +0.120 A 
ATOM     12  C   LIG    1       23.112 -31.593  11.054  0.00  0.00    +0.048 A 
ATOM     13  C   LIG    1       23.474 -31.694   9.705  0.00  0.00    +0.031 A 
ATOM     14  C   LIG    1       24.744 -31.287   9.283  0.00  0.00    +0.066 A 
ATOM     15  C   LIG    1       25.665 -30.826  10.234  0.00  0.00    +0.031 A 
ATOM     16  C   LIG    1       25.305 -30.751  11.584  0.00  0.00    +0.048 A 
BRANCH  11  18
ATOM     17  C   LIG    1       24.942 -30.983  14.164  0.00  0.00    +0.277 C 
ATOM     18  O   LIG    1       23.781 -31.009  13.339  0.00  0.00    -0.495 OA
ENDBRANCH  11  18
ENDBRANCH   1  14
BRANCH   4  19
ATOM     19  C   LIG    1       24.980 -26.734   6.055  0.00  0.00    +0.037 A 
ATOM     20  C   LIG    1       25.673 -25.848   6.889  0.00  0.00    +0.025 A 
ATOM     21  C   LIG    1       25.418 -24.462   6.882  0.00  0.00    +0.025 A 
ATOM     22  C   LIG    1       24.450 -23.890   6.046  0.00  0.00    +0.036 A 
ATOM     23  C   LIG    1       23.724 -24.777   5.260  0.00  0.00    +0.025 A 
ATOM     24  C   LIG    1       23.992 -26.154   5.256  0.00  0.00    +0.025 A 
BRANCH  22  25
ATOM     25  N   LIG    1       24.215 -22.462   6.009  0.00  0.00    -0.271 N 
ATOM     26  C   LIG    1       23.655 -21.788   7.109  0.00  0.00    +0.220 C 
ATOM     27  O   LIG    1       23.336 -22.300   8.185  0.00  0.00    -0.275 OA
ATOM     28  C   LIG    1       23.485 -20.285   6.999  0.00  0.00    +0.096 C 
ATOM     29  C   LIG    1       23.250 -19.789   5.593  0.00  0.00    +0.011 C 
ATOM     30  C   LIG    1       24.380 -20.294   4.726  0.00  0.00    +0.020 C 
ATOM     31  C   LIG    1       24.331 -21.811   4.698  0.00  0.00    +0.114 C 
ENDBRANCH  22  25
ENDBRANCH   4  19
BRANCH   9  32
ATOM     32  C   LIG    1       26.411 -33.372   5.241  0.00  0.00    +0.262 C 
ATOM     33  O   LIG    1       25.779 -33.825   4.292  0.00  0.00    -0.269 OA
ATOM     34  N   LIG    1       27.662 -33.825   5.549  0.00  0.00    -0.324 N 
ATOM     35  H   LIG    1       28.065 -34.575   5.010  0.00  0.00    +0.145 HD
ATOM     36  H   LIG    1       28.128 -33.453   6.367  0.00  0.00    +0.145 HD
ENDBRANCH   9  32
TORSDOF 5
ENDMDL
MODEL 7
REMARK VINA RESULT:      -4.7      5.641      8.804
REMARK  Name = *****
REMARK                            x       y       z     vdW  Elec       q    Type
REMARK                         _______ _______ _______ _____ _____    ______ ____
ROOT
ATOM      1  N   LIG    1       22.347 -28.798  13.539  0.00  0.00    -0.227 N 
ATOM      2  C   LIG    1       22.061 -29.614  12.469  0.00  0.00    +0.134 A 
ATOM      3  C   LIG    1       22.843 -29.867  11.288  0.00  0.00    +0.270 C 
ATOM      4  N   LIG    1       22.442 -31.006  10.533  0.00  0.00    -0.266 N 
ATOM      5  C   LIG    1       21.289 -31.817  11.012  0.00  0.00    +0.119 C 
ATOM      6  C   LIG    1       20.167 -30.997  11.680  0.00  0.00    +0.059 C 
ATOM      7  O   LIG    1       23.733 -29.079  10.974  0.00  0.00    -0.268 OA
ATOM      8  C   LIG    1       20.779 -30.074  12.652  0.00  0.00    +0.017 A 
ATOM      9  C   LIG    1       20.284 -29.392  13.779  0.00  0.00    +0.151 A 
ATOM     10  N   LIG    1       21.223 -28.567  14.287  0.00  0.00    -0.161 NA
ENDROOT
BRANCH   1  14
ATOM     11  C   LIG    1       26.081 -27.234  14.793  0.00  0.00    +0.120 A 
ATOM     12  C   LIG    1       25.729 -28.553  15.078  0.00  0.00    +0.048 A 
ATOM     13  C   LIG    1       24.501 -29.069  14.649  0.00  0.00    +0.031 A 
ATOM     14  C   LIG    1       23.599 -28.256  13.952  0.00  0.00    +0.066 A 
ATOM     15  C   LIG    1       23.963 -26.937  13.646  0.00  0.00    +0.031 A 
ATOM     16  C   LIG    1       25.204 -26.436  14.058  0.00  0.00    +0.048 A 
BRANCH  11  18
ATOM     17  C   LIG    1       27.520 -25.385  14.523  0.00  0.00    +0.277 C 
ATOM     18  O   LIG    1       27.268 -26.646  15.135  0.00  0.00    -0.495 OA
ENDBRANCH  11  18
ENDBRANCH   1  14
BRANCH   4  19
ATOM     19  C   LIG    1       23.230 -31.503   9.421  0.00  0.00    +0.037 A 
ATOM     20  C   LIG    1       23.911 -30.649   8.545  0.00  0.00    +0.025 A 
ATOM     21  C   LIG    1       24.694 -31.141   7.482  0.00  0.00    +0.025 A 
ATOM     22  C   LIG    1       24.831 -32.513   7.234  0.00  0.00    +0.036 A 
ATOM     23  C   LIG    1       24.108 -33.357   8.070  0.00  0.00    +0.025 A 
ATOM     24  C   LIG    1       23.344 -32.866   9.137  0.00  0.00    +0.025 A 
BRANCH  22  25
ATOM     25  N   LIG    1       25.667 -33.020   6.167  0.00  0.00    -0.271 N 
ATOM     26  C   LIG    1       27.041 -33.251   6.367  0.00  0.00    +0.220 C 
ATOM     27  O   LIG    1       27.657 -33.080   7.421  0.00  0.00    -0.275 OA
ATOM     28  C   LIG    1       27.831 -33.825   5.207  0.00  0.00    +0.096 C 
ATOM     29  C   LIG    1       27.307 -33.437   3.846  0.00  0.00    +0.011 C 
ATOM     30  C   LIG    1       25.848 -33.824   3.781  0.00  0.00    +0.020 C 
ATOM     31  C   LIG    1       25.084 -33.022   4.819  0.00  0.00    +0.114 C 
ENDBRANCH  22  25
ENDBRANCH   4  19
BRANCH   9  32
ATOM     32  C   LIG    1       18.928 -29.480  14.339  0.00  0.00    +0.262 C 
ATOM     33  O   LIG    1       18.536 -30.408  15.039  0.00  0.00    -0.269 OA
ATOM     34  N   LIG    1       18.111 -28.437  14.009  0.00  0.00    -0.324 N 
ATOM     35  H   LIG    1       17.150 -28.444  14.315  0.00  0.00    +0.145 HD
ATOM     36  H   LIG    1       18.464 -27.716  13.393  0.00  0.00    +0.145 HD
ENDBRANCH   9  32
TORSDOF 5
ENDMDL
MODEL 8
REMARK VINA RESULT:      -4.2      5.407      8.809
REMARK  Name = *****
REMARK                            x       y       z     vdW  Elec       q    Type
REMARK                         _______ _______ _______ _____ _____    ______ ____
ROOT
ATOM      1  N   LIG    1       26.471 -28.226  14.322  0.00  0.00    -0.227 N 
ATOM      2  C   LIG    1       26.982 -28.931  13.255  0.00  0.00    +0.134 A 
ATOM      3  C   LIG    1       26.288 -29.745  12.294  0.00  0.00    +0.270 C 
ATOM      4  N   LIG    1       27.036 -30.063  11.124  0.00  0.00    -0.266 N 
ATOM      5  C   LIG    1       28.424 -29.543  10.995  0.00  0.00    +0.119 C 
ATOM      6  C   LIG    1       29.207 -29.476  12.322  0.00  0.00    +0.059 C 
ATOM      7  O   LIG    1       25.161 -30.160  12.555  0.00  0.00    -0.268 OA
ATOM      8  C   LIG    1       28.350 -28.838  13.336  0.00  0.00    +0.017 A 
ATOM      9  C   LIG    1       28.620 -28.181  14.552  0.00  0.00    +0.151 A 
ATOM     10  N   LIG    1       27.471 -27.859  15.184  0.00  0.00    -0.161 NA
ENDROOT
BRANCH   1  14
ATOM     11  C   LIG    1       22.493 -26.966  15.059  0.00  0.00    +0.120 A 
ATOM     12  C   LIG    1       23.400 -26.122  14.419  0.00  0.00    +0.048 A 
ATOM     13  C   LIG    1       24.709 -26.549  14.165  0.00  0.00    +0.031 A 
ATOM     14  C   LIG    1       25.129 -27.819  14.577  0.00  0.00    +0.066 A 
ATOM     15  C   LIG    1       24.210 -28.675  15.199  0.00  0.00    +0.031 A 
ATOM     16  C   LIG    1       22.896 -28.250  15.428  0.00  0.00    +0.048 A 
BRANCH  11  18
ATOM     17  C   LIG    1       20.230 -27.320  14.496  0.00  0.00    +0.277 C 
ATOM     18  O   LIG    1       21.185 -26.660  15.321  0.00  0.00    -0.495 OA
ENDBRANCH  11  18
ENDBRANCH   1  14
BRANCH   4  19
ATOM     19  C   LIG    1       26.428 -30.721   9.983  0.00  0.00    +0.037 A 
ATOM     20  C   LIG    1       26.287 -30.088   8.742  0.00  0.00    +0.025 A 
ATOM     21  C   LIG    1       25.718 -30.744   7.631  0.00  0.00    +0.025 A 
ATOM     22  C   LIG    1       25.254 -32.063   7.706  0.00  0.00    +0.036 A 
ATOM     23  C   LIG    1       25.343 -32.669   8.953  0.00  0.00    +0.025 A 
ATOM     24  C   LIG    1       25.925 -32.022  10.052  0.00  0.00    +0.025 A 
BRANCH  22  25
ATOM     25  N   LIG    1       24.706 -32.750   6.555  0.00  0.00    -0.271 N 
ATOM     26  C   LIG    1       25.511 -33.065   5.445  0.00  0.00    +0.220 C 
ATOM     27  O   LIG    1       26.716 -32.828   5.336  0.00  0.00    -0.275 OA
ATOM     28  C   LIG    1       24.865 -33.825   4.303  0.00  0.00    +0.096 C 
ATOM     29  C   LIG    1       23.391 -33.550   4.130  0.00  0.00    +0.011 C 
ATOM     30  C   LIG    1       22.708 -33.825   5.449  0.00  0.00    +0.020 C 
ATOM     31  C   LIG    1       23.243 -32.855   6.487  0.00  0.00    +0.114 C 
ENDBRANCH  22  25
ENDBRANCH   4  19
BRANCH   9  32
ATOM     32  C   LIG    1       29.941 -27.907  15.133  0.00  0.00    +0.262 C 
ATOM     33  O   LIG    1       30.722 -28.780  15.497  0.00  0.00    -0.269 OA
ATOM     34  N   LIG    1       30.242 -26.581  15.253  0.00  0.00    -0.324 N 
ATOM     35  H   LIG    1       31.111 -26.307  15.684  0.00  0.00    +0.145 HD
ATOM     36  H   LIG    1       29.550 -25.895  14.980  0.00  0.00    +0.145 HD
ENDBRANCH   9  32
TORSDOF 5
ENDMDL
