MODEL 1
REMARK VINA RESULT:      -9.3      0.000      0.000
REMARK  Name = *****
REMARK                            x       y       z     vdW  Elec       q    Type
REMARK                         _______ _______ _______ _____ _____    ______ ____
ROOT
ATOM      1  C   LIG    1       27.591 -20.406   7.206  0.00  0.00    +0.200 C 
ENDROOT
BRANCH   1   4
ATOM      2  N   LIG    1       29.790 -19.356   6.911  0.00  0.00    -0.305 N 
ATOM      3  H   LIG    1       29.261 -18.522   6.682  0.00  0.00    +0.149 HD
ATOM      4  C   LIG    1       29.116 -20.496   7.285  0.00  0.00    +0.231 C 
ATOM      5  O   LIG    1       29.698 -21.476   7.748  0.00  0.00    -0.274 OA
BRANCH   2   6
ATOM      6  C   LIG    1       31.243 -19.245   6.986  0.00  0.00    +0.200 C 
BRANCH   6   9
ATOM      7  N   LIG    1       31.772 -17.581   8.718  0.00  0.00    -0.304 N 
ATOM      8  H   LIG    1       31.234 -16.951   8.131  0.00  0.00    +0.149 HD
ATOM      9  C   LIG    1       31.754 -18.921   8.396  0.00  0.00    +0.231 C 
ATOM     10  O   LIG    1       32.060 -19.798   9.199  0.00  0.00    -0.274 OA
BRANCH   7  11
ATOM     11  C   LIG    1       32.166 -17.114  10.039  0.00  0.00    +0.224 C 
BRANCH  11  13
ATOM     12  O   LIG    1       30.333 -16.202  11.345  0.00  0.00    -0.249 OA
ATOM     13  C   LIG    1       30.995 -17.185  11.010  0.00  0.00    +0.322 C 
BRANCH  13  14
ATOM     14  O   LIG    1       30.760 -18.413  11.521  0.00  0.00    -0.479 OA
ATOM     15  H   LIG    1       30.096 -18.342  12.243  0.00  0.00    +0.295 HD
ENDBRANCH  13  14
ENDBRANCH  11  13
ENDBRANCH   7  11
ENDBRANCH   6   9
ENDBRANCH   2   6
ENDBRANCH   1   4
BRANCH   1  16
ATOM     16  N   LIG    1       27.034 -21.702   6.871  0.00  0.00    -0.306 N 
ATOM     17  H   LIG    1       27.216 -22.083   5.951  0.00  0.00    +0.149 HD
ATOM     18  C   LIG    1       26.271 -22.405   7.782  0.00  0.00    +0.224 C 
ATOM     19  O   LIG    1       26.128 -22.009   8.937  0.00  0.00    -0.275 OA
BRANCH  18  20
ATOM     20  C   LIG    1       25.720 -23.723   7.246  0.00  0.00    +0.173 C 
BRANCH  20  21
ATOM     21  S   LIG    1       24.874 -23.532   5.658  0.00  0.00    -0.074 S 
BRANCH  21  22
ATOM     22  C   LIG    1       23.676 -22.338   6.127  0.00  0.00    +0.220 C 
ATOM     23  O   LIG    1       22.964 -22.507   7.113  0.00  0.00    -0.280 OA
BRANCH  22  24
ATOM     24  C   LIG    1       23.576 -21.070   5.355  0.00  0.00    +0.028 A 
ATOM     25  C   LIG    1       22.523 -20.156   5.488  0.00  0.00    +0.012 A 
ATOM     26  C   LIG    1       22.483 -19.011   4.689  0.00  0.00    +0.001 A 
ATOM     27  C   LIG    1       23.494 -18.767   3.759  0.00  0.00    +0.000 A 
ATOM     28  C   LIG    1       24.548 -19.666   3.622  0.00  0.00    +0.001 A 
ATOM     29  C   LIG    1       24.589 -20.811   4.416  0.00  0.00    +0.012 A 
ENDBRANCH  22  24
ENDBRANCH  21  22
ENDBRANCH  20  21
ENDBRANCH  18  20
ENDBRANCH   1  16
TORSDOF 11
ENDMDL
MODEL 2
REMARK VINA RESULT:      -9.1      0.509      1.174
REMARK  Name = *****
REMARK                            x       y       z     vdW  Elec       q    Type
REMARK                         _______ _______ _______ _____ _____    ______ ____
ROOT
ATOM      1  C   LIG    1       27.661 -20.316   7.536  0.00  0.00    +0.200 C 
ENDROOT
BRANCH   1   4
ATOM      2  N   LIG    1       29.805 -19.148   7.290  0.00  0.00    -0.305 N 
ATOM      3  H   LIG    1       29.236 -18.314   7.188  0.00  0.00    +0.149 HD
ATOM      4  C   LIG    1       29.190 -20.352   7.544  0.00  0.00    +0.231 C 
ATOM      5  O   LIG    1       29.826 -21.357   7.858  0.00  0.00    -0.274 OA
BRANCH   2   6
ATOM      6  C   LIG    1       31.255 -18.987   7.322  0.00  0.00    +0.200 C 
BRANCH   6   9
ATOM      7  N   LIG    1       31.850 -17.355   9.063  0.00  0.00    -0.304 N 
ATOM      8  H   LIG    1       31.310 -16.708   8.497  0.00  0.00    +0.149 HD
ATOM      9  C   LIG    1       31.801 -18.691   8.725  0.00  0.00    +0.231 C 
ATOM     10  O   LIG    1       32.108 -19.584   9.510  0.00  0.00    -0.274 OA
BRANCH   7  11
ATOM     11  C   LIG    1       32.279 -16.913  10.382  0.00  0.00    +0.224 C 
BRANCH  11  13
ATOM     12  O   LIG    1       29.932 -16.942  11.004  0.00  0.00    -0.249 OA
ATOM     13  C   LIG    1       31.081 -16.577  11.259  0.00  0.00    +0.322 C 
BRANCH  13  14
ATOM     14  O   LIG    1       31.363 -15.801  12.327  0.00  0.00    -0.479 OA
ATOM     15  H   LIG    1       31.196 -16.311  13.151  0.00  0.00    +0.295 HD
ENDBRANCH  13  14
ENDBRANCH  11  13
ENDBRANCH   7  11
ENDBRANCH   6   9
ENDBRANCH   2   6
ENDBRANCH   1   4
BRANCH   1  16
ATOM     16  N   LIG    1       27.134 -21.630   7.221  0.00  0.00    -0.306 N 
ATOM     17  H   LIG    1       27.498 -22.113   6.409  0.00  0.00    +0.149 HD
ATOM     18  C   LIG    1       26.160 -22.212   8.006  0.00  0.00    +0.224 C 
ATOM     19  O   LIG    1       25.783 -21.688   9.053  0.00  0.00    -0.275 OA
BRANCH  18  20
ATOM     20  C   LIG    1       25.683 -23.570   7.500  0.00  0.00    +0.173 C 
BRANCH  20  21
ATOM     21  S   LIG    1       24.908 -23.475   5.867  0.00  0.00    -0.074 S 
BRANCH  21  22
ATOM     22  C   LIG    1       23.728 -22.217   6.198  0.00  0.00    +0.220 C 
ATOM     23  O   LIG    1       22.977 -22.290   7.166  0.00  0.00    -0.280 OA
BRANCH  22  24
ATOM     24  C   LIG    1       23.691 -21.012   5.326  0.00  0.00    +0.028 A 
ATOM     25  C   LIG    1       24.721 -20.654   4.445  0.00  0.00    +0.012 A 
ATOM     26  C   LIG    1       24.626 -19.479   3.696  0.00  0.00    +0.001 A 
ATOM     27  C   LIG    1       23.506 -18.657   3.816  0.00  0.00    +0.000 A 
ATOM     28  C   LIG    1       22.475 -19.005   4.685  0.00  0.00    +0.001 A 
ATOM     29  C   LIG    1       22.567 -20.176   5.435  0.00  0.00    +0.012 A 
ENDBRANCH  22  24
ENDBRANCH  21  22
ENDBRANCH  20  21
ENDBRANCH  18  20
ENDBRANCH   1  16
TORSDOF 11
ENDMDL
MODEL 3
REMARK VINA RESULT:      -8.9      1.836      3.388
REMARK  Name = *****
REMARK                            x       y       z     vdW  Elec       q    Type
REMARK                         _______ _______ _______ _____ _____    ______ ____
ROOT
ATOM      1  C   LIG    1       27.556 -19.904   5.730  0.00  0.00    +0.200 C 
ENDROOT
BRANCH   1   4
ATOM      2  N   LIG    1       29.484 -20.696   7.026  0.00  0.00    -0.305 N 
ATOM      3  H   LIG    1       29.982 -20.649   6.143  0.00  0.00    +0.149 HD
ATOM      4  C   LIG    1       28.171 -20.290   7.077  0.00  0.00    +0.231 C 
ATOM      5  O   LIG    1       27.572 -20.148   8.142  0.00  0.00    -0.274 OA
BRANCH   2   6
ATOM      6  C   LIG    1       30.245 -21.038   8.223  0.00  0.00    +0.200 C 
BRANCH   6   9
ATOM      7  N   LIG    1       30.550 -18.631   8.630  0.00  0.00    -0.304 N 
ATOM      8  H   LIG    1       29.550 -18.582   8.468  0.00  0.00    +0.149 HD
ATOM      9  C   LIG    1       31.116 -19.884   8.738  0.00  0.00    +0.231 C 
ATOM     10  O   LIG    1       32.208 -20.074   9.266  0.00  0.00    -0.274 OA
BRANCH   7  11
ATOM     11  C   LIG    1       31.220 -17.441   9.135  0.00  0.00    +0.224 C 
BRANCH  11  13
ATOM     12  O   LIG    1       30.087 -16.324  10.970  0.00  0.00    -0.249 OA
ATOM     13  C   LIG    1       30.869 -17.200  10.596  0.00  0.00    +0.322 C 
BRANCH  13  14
ATOM     14  O   LIG    1       31.520 -17.997  11.471  0.00  0.00    -0.479 OA
ATOM     15  H   LIG    1       32.258 -18.452  11.007  0.00  0.00    +0.295 HD
ENDBRANCH  13  14
ENDBRANCH  11  13
ENDBRANCH   7  11
ENDBRANCH   6   9
ENDBRANCH   2   6
ENDBRANCH   1   4
BRANCH   1  16
ATOM     16  N   LIG    1       26.366 -20.695   5.482  0.00  0.00    -0.306 N 
ATOM     17  H   LIG    1       26.233 -21.546   6.014  0.00  0.00    +0.149 HD
ATOM     18  C   LIG    1       25.433 -20.301   4.545  0.00  0.00    +0.224 C 
ATOM     19  O   LIG    1       25.524 -19.219   3.967  0.00  0.00    -0.275 OA
BRANCH  18  20
ATOM     20  C   LIG    1       24.273 -21.276   4.375  0.00  0.00    +0.173 C 
BRANCH  20  21
ATOM     21  S   LIG    1       22.886 -20.913   5.480  0.00  0.00    -0.074 S 
BRANCH  21  22
ATOM     22  C   LIG    1       23.436 -21.783   6.903  0.00  0.00    +0.220 C 
ATOM     23  O   LIG    1       23.277 -21.321   8.030  0.00  0.00    -0.280 OA
BRANCH  22  24
ATOM     24  C   LIG    1       24.040 -23.133   6.738  0.00  0.00    +0.028 A 
ATOM     25  C   LIG    1       23.323 -24.263   6.324  0.00  0.00    +0.012 A 
ATOM     26  C   LIG    1       23.958 -25.504   6.240  0.00  0.00    +0.001 A 
ATOM     27  C   LIG    1       25.310 -25.625   6.563  0.00  0.00    +0.000 A 
ATOM     28  C   LIG    1       26.033 -24.508   6.971  0.00  0.00    +0.001 A 
ATOM     29  C   LIG    1       25.402 -23.269   7.058  0.00  0.00    +0.012 A 
ENDBRANCH  22  24
ENDBRANCH  21  22
ENDBRANCH  20  21
ENDBRANCH  18  20
ENDBRANCH   1  16
TORSDOF 11
ENDMDL
MODEL 4
REMARK VINA RESULT:      -8.3      3.437      9.334
REMARK  Name = *****
REMARK                            x       y       z     vdW  Elec       q    Type
REMARK                         _______ _______ _______ _____ _____    ______ ____
ROOT
ATOM      1  C   LIG    1       25.249 -20.788   6.591  0.00  0.00    +0.200 C 
ENDROOT
BRANCH   1   4
ATOM      2  N   LIG    1       24.114 -22.933   6.963  0.00  0.00    -0.305 N 
ATOM      3  H   LIG    1       24.048 -22.627   7.928  0.00  0.00    +0.149 HD
ATOM      4  C   LIG    1       24.674 -22.090   6.030  0.00  0.00    +0.231 C 
ATOM      5  O   LIG    1       24.617 -22.322   4.823  0.00  0.00    -0.274 OA
BRANCH   2   6
ATOM      6  C   LIG    1       23.462 -24.185   6.596  0.00  0.00    +0.200 C 
BRANCH   6   9
ATOM      7  N   LIG    1       23.951 -26.428   5.711  0.00  0.00    -0.304 N 
ATOM      8  H   LIG    1       23.108 -26.283   5.165  0.00  0.00    +0.149 HD
ATOM      9  C   LIG    1       24.445 -25.350   6.416  0.00  0.00    +0.231 C 
ATOM     10  O   LIG    1       25.605 -25.295   6.814  0.00  0.00    -0.274 OA
BRANCH   7  11
ATOM     11  C   LIG    1       24.779 -27.583   5.397  0.00  0.00    +0.224 C 
BRANCH  11  13
ATOM     12  O   LIG    1       24.675 -29.307   7.104  0.00  0.00    -0.249 OA
ATOM     13  C   LIG    1       24.228 -28.840   6.055  0.00  0.00    +0.322 C 
BRANCH  13  14
ATOM     14  O   LIG    1       23.230 -29.443   5.374  0.00  0.00    -0.479 OA
ATOM     15  H   LIG    1       23.312 -30.418   5.473  0.00  0.00    +0.295 HD
ENDBRANCH  13  14
ENDBRANCH  11  13
ENDBRANCH   7  11
ENDBRANCH   6   9
ENDBRANCH   2   6
ENDBRANCH   1   4
BRANCH   1  16
ATOM     16  N   LIG    1       26.620 -20.620   6.150  0.00  0.00    -0.306 N 
ATOM     17  H   LIG    1       26.801 -20.546   5.157  0.00  0.00    +0.149 HD
ATOM     18  C   LIG    1       27.658 -20.563   7.059  0.00  0.00    +0.224 C 
ATOM     19  O   LIG    1       27.447 -20.545   8.270  0.00  0.00    -0.275 OA
BRANCH  18  20
ATOM     20  C   LIG    1       29.037 -20.438   6.420  0.00  0.00    +0.173 C 
BRANCH  20  21
ATOM     21  S   LIG    1       29.645 -18.733   6.395  0.00  0.00    -0.074 S 
BRANCH  21  22
ATOM     22  C   LIG    1       31.020 -18.918   7.472  0.00  0.00    +0.220 C 
ATOM     23  O   LIG    1       31.919 -19.715   7.222  0.00  0.00    -0.280 OA
BRANCH  22  24
ATOM     24  C   LIG    1       31.126 -18.038   8.667  0.00  0.00    +0.028 A 
ATOM     25  C   LIG    1       32.196 -17.163   8.900  0.00  0.00    +0.012 A 
ATOM     26  C   LIG    1       32.239 -16.406  10.073  0.00  0.00    +0.001 A 
ATOM     27  C   LIG    1       31.217 -16.512  11.016  0.00  0.00    +0.000 A 
ATOM     28  C   LIG    1       30.147 -17.374  10.793  0.00  0.00    +0.001 A 
ATOM     29  C   LIG    1       30.102 -18.133   9.624  0.00  0.00    +0.012 A 
ENDBRANCH  22  24
ENDBRANCH  21  22
ENDBRANCH  20  21
ENDBRANCH  18  20
ENDBRANCH   1  16
TORSDOF 11
ENDMDL
MODEL 5
REMARK VINA RESULT:      -8.3      3.784      6.336
REMARK  Name = *****
REMARK                            x       y       z     vdW  Elec       q    Type
REMARK                         _______ _______ _______ _____ _____    ______ ____
ROOT
ATOM      1  C   LIG    1       24.473 -21.537   5.557  0.00  0.00    +0.200 C 
ENDROOT
BRANCH   1   4
ATOM      2  N   LIG    1       26.798 -21.034   6.162  0.00  0.00    -0.305 N 
ATOM      3  H   LIG    1       26.744 -21.886   6.710  0.00  0.00    +0.149 HD
ATOM      4  C   LIG    1       25.715 -20.658   5.401  0.00  0.00    +0.231 C 
ATOM      5  O   LIG    1       25.781 -19.745   4.578  0.00  0.00    -0.274 OA
BRANCH   2   6
ATOM      6  C   LIG    1       28.084 -20.348   6.089  0.00  0.00    +0.200 C 
BRANCH   6   9
ATOM      7  N   LIG    1       30.148 -20.577   7.406  0.00  0.00    -0.304 N 
ATOM      8  H   LIG    1       30.603 -20.585   6.499  0.00  0.00    +0.149 HD
ATOM      9  C   LIG    1       28.805 -20.266   7.440  0.00  0.00    +0.231 C 
ATOM     10  O   LIG    1       28.240 -19.888   8.463  0.00  0.00    -0.274 OA
BRANCH   7  11
ATOM     11  C   LIG    1       30.988 -20.482   8.591  0.00  0.00    +0.224 C 
BRANCH  11  13
ATOM     12  O   LIG    1       30.731 -22.295  10.185  0.00  0.00    -0.249 OA
ATOM     13  C   LIG    1       31.272 -21.862   9.167  0.00  0.00    +0.322 C 
BRANCH  13  14
ATOM     14  O   LIG    1       32.208 -22.570   8.498  0.00  0.00    -0.479 OA
ATOM     15  H   LIG    1       33.094 -22.377   8.879  0.00  0.00    +0.295 HD
ENDBRANCH  13  14
ENDBRANCH  11  13
ENDBRANCH   7  11
ENDBRANCH   6   9
ENDBRANCH   2   6
ENDBRANCH   1   4
BRANCH   1  16
ATOM     16  N   LIG    1       24.717 -22.848   4.988  0.00  0.00    -0.306 N 
ATOM     17  H   LIG    1       24.641 -22.960   3.985  0.00  0.00    +0.149 HD
ATOM     18  C   LIG    1       25.046 -23.921   5.791  0.00  0.00    +0.224 C 
ATOM     19  O   LIG    1       25.247 -23.781   6.996  0.00  0.00    -0.275 OA
BRANCH  18  20
ATOM     20  C   LIG    1       25.215 -25.235   5.034  0.00  0.00    +0.173 C 
BRANCH  20  21
ATOM     21  S   LIG    1       26.282 -26.410   5.903  0.00  0.00    -0.074 S 
BRANCH  21  22
ATOM     22  C   LIG    1       25.122 -27.707   6.144  0.00  0.00    +0.220 C 
ATOM     23  O   LIG    1       24.297 -27.989   5.279  0.00  0.00    -0.280 OA
BRANCH  22  24
ATOM     24  C   LIG    1       25.192 -28.519   7.389  0.00  0.00    +0.028 A 
ATOM     25  C   LIG    1       24.315 -29.571   7.685  0.00  0.00    +0.012 A 
ATOM     26  C   LIG    1       24.422 -30.252   8.899  0.00  0.00    +0.001 A 
ATOM     27  C   LIG    1       25.404 -29.893   9.822  0.00  0.00    +0.000 A 
ATOM     28  C   LIG    1       26.284 -28.853   9.537  0.00  0.00    +0.001 A 
ATOM     29  C   LIG    1       26.178 -28.169   8.327  0.00  0.00    +0.012 A 
ENDBRANCH  22  24
ENDBRANCH  21  22
ENDBRANCH  20  21
ENDBRANCH  18  20
ENDBRANCH   1  16
TORSDOF 11
ENDMDL
MODEL 6
REMARK VINA RESULT:      -8.1      2.761      4.712
REMARK  Name = *****
REMARK                            x       y       z     vdW  Elec       q    Type
REMARK                         _______ _______ _______ _____ _____    ______ ____
ROOT
ATOM      1  C   LIG    1       27.071 -20.300   7.636  0.00  0.00    +0.200 C 
ENDROOT
BRANCH   1   4
ATOM      2  N   LIG    1       29.300 -19.381   7.175  0.00  0.00    -0.305 N 
ATOM      3  H   LIG    1       28.830 -18.482   7.174  0.00  0.00    +0.149 HD
ATOM      4  C   LIG    1       28.575 -20.516   7.457  0.00  0.00    +0.231 C 
ATOM      5  O   LIG    1       29.115 -21.603   7.654  0.00  0.00    -0.274 OA
BRANCH   2   6
ATOM      6  C   LIG    1       30.752 -19.393   7.037  0.00  0.00    +0.200 C 
BRANCH   6   9
ATOM      7  N   LIG    1       31.418 -17.663   8.653  0.00  0.00    -0.304 N 
ATOM      8  H   LIG    1       30.709 -17.104   8.190  0.00  0.00    +0.149 HD
ATOM      9  C   LIG    1       31.487 -19.001   8.325  0.00  0.00    +0.231 C 
ATOM     10  O   LIG    1       32.038 -19.831   9.043  0.00  0.00    -0.274 OA
BRANCH   7  11
ATOM     11  C   LIG    1       32.005 -17.143   9.880  0.00  0.00    +0.224 C 
BRANCH  11  13
ATOM     12  O   LIG    1       30.444 -16.194  11.479  0.00  0.00    -0.249 OA
ATOM     13  C   LIG    1       31.003 -17.193  11.025  0.00  0.00    +0.322 C 
BRANCH  13  14
ATOM     14  O   LIG    1       30.802 -18.423  11.545  0.00  0.00    -0.479 OA
ATOM     15  H   LIG    1       30.439 -18.334  12.455  0.00  0.00    +0.295 HD
ENDBRANCH  13  14
ENDBRANCH  11  13
ENDBRANCH   7  11
ENDBRANCH   6   9
ENDBRANCH   2   6
ENDBRANCH   1   4
BRANCH   1  16
ATOM     16  N   LIG    1       26.351 -21.513   7.302  0.00  0.00    -0.306 N 
ATOM     17  H   LIG    1       26.468 -22.323   7.898  0.00  0.00    +0.149 HD
ATOM     18  C   LIG    1       25.525 -21.569   6.198  0.00  0.00    +0.224 C 
ATOM     19  O   LIG    1       25.288 -20.567   5.525  0.00  0.00    -0.275 OA
BRANCH  18  20
ATOM     20  C   LIG    1       24.890 -22.936   5.965  0.00  0.00    +0.173 C 
BRANCH  20  21
ATOM     21  S   LIG    1       25.844 -24.285   6.703  0.00  0.00    -0.074 S 
BRANCH  21  22
ATOM     22  C   LIG    1       25.323 -25.595   5.655  0.00  0.00    +0.220 C 
ATOM     23  O   LIG    1       25.168 -25.419   4.450  0.00  0.00    -0.280 OA
BRANCH  22  24
ATOM     24  C   LIG    1       25.138 -26.954   6.231  0.00  0.00    +0.028 A 
ATOM     25  C   LIG    1       25.802 -27.412   7.377  0.00  0.00    +0.012 A 
ATOM     26  C   LIG    1       25.605 -28.720   7.825  0.00  0.00    +0.001 A 
ATOM     27  C   LIG    1       24.745 -29.576   7.138  0.00  0.00    +0.000 A 
ATOM     28  C   LIG    1       24.077 -29.130   6.001  0.00  0.00    +0.001 A 
ATOM     29  C   LIG    1       24.273 -27.826   5.550  0.00  0.00    +0.012 A 
ENDBRANCH  22  24
ENDBRANCH  21  22
ENDBRANCH  20  21
ENDBRANCH  18  20
ENDBRANCH   1  16
TORSDOF 11
ENDMDL
MODEL 7
REMARK VINA RESULT:      -8.0      5.681      8.721
REMARK  Name = *****
REMARK                            x       y       z     vdW  Elec       q    Type
REMARK                         _______ _______ _______ _____ _____    ______ ____
ROOT
ATOM      1  C   LIG    1       26.148 -26.977   5.001  0.00  0.00    +0.200 C 
ENDROOT
BRANCH   1   4
ATOM      2  N   LIG    1       25.730 -29.372   5.334  0.00  0.00    -0.305 N 
ATOM      3  H   LIG    1       26.722 -29.479   5.149  0.00  0.00    +0.149 HD
ATOM      4  C   LIG    1       25.186 -28.109   5.367  0.00  0.00    +0.231 C 
ATOM      5  O   LIG    1       24.041 -27.901   5.764  0.00  0.00    -0.274 OA
BRANCH   2   6
ATOM      6  C   LIG    1       24.974 -30.560   5.716  0.00  0.00    +0.200 C 
BRANCH   6   9
ATOM      7  N   LIG    1       26.178 -30.901   7.833  0.00  0.00    -0.304 N 
ATOM      8  H   LIG    1       26.983 -30.574   7.309  0.00  0.00    +0.149 HD
ATOM      9  C   LIG    1       24.942 -30.797   7.232  0.00  0.00    +0.231 C 
ATOM     10  O   LIG    1       23.892 -30.825   7.868  0.00  0.00    -0.274 OA
BRANCH   7  11
ATOM     11  C   LIG    1       26.320 -31.059   9.274  0.00  0.00    +0.224 C 
BRANCH  11  13
ATOM     12  O   LIG    1       28.058 -30.235  10.755  0.00  0.00    -0.249 OA
ATOM     13  C   LIG    1       27.260 -30.007   9.845  0.00  0.00    +0.322 C 
BRANCH  13  14
ATOM     14  O   LIG    1       27.124 -28.776   9.306  0.00  0.00    -0.479 OA
ATOM     15  H   LIG    1       27.911 -28.233   9.536  0.00  0.00    +0.295 HD
ENDBRANCH  13  14
ENDBRANCH  11  13
ENDBRANCH   7  11
ENDBRANCH   6   9
ENDBRANCH   2   6
ENDBRANCH   1   4
BRANCH   1  16
ATOM     16  N   LIG    1       26.252 -26.038   6.102  0.00  0.00    -0.306 N 
ATOM     17  H   LIG    1       26.780 -26.313   6.921  0.00  0.00    +0.149 HD
ATOM     18  C   LIG    1       25.648 -24.799   6.039  0.00  0.00    +0.224 C 
ATOM     19  O   LIG    1       25.095 -24.408   5.013  0.00  0.00    -0.275 OA
BRANCH  18  20
ATOM     20  C   LIG    1       25.814 -23.962   7.304  0.00  0.00    +0.173 C 
BRANCH  20  21
ATOM     21  S   LIG    1       26.121 -22.214   6.951  0.00  0.00    -0.074 S 
BRANCH  21  22
ATOM     22  C   LIG    1       24.458 -21.663   6.832  0.00  0.00    +0.220 C 
ATOM     23  O   LIG    1       23.619 -21.994   7.665  0.00  0.00    -0.280 OA
BRANCH  22  24
ATOM     24  C   LIG    1       24.084 -20.721   5.742  0.00  0.00    +0.028 A 
ATOM     25  C   LIG    1       24.908 -20.426   4.649  0.00  0.00    +0.012 A 
ATOM     26  C   LIG    1       24.498 -19.494   3.693  0.00  0.00    +0.001 A 
ATOM     27  C   LIG    1       23.265 -18.855   3.818  0.00  0.00    +0.000 A 
ATOM     28  C   LIG    1       22.435 -19.144   4.898  0.00  0.00    +0.001 A 
ATOM     29  C   LIG    1       22.843 -20.072   5.855  0.00  0.00    +0.012 A 
ENDBRANCH  22  24
ENDBRANCH  21  22
ENDBRANCH  20  21
ENDBRANCH  18  20
ENDBRANCH   1  16
TORSDOF 11
ENDMDL
MODEL 8
REMARK VINA RESULT:      -7.9      5.359      8.394
REMARK  Name = *****
REMARK                            x       y       z     vdW  Elec       q    Type
REMARK                         _______ _______ _______ _____ _____    ______ ____
ROOT
ATOM      1  C   LIG    1       25.177 -25.571   4.715  0.00  0.00    +0.200 C 
ENDROOT
BRANCH   1   4
ATOM      2  N   LIG    1       24.778 -27.942   5.205  0.00  0.00    -0.305 N 
ATOM      3  H   LIG    1       23.798 -27.682   5.217  0.00  0.00    +0.149 HD
ATOM      4  C   LIG    1       25.721 -26.988   4.900  0.00  0.00    +0.231 C 
ATOM      5  O   LIG    1       26.898 -27.277   4.689  0.00  0.00    -0.274 OA
BRANCH   2   6
ATOM      6  C   LIG    1       25.112 -29.355   5.351  0.00  0.00    +0.200 C 
BRANCH   6   9
ATOM      7  N   LIG    1       25.975 -30.543   7.325  0.00  0.00    -0.304 N 
ATOM      8  H   LIG    1       26.878 -30.414   6.879  0.00  0.00    +0.149 HD
ATOM      9  C   LIG    1       24.895 -29.885   6.775  0.00  0.00    +0.231 C 
ATOM     10  O   LIG    1       23.859 -29.678   7.400  0.00  0.00    -0.274 OA
BRANCH   7  11
ATOM     11  C   LIG    1       25.953 -31.045   8.691  0.00  0.00    +0.224 C 
BRANCH  11  13
ATOM     12  O   LIG    1       27.449 -30.784  10.586  0.00  0.00    -0.249 OA
ATOM     13  C   LIG    1       26.968 -30.310   9.556  0.00  0.00    +0.322 C 
BRANCH  13  14
ATOM     14  O   LIG    1       27.275 -29.065   9.130  0.00  0.00    -0.479 OA
ATOM     15  H   LIG    1       28.241 -29.014   8.949  0.00  0.00    +0.295 HD
ENDBRANCH  13  14
ENDBRANCH  11  13
ENDBRANCH   7  11
ENDBRANCH   6   9
ENDBRANCH   2   6
ENDBRANCH   1   4
BRANCH   1  16
ATOM     16  N   LIG    1       25.778 -24.677   5.686  0.00  0.00    -0.306 N 
ATOM     17  H   LIG    1       26.747 -24.411   5.562  0.00  0.00    +0.149 HD
ATOM     18  C   LIG    1       25.050 -24.197   6.756  0.00  0.00    +0.224 C 
ATOM     19  O   LIG    1       23.846 -24.422   6.864  0.00  0.00    -0.275 OA
BRANCH  18  20
ATOM     20  C   LIG    1       25.852 -23.313   7.707  0.00  0.00    +0.173 C 
BRANCH  20  21
ATOM     21  S   LIG    1       26.157 -21.660   7.036  0.00  0.00    -0.074 S 
BRANCH  21  22
ATOM     22  C   LIG    1       24.507 -21.060   7.029  0.00  0.00    +0.220 C 
ATOM     23  O   LIG    1       23.771 -21.212   8.000  0.00  0.00    -0.280 OA
BRANCH  22  24
ATOM     24  C   LIG    1       24.021 -20.292   5.850  0.00  0.00    +0.028 A 
ATOM     25  C   LIG    1       22.710 -19.816   5.715  0.00  0.00    +0.012 A 
ATOM     26  C   LIG    1       22.325 -19.143   4.553  0.00  0.00    +0.001 A 
ATOM     27  C   LIG    1       23.243 -18.936   3.524  0.00  0.00    +0.000 A 
ATOM     28  C   LIG    1       24.550 -19.400   3.650  0.00  0.00    +0.001 A 
ATOM     29  C   LIG    1       24.937 -20.074   4.807  0.00  0.00    +0.012 A 
ENDBRANCH  22  24
ENDBRANCH  21  22
ENDBRANCH  20  21
ENDBRANCH  18  20
ENDBRANCH   1  16
TORSDOF 11
ENDMDL
MODEL 9
REMARK VINA RESULT:      -7.9      3.379      5.493
REMARK  Name = *****
REMARK                            x       y       z     vdW  Elec       q    Type
REMARK                         _______ _______ _______ _____ _____    ______ ____
ROOT
ATOM      1  C   LIG    1       25.022 -20.946   7.202  0.00  0.00    +0.200 C 
ENDROOT
BRANCH   1   4
ATOM      2  N   LIG    1       27.432 -20.618   6.872  0.00  0.00    -0.305 N 
ATOM      3  H   LIG    1       27.523 -21.028   7.795  0.00  0.00    +0.149 HD
ATOM      4  C   LIG    1       26.183 -20.516   6.304  0.00  0.00    +0.231 C 
ATOM      5  O   LIG    1       26.026 -20.202   5.124  0.00  0.00    -0.274 OA
BRANCH   2   6
ATOM      6  C   LIG    1       28.655 -20.312   6.136  0.00  0.00    +0.200 C 
BRANCH   6   9
ATOM      7  N   LIG    1       29.532 -19.143   8.114  0.00  0.00    -0.304 N 
ATOM      8  H   LIG    1       29.300 -20.005   8.598  0.00  0.00    +0.149 HD
ATOM      9  C   LIG    1       29.448 -19.145   6.738  0.00  0.00    +0.231 C 
ATOM     10  O   LIG    1       30.020 -18.313   6.039  0.00  0.00    -0.274 OA
BRANCH   7  11
ATOM     11  C   LIG    1       30.305 -18.142   8.835  0.00  0.00    +0.224 C 
BRANCH  11  13
ATOM     12  O   LIG    1       31.987 -19.875   9.092  0.00  0.00    -0.249 OA
ATOM     13  C   LIG    1       31.602 -18.738   9.367  0.00  0.00    +0.322 C 
BRANCH  13  14
ATOM     14  O   LIG    1       32.286 -17.935  10.210  0.00  0.00    -0.479 OA
ATOM     15  H   LIG    1       32.398 -18.393  11.073  0.00  0.00    +0.295 HD
ENDBRANCH  13  14
ENDBRANCH  11  13
ENDBRANCH   7  11
ENDBRANCH   6   9
ENDBRANCH   2   6
ENDBRANCH   1   4
BRANCH   1  16
ATOM     16  N   LIG    1       24.445 -22.182   6.711  0.00  0.00    -0.306 N 
ATOM     17  H   LIG    1       23.603 -22.133   6.151  0.00  0.00    +0.149 HD
ATOM     18  C   LIG    1       25.027 -23.401   6.997  0.00  0.00    +0.224 C 
ATOM     19  O   LIG    1       26.105 -23.474   7.584  0.00  0.00    -0.275 OA
BRANCH  18  20
ATOM     20  C   LIG    1       24.259 -24.600   6.448  0.00  0.00    +0.173 C 
BRANCH  20  21
ATOM     21  S   LIG    1       24.990 -25.263   4.930  0.00  0.00    -0.074 S 
BRANCH  21  22
ATOM     22  C   LIG    1       26.040 -26.478   5.641  0.00  0.00    +0.220 C 
ATOM     23  O   LIG    1       27.260 -26.336   5.650  0.00  0.00    -0.280 OA
BRANCH  22  24
ATOM     24  C   LIG    1       25.431 -27.662   6.305  0.00  0.00    +0.028 A 
ATOM     25  C   LIG    1       25.728 -28.060   7.616  0.00  0.00    +0.012 A 
ATOM     26  C   LIG    1       25.145 -29.212   8.147  0.00  0.00    +0.001 A 
ATOM     27  C   LIG    1       24.261 -29.971   7.380  0.00  0.00    +0.000 A 
ATOM     28  C   LIG    1       23.955 -29.582   6.079  0.00  0.00    +0.001 A 
ATOM     29  C   LIG    1       24.537 -28.433   5.545  0.00  0.00    +0.012 A 
ENDBRANCH  22  24
ENDBRANCH  21  22
ENDBRANCH  20  21
ENDBRANCH  18  20
ENDBRANCH   1  16
TORSDOF 11
ENDMDL
