MODEL 1
REMARK VINA RESULT:       2.4      0.000      0.000
REMARK  Name = *****
REMARK                            x       y       z     vdW  Elec       q    Type
REMARK                         _______ _______ _______ _____ _____    ______ ____
ROOT
ATOM      1  C   LIG    1       22.992 -19.377   4.008  0.00  0.00    +0.019 A 
ATOM      2  C   LIG    1       24.200 -18.788   3.607  0.00  0.00    +0.035 A 
ATOM      3  C   LIG    1       24.474 -17.432   3.848  0.00  0.00    +0.049 A 
ATOM      4  N   LIG    1       25.789 -16.928   3.534  0.00  0.00    -0.297 N 
ATOM      5  C   LIG    1       25.969 -15.536   3.246  0.00  0.00    +0.048 A 
ATOM      6  C   LIG    1       25.107 -14.533   3.731  0.00  0.00    +0.034 A 
ATOM      7  S   LIG    1       23.683 -14.897   4.740  0.00  0.00    -0.086 S 
ATOM      8  C   LIG    1       25.364 -13.182   3.444  0.00  0.00    +0.017 A 
ATOM      9  C   LIG    1       26.460 -12.818   2.662  0.00  0.00    +0.001 A 
ATOM     10  C   LIG    1       27.285 -13.802   2.134  0.00  0.00    +0.002 A 
ATOM     11  C   LIG    1       27.028 -15.147   2.409  0.00  0.00    +0.024 A 
ATOM     12  C   LIG    1       23.463 -16.632   4.412  0.00  0.00    +0.034 A 
ATOM     13  C   LIG    1       22.239 -17.210   4.784  0.00  0.00    +0.017 A 
ATOM     14  C   LIG    1       22.003 -18.576   4.597  0.00  0.00    +0.012 A 
ENDROOT
BRANCH   1  16
ATOM     15  C   LIG    1       21.714 -21.570   4.559  0.00  0.00    +0.091 C 
ATOM     16  C   LIG    1       22.821 -20.849   3.821  0.00  0.00    +0.160 C 
ATOM     17  O   LIG    1       23.566 -21.452   3.075  0.00  0.00    -0.292 OA
ENDBRANCH   1  16
BRANCH   4  18
ATOM     18  C   LIG    1       26.712 -17.347   4.663  0.00  0.00    +0.129 C 
BRANCH  18  19
ATOM     19  C   LIG    1       27.286 -18.807   4.581  0.00  0.00    +0.071 C 
ATOM     20  C   LIG    1       26.331 -19.846   5.197  0.00  0.00    +0.026 C 
BRANCH  19  21
ATOM     21  N   LIG    1       28.657 -19.014   5.135  0.00  0.00    -0.304 NA
ATOM     22  C   LIG    1       28.737 -19.845   6.333  0.00  0.00    +0.105 C 
ATOM     23  C   LIG    1       29.409 -17.774   5.302  0.00  0.00    +0.105 C 
ENDBRANCH  19  21
ENDBRANCH  18  19
ENDBRANCH   4  18
TORSDOF 4
ENDMDL
MODEL 2
REMARK VINA RESULT:       2.8      2.217      4.593
REMARK  Name = *****
REMARK                            x       y       z     vdW  Elec       q    Type
REMARK                         _______ _______ _______ _____ _____    ______ ____
ROOT
ATOM      1  C   LIG    1       28.056 -19.589   5.928  0.00  0.00    +0.019 A 
ATOM      2  C   LIG    1       26.807 -19.064   5.567  0.00  0.00    +0.035 A 
ATOM      3  C   LIG    1       26.695 -17.918   4.762  0.00  0.00    +0.049 A 
ATOM      4  N   LIG    1       25.383 -17.516   4.315  0.00  0.00    -0.297 N 
ATOM      5  C   LIG    1       25.134 -16.144   3.979  0.00  0.00    +0.048 A 
ATOM      6  C   LIG    1       26.146 -15.262   3.553  0.00  0.00    +0.034 A 
ATOM      7  S   LIG    1       27.852 -15.756   3.409  0.00  0.00    -0.086 S 
ATOM      8  C   LIG    1       25.826 -13.940   3.202  0.00  0.00    +0.017 A 
ATOM      9  C   LIG    1       24.512 -13.479   3.287  0.00  0.00    +0.001 A 
ATOM     10  C   LIG    1       23.517 -14.326   3.757  0.00  0.00    +0.002 A 
ATOM     11  C   LIG    1       23.832 -15.637   4.117  0.00  0.00    +0.024 A 
ATOM     12  C   LIG    1       27.869 -17.231   4.403  0.00  0.00    +0.034 A 
ATOM     13  C   LIG    1       29.120 -17.735   4.791  0.00  0.00    +0.017 A 
ATOM     14  C   LIG    1       29.221 -18.912   5.539  0.00  0.00    +0.012 A 
ENDROOT
BRANCH   1  16
ATOM     15  C   LIG    1       26.797 -21.565   7.050  0.00  0.00    +0.091 C 
ATOM     16  C   LIG    1       28.094 -20.874   6.688  0.00  0.00    +0.160 C 
ATOM     17  O   LIG    1       29.163 -21.357   7.002  0.00  0.00    -0.292 OA
ENDBRANCH   1  16
BRANCH   4  18
ATOM     18  C   LIG    1       25.012 -18.410   3.148  0.00  0.00    +0.129 C 
BRANCH  18  19
ATOM     19  C   LIG    1       23.791 -19.372   3.374  0.00  0.00    +0.071 C 
ATOM     20  C   LIG    1       22.448 -18.620   3.383  0.00  0.00    +0.026 C 
BRANCH  19  21
ATOM     21  N   LIG    1       23.860 -20.265   4.569  0.00  0.00    -0.304 NA
ATOM     22  C   LIG    1       24.501 -21.560   4.356  0.00  0.00    +0.105 C 
ATOM     23  C   LIG    1       22.581 -20.416   5.255  0.00  0.00    +0.105 C 
ENDBRANCH  19  21
ENDBRANCH  18  19
ENDBRANCH   4  18
TORSDOF 4
ENDMDL
MODEL 3
REMARK VINA RESULT:       3.1      2.190      3.248
REMARK  Name = *****
REMARK                            x       y       z     vdW  Elec       q    Type
REMARK                         _______ _______ _______ _____ _____    ______ ____
ROOT
ATOM      1  C   LIG    1       24.102 -18.875   3.848  0.00  0.00    +0.019 A 
ATOM      2  C   LIG    1       24.839 -17.809   3.311  0.00  0.00    +0.035 A 
ATOM      3  C   LIG    1       24.537 -16.474   3.625  0.00  0.00    +0.049 A 
ATOM      4  N   LIG    1       25.421 -15.437   3.149  0.00  0.00    -0.297 N 
ATOM      5  C   LIG    1       24.923 -14.106   2.963  0.00  0.00    +0.048 A 
ATOM      6  C   LIG    1       23.818 -13.593   3.670  0.00  0.00    +0.034 A 
ATOM      7  S   LIG    1       22.907 -14.559   4.859  0.00  0.00    -0.086 S 
ATOM      8  C   LIG    1       23.406 -12.266   3.467  0.00  0.00    +0.017 A 
ATOM      9  C   LIG    1       24.070 -11.447   2.554  0.00  0.00    +0.001 A 
ATOM     10  C   LIG    1       25.126 -11.960   1.813  0.00  0.00    +0.002 A 
ATOM     11  C   LIG    1       25.533 -13.282   2.003  0.00  0.00    +0.024 A 
ATOM     12  C   LIG    1       23.403 -16.209   4.416  0.00  0.00    +0.034 A 
ATOM     13  C   LIG    1       22.644 -17.273   4.928  0.00  0.00    +0.017 A 
ATOM     14  C   LIG    1       22.992 -18.600   4.660  0.00  0.00    +0.012 A 
ENDROOT
BRANCH   1  16
ATOM     15  C   LIG    1       24.985 -21.165   4.701  0.00  0.00    +0.091 C 
ATOM     16  C   LIG    1       24.555 -20.270   3.559  0.00  0.00    +0.160 C 
ATOM     17  O   LIG    1       24.568 -20.674   2.415  0.00  0.00    -0.292 OA
ENDBRANCH   1  16
BRANCH   4  18
ATOM     18  C   LIG    1       26.625 -15.415   4.071  0.00  0.00    +0.129 C 
BRANCH  18  19
ATOM     19  C   LIG    1       27.341 -14.028   4.240  0.00  0.00    +0.071 C 
ATOM     20  C   LIG    1       28.772 -14.035   3.671  0.00  0.00    +0.026 C 
BRANCH  19  21
ATOM     21  N   LIG    1       27.367 -13.456   5.619  0.00  0.00    -0.304 NA
ATOM     22  C   LIG    1       26.094 -12.937   6.113  0.00  0.00    +0.105 C 
ATOM     23  C   LIG    1       28.445 -12.495   5.830  0.00  0.00    +0.105 C 
ENDBRANCH  19  21
ENDBRANCH  18  19
ENDBRANCH   4  18
TORSDOF 4
ENDMDL
MODEL 4
REMARK VINA RESULT:       5.1      2.502      4.732
REMARK  Name = *****
REMARK                            x       y       z     vdW  Elec       q    Type
REMARK                         _______ _______ _______ _____ _____    ______ ____
ROOT
ATOM      1  C   LIG    1       23.549 -18.276   3.976  0.00  0.00    +0.019 A 
ATOM      2  C   LIG    1       23.741 -16.895   4.128  0.00  0.00    +0.035 A 
ATOM      3  C   LIG    1       24.983 -16.291   3.868  0.00  0.00    +0.049 A 
ATOM      4  N   LIG    1       25.072 -14.852   3.911  0.00  0.00    -0.297 N 
ATOM      5  C   LIG    1       26.330 -14.224   4.187  0.00  0.00    +0.048 A 
ATOM      6  C   LIG    1       27.570 -14.835   3.918  0.00  0.00    +0.034 A 
ATOM      7  S   LIG    1       27.703 -16.471   3.223  0.00  0.00    -0.086 S 
ATOM      8  C   LIG    1       28.767 -14.147   4.178  0.00  0.00    +0.017 A 
ATOM      9  C   LIG    1       28.745 -12.862   4.721  0.00  0.00    +0.001 A 
ATOM     10  C   LIG    1       27.529 -12.272   5.039  0.00  0.00    +0.002 A 
ATOM     11  C   LIG    1       26.337 -12.956   4.792  0.00  0.00    +0.024 A 
ATOM     12  C   LIG    1       26.077 -17.117   3.548  0.00  0.00    +0.034 A 
ATOM     13  C   LIG    1       25.896 -18.503   3.427  0.00  0.00    +0.017 A 
ATOM     14  C   LIG    1       24.640 -19.085   3.626  0.00  0.00    +0.012 A 
ENDROOT
BRANCH   1  16
ATOM     15  C   LIG    1       21.990 -20.170   4.829  0.00  0.00    +0.091 C 
ATOM     16  C   LIG    1       22.172 -18.826   4.158  0.00  0.00    +0.160 C 
ATOM     17  O   LIG    1       21.212 -18.189   3.775  0.00  0.00    -0.292 OA
ENDBRANCH   1  16
BRANCH   4  18
ATOM     18  C   LIG    1       24.508 -14.328   2.603  0.00  0.00    +0.129 C 
BRANCH  18  19
ATOM     19  C   LIG    1       23.737 -12.962   2.680  0.00  0.00    +0.071 C 
ATOM     20  C   LIG    1       24.560 -11.793   2.108  0.00  0.00    +0.026 C 
BRANCH  19  21
ATOM     21  N   LIG    1       23.202 -12.575   4.019  0.00  0.00    -0.304 NA
ATOM     22  C   LIG    1       23.869 -11.447   4.665  0.00  0.00    +0.105 C 
ATOM     23  C   LIG    1       23.064 -13.701   4.937  0.00  0.00    +0.105 C 
ENDBRANCH  19  21
ENDBRANCH  18  19
ENDBRANCH   4  18
TORSDOF 4
ENDMDL
MODEL 5
REMARK VINA RESULT:       5.3      1.390      2.244
REMARK  Name = *****
REMARK                            x       y       z     vdW  Elec       q    Type
REMARK                         _______ _______ _______ _____ _____    ______ ____
ROOT
ATOM      1  C   LIG    1       23.866 -18.803   4.040  0.00  0.00    +0.019 A 
ATOM      2  C   LIG    1       24.766 -17.788   3.683  0.00  0.00    +0.035 A 
ATOM      3  C   LIG    1       24.444 -16.430   3.839  0.00  0.00    +0.049 A 
ATOM      4  N   LIG    1       25.467 -15.445   3.582  0.00  0.00    -0.297 N 
ATOM      5  C   LIG    1       25.096 -14.114   3.203  0.00  0.00    +0.048 A 
ATOM      6  C   LIG    1       23.860 -13.533   3.547  0.00  0.00    +0.034 A 
ATOM      7  S   LIG    1       22.614 -14.407   4.476  0.00  0.00    -0.086 S 
ATOM      8  C   LIG    1       23.575 -12.208   3.177  0.00  0.00    +0.017 A 
ATOM      9  C   LIG    1       24.500 -11.459   2.449  0.00  0.00    +0.001 A 
ATOM     10  C   LIG    1       25.699 -12.041   2.059  0.00  0.00    +0.002 A 
ATOM     11  C   LIG    1       25.982 -13.360   2.416  0.00  0.00    +0.024 A 
ATOM     12  C   LIG    1       23.146 -16.092   4.267  0.00  0.00    +0.034 A 
ATOM     13  C   LIG    1       22.232 -17.105   4.593  0.00  0.00    +0.017 A 
ATOM     14  C   LIG    1       22.586 -18.453   4.495  0.00  0.00    +0.012 A 
ENDROOT
BRANCH   1  16
ATOM     15  C   LIG    1       25.231 -20.779   5.030  0.00  0.00    +0.091 C 
ATOM     16  C   LIG    1       24.324 -20.223   3.954  0.00  0.00    +0.160 C 
ATOM     17  O   LIG    1       23.959 -20.918   3.029  0.00  0.00    -0.292 OA
ENDBRANCH   1  16
BRANCH   4  18
ATOM     18  C   LIG    1       26.367 -15.404   4.803  0.00  0.00    +0.129 C 
BRANCH  18  19
ATOM     19  C   LIG    1       27.905 -15.578   4.534  0.00  0.00    +0.071 C 
ATOM     20  C   LIG    1       28.402 -14.683   3.384  0.00  0.00    +0.026 C 
BRANCH  19  21
ATOM     21  N   LIG    1       28.388 -16.973   4.313  0.00  0.00    -0.304 NA
ATOM     22  C   LIG    1       27.406 -17.904   3.766  0.00  0.00    +0.105 C 
ATOM     23  C   LIG    1       29.066 -17.543   5.474  0.00  0.00    +0.105 C 
ENDBRANCH  19  21
ENDBRANCH  18  19
ENDBRANCH   4  18
TORSDOF 4
ENDMDL
MODEL 6
REMARK VINA RESULT:       5.3      2.276      5.035
REMARK  Name = *****
REMARK                            x       y       z     vdW  Elec       q    Type
REMARK                         _______ _______ _______ _____ _____    ______ ____
ROOT
ATOM      1  C   LIG    1       22.492 -18.781   4.308  0.00  0.00    +0.019 A 
ATOM      2  C   LIG    1       23.762 -18.233   4.542  0.00  0.00    +0.035 A 
ATOM      3  C   LIG    1       24.900 -19.044   4.683  0.00  0.00    +0.049 A 
ATOM      4  N   LIG    1       26.192 -18.409   4.783  0.00  0.00    -0.297 N 
ATOM      5  C   LIG    1       27.270 -19.086   5.441  0.00  0.00    +0.048 A 
ATOM      6  C   LIG    1       27.347 -20.489   5.546  0.00  0.00    +0.034 A 
ATOM      7  S   LIG    1       26.093 -21.570   4.887  0.00  0.00    -0.086 S 
ATOM      8  C   LIG    1       28.452 -21.089   6.171  0.00  0.00    +0.017 A 
ATOM      9  C   LIG    1       29.475 -20.309   6.710  0.00  0.00    +0.001 A 
ATOM     10  C   LIG    1       29.382 -18.925   6.659  0.00  0.00    +0.002 A 
ATOM     11  C   LIG    1       28.280 -18.323   6.048  0.00  0.00    +0.024 A 
ATOM     12  C   LIG    1       24.732 -20.442   4.690  0.00  0.00    +0.034 A 
ATOM     13  C   LIG    1       23.457 -20.993   4.490  0.00  0.00    +0.017 A 
ATOM     14  C   LIG    1       22.342 -20.175   4.287  0.00  0.00    +0.012 A 
ENDROOT
BRANCH   1  16
ATOM     15  C   LIG    1       20.139 -18.347   3.297  0.00  0.00    +0.091 C 
ATOM     16  C   LIG    1       21.352 -17.850   4.053  0.00  0.00    +0.160 C 
ATOM     17  O   LIG    1       21.404 -16.707   4.460  0.00  0.00    -0.292 OA
ENDBRANCH   1  16
BRANCH   4  18
ATOM     18  C   LIG    1       26.608 -18.015   3.378  0.00  0.00    +0.129 C 
BRANCH  18  19
ATOM     19  C   LIG    1       26.981 -16.504   3.165  0.00  0.00    +0.071 C 
ATOM     20  C   LIG    1       27.810 -15.937   4.332  0.00  0.00    +0.026 C 
BRANCH  19  21
ATOM     21  N   LIG    1       25.850 -15.575   2.871  0.00  0.00    -0.304 NA
ATOM     22  C   LIG    1       26.201 -14.363   2.136  0.00  0.00    +0.105 C 
ATOM     23  C   LIG    1       25.035 -15.264   4.042  0.00  0.00    +0.105 C 
ENDBRANCH  19  21
ENDBRANCH  18  19
ENDBRANCH   4  18
TORSDOF 4
ENDMDL
