MODEL 1
REMARK VINA RESULT:      -5.4      0.000      0.000
REMARK  Name = *****
REMARK                            x       y       z     vdW  Elec       q    Type
REMARK                         _______ _______ _______ _____ _____    ______ ____
ROOT
ATOM      1  C   LIG    1       25.359 -18.064   3.305  0.00  0.00    +0.178 C 
ENDROOT
BRANCH   1   2
ATOM      2  C   LIG    1       25.043 -16.602   3.614  0.00  0.00    -0.014 A 
ATOM      3  C   LIG    1       26.015 -15.611   3.380  0.00  0.00    +0.007 A 
ATOM      4  C   LIG    1       25.737 -14.260   3.615  0.00  0.00    +0.015 A 
ATOM      5  C   LIG    1       24.484 -13.889   4.088  0.00  0.00    +0.018 A 
ATOM      6 BR   LIG    1       24.102 -12.061   4.403  0.00  0.00    -0.050 Br
ATOM      7  C   LIG    1       23.506 -14.850   4.329  0.00  0.00    +0.015 A 
ATOM      8  C   LIG    1       23.786 -16.202   4.087  0.00  0.00    +0.007 A 
ENDBRANCH   1   2
BRANCH   1   9
ATOM      9  C   LIG    1       24.301 -19.004   3.872  0.00  0.00    -0.015 A 
ATOM     10  C   LIG    1       23.024 -18.533   4.229  0.00  0.00    +0.006 A 
ATOM     11  C   LIG    1       22.063 -19.402   4.746  0.00  0.00    +0.000 A 
ATOM     12  C   LIG    1       22.355 -20.758   4.892  0.00  0.00    +0.000 A 
ATOM     13  C   LIG    1       23.609 -21.240   4.539  0.00  0.00    +0.000 A 
ATOM     14  C   LIG    1       24.582 -20.372   4.035  0.00  0.00    +0.006 A 
ENDBRANCH   1   9
BRANCH   1  15
ATOM     15  O   LIG    1       26.683 -18.391   3.780  0.00  0.00    -0.366 OA
BRANCH  15  16
ATOM     16  C   LIG    1       26.660 -19.396   4.802  0.00  0.00    +0.176 C 
BRANCH  16  17
ATOM     17  C   LIG    1       28.018 -19.462   5.522  0.00  0.00    +0.112 C 
BRANCH  17  19
ATOM     18  C   LIG    1       29.269 -20.884   7.061  0.00  0.00    +0.104 C 
ATOM     19  N   LIG    1       28.032 -20.139   6.834  0.00  0.00    -0.306 NA
ATOM     20  C   LIG    1       26.867 -21.002   7.028  0.00  0.00    +0.104 C 
ENDBRANCH  17  19
ENDBRANCH  16  17
ENDBRANCH  15  16
ENDBRANCH   1  15
TORSDOF 6
ENDMDL
MODEL 2
REMARK VINA RESULT:      -4.8      3.564      6.163
REMARK  Name = *****
REMARK                            x       y       z     vdW  Elec       q    Type
REMARK                         _______ _______ _______ _____ _____    ______ ____
ROOT
ATOM      1  C   LIG    1       25.413 -15.240   4.088  0.00  0.00    +0.178 C 
ENDROOT
BRANCH   1   2
ATOM      2  C   LIG    1       24.378 -16.364   4.063  0.00  0.00    -0.014 A 
ATOM      3  C   LIG    1       24.764 -17.664   3.682  0.00  0.00    +0.007 A 
ATOM      4  C   LIG    1       23.845 -18.719   3.692  0.00  0.00    +0.015 A 
ATOM      5  C   LIG    1       22.532 -18.483   4.081  0.00  0.00    +0.018 A 
ATOM      6 BR   LIG    1       21.287 -19.910   4.100  0.00  0.00    -0.050 Br
ATOM      7  C   LIG    1       22.126 -17.207   4.461  0.00  0.00    +0.015 A 
ATOM      8  C   LIG    1       23.049 -16.153   4.455  0.00  0.00    +0.007 A 
ENDBRANCH   1   2
BRANCH   1   9
ATOM      9  C   LIG    1       24.823 -13.916   3.616  0.00  0.00    -0.015 A 
ATOM     10  C   LIG    1       24.315 -12.978   4.534  0.00  0.00    +0.006 A 
ATOM     11  C   LIG    1       23.777 -11.768   4.091  0.00  0.00    +0.000 A 
ATOM     12  C   LIG    1       23.762 -11.469   2.729  0.00  0.00    +0.000 A 
ATOM     13  C   LIG    1       24.265 -12.383   1.812  0.00  0.00    +0.000 A 
ATOM     14  C   LIG    1       24.791 -13.603   2.246  0.00  0.00    +0.006 A 
ENDBRANCH   1   9
BRANCH   1  15
ATOM     15  O   LIG    1       26.571 -15.623   3.312  0.00  0.00    -0.366 OA
BRANCH  15  16
ATOM     16  C   LIG    1       27.796 -15.203   3.923  0.00  0.00    +0.176 C 
BRANCH  16  17
ATOM     17  C   LIG    1       28.114 -13.746   3.546  0.00  0.00    +0.112 C 
BRANCH  17  19
ATOM     18  C   LIG    1       29.191 -11.928   4.768  0.00  0.00    +0.104 C 
ATOM     19  N   LIG    1       27.988 -12.746   4.626  0.00  0.00    -0.306 NA
ATOM     20  C   LIG    1       27.621 -13.352   5.905  0.00  0.00    +0.104 C 
ENDBRANCH  17  19
ENDBRANCH  16  17
ENDBRANCH  15  16
ENDBRANCH   1  15
TORSDOF 6
ENDMDL
MODEL 3
REMARK VINA RESULT:      -4.6      2.932      5.955
REMARK  Name = *****
REMARK                            x       y       z     vdW  Elec       q    Type
REMARK                         _______ _______ _______ _____ _____    ______ ____
ROOT
ATOM      1  C   LIG    1       25.790 -17.409   3.317  0.00  0.00    +0.178 C 
ENDROOT
BRANCH   1   2
ATOM      2  C   LIG    1       26.694 -18.207   4.255  0.00  0.00    -0.014 A 
ATOM      3  C   LIG    1       26.234 -19.415   4.813  0.00  0.00    +0.007 A 
ATOM      4  C   LIG    1       27.058 -20.185   5.640  0.00  0.00    +0.015 A 
ATOM      5  C   LIG    1       28.350 -19.754   5.918  0.00  0.00    +0.018 A 
ATOM      6 BR   LIG    1       29.470 -20.797   7.034  0.00  0.00    -0.050 Br
ATOM      7  C   LIG    1       28.828 -18.563   5.380  0.00  0.00    +0.015 A 
ATOM      8  C   LIG    1       28.003 -17.795   4.547  0.00  0.00    +0.007 A 
ENDBRANCH   1   2
BRANCH   1   9
ATOM      9  C   LIG    1       26.006 -15.907   3.464  0.00  0.00    -0.015 A 
ATOM     10  C   LIG    1       27.291 -15.343   3.360  0.00  0.00    +0.006 A 
ATOM     11  C   LIG    1       27.478 -13.966   3.495  0.00  0.00    +0.000 A 
ATOM     12  C   LIG    1       26.381 -13.132   3.711  0.00  0.00    +0.000 A 
ATOM     13  C   LIG    1       25.106 -13.673   3.811  0.00  0.00    +0.000 A 
ATOM     14  C   LIG    1       24.913 -15.053   3.692  0.00  0.00    +0.006 A 
ENDBRANCH   1   9
BRANCH   1  15
ATOM     15  O   LIG    1       24.410 -17.780   3.534  0.00  0.00    -0.366 OA
BRANCH  15  16
ATOM     16  C   LIG    1       24.229 -19.201   3.560  0.00  0.00    +0.176 C 
BRANCH  16  17
ATOM     17  C   LIG    1       22.882 -19.560   4.212  0.00  0.00    +0.112 C 
BRANCH  17  19
ATOM     18  C   LIG    1       21.575 -21.509   4.883  0.00  0.00    +0.104 C 
ATOM     19  N   LIG    1       22.849 -20.804   5.007  0.00  0.00    -0.306 NA
ATOM     20  C   LIG    1       23.178 -20.575   6.413  0.00  0.00    +0.104 C 
ENDBRANCH  17  19
ENDBRANCH  16  17
ENDBRANCH  15  16
ENDBRANCH   1  15
TORSDOF 6
ENDMDL
MODEL 4
REMARK VINA RESULT:      -4.6      1.295      2.055
REMARK  Name = *****
REMARK                            x       y       z     vdW  Elec       q    Type
REMARK                         _______ _______ _______ _____ _____    ______ ____
ROOT
ATOM      1  C   LIG    1       24.439 -19.360   3.534  0.00  0.00    +0.178 C 
ENDROOT
BRANCH   1   2
ATOM      2  C   LIG    1       24.349 -17.844   3.707  0.00  0.00    -0.014 A 
ATOM      3  C   LIG    1       23.178 -17.268   4.236  0.00  0.00    +0.007 A 
ATOM      4  C   LIG    1       23.087 -15.888   4.444  0.00  0.00    +0.015 A 
ATOM      5  C   LIG    1       24.165 -15.071   4.125  0.00  0.00    +0.018 A 
ATOM      6 BR   LIG    1       24.046 -13.203   4.410  0.00  0.00    -0.050 Br
ATOM      7  C   LIG    1       25.333 -15.617   3.600  0.00  0.00    +0.015 A 
ATOM      8  C   LIG    1       25.425 -17.000   3.397  0.00  0.00    +0.007 A 
ENDBRANCH   1   2
BRANCH   1   9
ATOM      9  C   LIG    1       23.814 -20.103   4.709  0.00  0.00    -0.015 A 
ATOM     10  C   LIG    1       22.630 -20.846   4.554  0.00  0.00    +0.006 A 
ATOM     11  C   LIG    1       22.067 -21.524   5.637  0.00  0.00    +0.000 A 
ATOM     12  C   LIG    1       22.691 -21.487   6.883  0.00  0.00    +0.000 A 
ATOM     13  C   LIG    1       23.864 -20.761   7.051  0.00  0.00    +0.000 A 
ATOM     14  C   LIG    1       24.425 -20.068   5.975  0.00  0.00    +0.006 A 
ENDBRANCH   1   9
BRANCH   1  15
ATOM     15  O   LIG    1       25.814 -19.747   3.319  0.00  0.00    -0.366 OA
BRANCH  15  16
ATOM     16  C   LIG    1       26.422 -20.270   4.507  0.00  0.00    +0.176 C 
BRANCH  16  17
ATOM     17  C   LIG    1       27.634 -19.413   4.913  0.00  0.00    +0.112 C 
BRANCH  17  19
ATOM     18  C   LIG    1       27.765 -20.581   7.051  0.00  0.00    +0.104 C 
ATOM     19  N   LIG    1       28.516 -19.976   5.954  0.00  0.00    -0.306 NA
ATOM     20  C   LIG    1       29.473 -18.995   6.463  0.00  0.00    +0.104 C 
ENDBRANCH  17  19
ENDBRANCH  16  17
ENDBRANCH  15  16
ENDBRANCH   1  15
TORSDOF 6
ENDMDL
MODEL 5
REMARK VINA RESULT:      -4.6      1.325      1.770
REMARK  Name = *****
REMARK                            x       y       z     vdW  Elec       q    Type
REMARK                         _______ _______ _______ _____ _____    ______ ____
ROOT
ATOM      1  C   LIG    1       25.846 -18.912   3.633  0.00  0.00    +0.178 C 
ENDROOT
BRANCH   1   2
ATOM      2  C   LIG    1       26.180 -17.423   3.711  0.00  0.00    -0.014 A 
ATOM      3  C   LIG    1       27.458 -17.013   4.134  0.00  0.00    +0.007 A 
ATOM      4  C   LIG    1       27.802 -15.657   4.173  0.00  0.00    +0.015 A 
ATOM      5  C   LIG    1       26.869 -14.700   3.790  0.00  0.00    +0.018 A 
ATOM      6 BR   LIG    1       27.333 -12.864   3.838  0.00  0.00    -0.050 Br
ATOM      7  C   LIG    1       25.599 -15.080   3.370  0.00  0.00    +0.015 A 
ATOM      8  C   LIG    1       25.258 -16.439   3.326  0.00  0.00    +0.007 A 
ENDBRANCH   1   2
BRANCH   1   9
ATOM      9  C   LIG    1       24.409 -19.194   4.056  0.00  0.00    -0.015 A 
ATOM     10  C   LIG    1       23.465 -18.156   4.163  0.00  0.00    +0.006 A 
ATOM     11  C   LIG    1       22.151 -18.426   4.550  0.00  0.00    +0.000 A 
ATOM     12  C   LIG    1       21.757 -19.737   4.814  0.00  0.00    +0.000 A 
ATOM     13  C   LIG    1       22.676 -20.773   4.708  0.00  0.00    +0.000 A 
ATOM     14  C   LIG    1       23.997 -20.509   4.336  0.00  0.00    +0.006 A 
ENDBRANCH   1   9
BRANCH   1  15
ATOM     15  O   LIG    1       26.798 -19.668   4.414  0.00  0.00    -0.366 OA
BRANCH  15  16
ATOM     16  C   LIG    1       26.248 -20.108   5.662  0.00  0.00    +0.176 C 
BRANCH  16  17
ATOM     17  C   LIG    1       27.337 -20.143   6.748  0.00  0.00    +0.112 C 
BRANCH  17  19
ATOM     18  C   LIG    1       29.445 -21.336   7.046  0.00  0.00    +0.104 C 
ATOM     19  N   LIG    1       28.726 -20.322   6.278  0.00  0.00    -0.306 NA
ATOM     20  C   LIG    1       29.473 -19.065   6.256  0.00  0.00    +0.104 C 
ENDBRANCH  17  19
ENDBRANCH  16  17
ENDBRANCH  15  16
ENDBRANCH   1  15
TORSDOF 6
ENDMDL
MODEL 6
REMARK VINA RESULT:      -4.6      2.972      5.855
REMARK  Name = *****
REMARK                            x       y       z     vdW  Elec       q    Type
REMARK                         _______ _______ _______ _____ _____    ______ ____
ROOT
ATOM      1  C   LIG    1       26.350 -18.747   3.649  0.00  0.00    +0.178 C 
ENDROOT
BRANCH   1   2
ATOM      2  C   LIG    1       25.004 -19.422   3.909  0.00  0.00    -0.014 A 
ATOM      3  C   LIG    1       24.928 -20.826   3.990  0.00  0.00    +0.007 A 
ATOM      4  C   LIG    1       23.715 -21.465   4.270  0.00  0.00    +0.015 A 
ATOM      5  C   LIG    1       22.568 -20.707   4.470  0.00  0.00    +0.018 A 
ATOM      6 BR   LIG    1       20.926 -21.570   4.853  0.00  0.00    -0.050 Br
ATOM      7  C   LIG    1       22.617 -19.319   4.394  0.00  0.00    +0.015 A 
ATOM      8  C   LIG    1       23.833 -18.679   4.119  0.00  0.00    +0.007 A 
ENDBRANCH   1   2
BRANCH   1   9
ATOM      9  C   LIG    1       27.336 -18.993   4.785  0.00  0.00    -0.015 A 
ATOM     10  C   LIG    1       28.580 -18.337   4.823  0.00  0.00    +0.006 A 
ATOM     11  C   LIG    1       29.475 -18.569   5.869  0.00  0.00    +0.000 A 
ATOM     12  C   LIG    1       29.130 -19.440   6.903  0.00  0.00    +0.000 A 
ATOM     13  C   LIG    1       27.903 -20.090   6.881  0.00  0.00    +0.000 A 
ATOM     14  C   LIG    1       27.008 -19.875   5.829  0.00  0.00    +0.006 A 
ENDBRANCH   1   9
BRANCH   1  15
ATOM     15  O   LIG    1       26.151 -17.338   3.400  0.00  0.00    -0.366 OA
BRANCH  15  16
ATOM     16  C   LIG    1       27.321 -16.565   3.692  0.00  0.00    +0.176 C 
BRANCH  16  17
ATOM     17  C   LIG    1       26.939 -15.111   4.018  0.00  0.00    +0.112 C 
BRANCH  17  19
ATOM     18  C   LIG    1       26.062 -13.623   2.295  0.00  0.00    +0.104 C 
ATOM     19  N   LIG    1       25.735 -14.583   3.347  0.00  0.00    -0.306 NA
ATOM     20  C   LIG    1       24.777 -14.009   4.291  0.00  0.00    +0.104 C 
ENDBRANCH  17  19
ENDBRANCH  16  17
ENDBRANCH  15  16
ENDBRANCH   1  15
TORSDOF 6
ENDMDL
MODEL 7
REMARK VINA RESULT:      -4.2      3.947      7.279
REMARK  Name = *****
REMARK                            x       y       z     vdW  Elec       q    Type
REMARK                         _______ _______ _______ _____ _____    ______ ____
ROOT
ATOM      1  C   LIG    1       26.957 -15.882   3.310  0.00  0.00    +0.178 C 
ENDROOT
BRANCH   1   2
ATOM      2  C   LIG    1       27.373 -17.148   4.058  0.00  0.00    -0.014 A 
ATOM      3  C   LIG    1       28.606 -17.188   4.736  0.00  0.00    +0.007 A 
ATOM      4  C   LIG    1       28.990 -18.320   5.463  0.00  0.00    +0.015 A 
ATOM      5  C   LIG    1       28.146 -19.422   5.517  0.00  0.00    +0.018 A 
ATOM      6 BR   LIG    1       28.661 -20.953   6.505  0.00  0.00    -0.050 Br
ATOM      7  C   LIG    1       26.922 -19.407   4.854  0.00  0.00    +0.015 A 
ATOM      8  C   LIG    1       26.536 -18.271   4.131  0.00  0.00    +0.007 A 
ENDBRANCH   1   2
BRANCH   1   9
ATOM      9  C   LIG    1       27.496 -14.624   3.981  0.00  0.00    -0.015 A 
ATOM     10  C   LIG    1       28.463 -13.820   3.351  0.00  0.00    +0.006 A 
ATOM     11  C   LIG    1       28.949 -12.670   3.975  0.00  0.00    +0.000 A 
ATOM     12  C   LIG    1       28.459 -12.295   5.226  0.00  0.00    +0.000 A 
ATOM     13  C   LIG    1       27.501 -13.076   5.858  0.00  0.00    +0.000 A 
ATOM     14  C   LIG    1       27.021 -14.237   5.246  0.00  0.00    +0.006 A 
ENDBRANCH   1   9
BRANCH   1  15
ATOM     15  O   LIG    1       25.519 -15.846   3.170  0.00  0.00    -0.366 OA
BRANCH  15  16
ATOM     16  C   LIG    1       25.055 -14.587   2.668  0.00  0.00    +0.176 C 
BRANCH  16  17
ATOM     17  C   LIG    1       23.947 -14.023   3.575  0.00  0.00    +0.112 C 
BRANCH  17  19
ATOM     18  C   LIG    1       24.409 -11.951   2.370  0.00  0.00    +0.104 C 
ATOM     19  N   LIG    1       23.719 -12.565   3.503  0.00  0.00    -0.306 NA
ATOM     20  C   LIG    1       24.067 -11.885   4.749  0.00  0.00    +0.104 C 
ENDBRANCH  17  19
ENDBRANCH  16  17
ENDBRANCH  15  16
ENDBRANCH   1  15
TORSDOF 6
ENDMDL
MODEL 8
REMARK VINA RESULT:      -3.9      1.848      4.327
REMARK  Name = *****
REMARK                            x       y       z     vdW  Elec       q    Type
REMARK                         _______ _______ _______ _____ _____    ______ ____
ROOT
ATOM      1  C   LIG    1       25.879 -19.246   4.476  0.00  0.00    +0.178 C 
ENDROOT
BRANCH   1   2
ATOM      2  C   LIG    1       26.105 -17.797   4.045  0.00  0.00    -0.014 A 
ATOM      3  C   LIG    1       25.008 -16.999   3.668  0.00  0.00    +0.007 A 
ATOM      4  C   LIG    1       25.184 -15.658   3.310  0.00  0.00    +0.015 A 
ATOM      5  C   LIG    1       26.458 -15.104   3.324  0.00  0.00    +0.018 A 
ATOM      6 BR   LIG    1       26.698 -13.288   2.844  0.00  0.00    -0.050 Br
ATOM      7  C   LIG    1       27.559 -15.872   3.691  0.00  0.00    +0.015 A 
ATOM      8  C   LIG    1       27.380 -17.214   4.055  0.00  0.00    +0.007 A 
ENDBRANCH   1   2
BRANCH   1   9
ATOM      9  C   LIG    1       27.021 -19.763   5.344  0.00  0.00    -0.015 A 
ATOM     10  C   LIG    1       28.308 -19.198   5.266  0.00  0.00    +0.006 A 
ATOM     11  C   LIG    1       29.346 -19.679   6.066  0.00  0.00    +0.000 A 
ATOM     12  C   LIG    1       29.108 -20.714   6.970  0.00  0.00    +0.000 A 
ATOM     13  C   LIG    1       27.842 -21.278   7.062  0.00  0.00    +0.000 A 
ATOM     14  C   LIG    1       26.801 -20.812   6.254  0.00  0.00    +0.006 A 
ENDBRANCH   1   9
BRANCH   1  15
ATOM     15  O   LIG    1       25.665 -20.075   3.313  0.00  0.00    -0.366 OA
BRANCH  15  16
ATOM     16  C   LIG    1       24.289 -20.442   3.155  0.00  0.00    +0.176 C 
BRANCH  16  17
ATOM     17  C   LIG    1       23.838 -21.352   4.310  0.00  0.00    +0.112 C 
BRANCH  17  19
ATOM     18  C   LIG    1       22.352 -19.478   4.797  0.00  0.00    +0.104 C 
ATOM     19  N   LIG    1       22.764 -20.827   5.178  0.00  0.00    -0.306 NA
ATOM     20  C   LIG    1       23.119 -20.877   6.595  0.00  0.00    +0.104 C 
ENDBRANCH  17  19
ENDBRANCH  16  17
ENDBRANCH  15  16
ENDBRANCH   1  15
TORSDOF 6
ENDMDL
MODEL 9
REMARK VINA RESULT:      -3.7      3.614      7.107
REMARK  Name = *****
REMARK                            x       y       z     vdW  Elec       q    Type
REMARK                         _______ _______ _______ _____ _____    ______ ____
ROOT
ATOM      1  C   LIG    1       26.472 -15.017   2.685  0.00  0.00    +0.178 C 
ENDROOT
BRANCH   1   2
ATOM      2  C   LIG    1       26.207 -16.413   3.248  0.00  0.00    -0.014 A 
ATOM      3  C   LIG    1       24.896 -16.924   3.264  0.00  0.00    +0.007 A 
ATOM      4  C   LIG    1       24.633 -18.216   3.734  0.00  0.00    +0.015 A 
ATOM      5  C   LIG    1       25.680 -19.006   4.193  0.00  0.00    +0.018 A 
ATOM      6 BR   LIG    1       25.329 -20.756   4.826  0.00  0.00    -0.050 Br
ATOM      7  C   LIG    1       26.985 -18.523   4.188  0.00  0.00    +0.015 A 
ATOM      8  C   LIG    1       27.247 -17.231   3.712  0.00  0.00    +0.007 A 
ENDBRANCH   1   2
BRANCH   1   9
ATOM      9  C   LIG    1       27.187 -14.126   3.695  0.00  0.00    -0.015 A 
ATOM     10  C   LIG    1       28.282 -13.328   3.315  0.00  0.00    +0.006 A 
ATOM     11  C   LIG    1       28.929 -12.515   4.247  0.00  0.00    +0.000 A 
ATOM     12  C   LIG    1       28.476 -12.470   5.566  0.00  0.00    +0.000 A 
ATOM     13  C   LIG    1       27.393 -13.248   5.955  0.00  0.00    +0.000 A 
ATOM     14  C   LIG    1       26.750 -14.075   5.030  0.00  0.00    +0.006 A 
ENDBRANCH   1   9
BRANCH   1  15
ATOM     15  O   LIG    1       25.233 -14.430   2.229  0.00  0.00    -0.366 OA
BRANCH  15  16
ATOM     16  C   LIG    1       25.326 -13.007   2.090  0.00  0.00    +0.176 C 
BRANCH  16  17
ATOM     17  C   LIG    1       24.170 -12.317   2.835  0.00  0.00    +0.112 C 
BRANCH  17  19
ATOM     18  C   LIG    1       23.448 -13.821   4.617  0.00  0.00    +0.104 C 
ATOM     19  N   LIG    1       24.096 -12.552   4.291  0.00  0.00    -0.306 NA
ATOM     20  C   LIG    1       23.453 -11.448   5.002  0.00  0.00    +0.104 C 
ENDBRANCH  17  19
ENDBRANCH  16  17
ENDBRANCH  15  16
ENDBRANCH   1  15
TORSDOF 6
ENDMDL
