MODEL 1
REMARK VINA RESULT:      -8.4      0.000      0.000
REMARK  Name = *****
REMARK                            x       y       z     vdW  Elec       q    Type
REMARK                         _______ _______ _______ _____ _____    ______ ____
ROOT
ATOM      1  C   LIG    1       27.885 -20.940   6.782  0.00  0.00    +0.124 A 
ATOM      2  C   LIG    1       29.134 -20.640   7.375  0.00  0.00    +0.000 A 
ATOM      3  C   LIG    1       29.660 -21.472   8.521  0.00  0.00    +0.073 C 
ATOM      4  C   LIG    1       31.172 -21.333   8.732  0.00  0.00    +0.148 C 
ATOM      5  C   LIG    1       31.591 -19.863   8.771  0.00  0.00    +0.147 C 
ATOM      6  C   LIG    1       31.216 -19.150   7.473  0.00  0.00    +0.069 C 
ATOM      7  C   LIG    1       29.863 -19.528   6.909  0.00  0.00    -0.038 A 
ATOM      8  C   LIG    1       29.366 -18.760   5.846  0.00  0.00    +0.004 A 
ATOM      9  C   LIG    1       28.125 -19.055   5.281  0.00  0.00    +0.004 A 
ATOM     10  C   LIG    1       27.386 -20.125   5.762  0.00  0.00    +0.046 A 
ENDROOT
BRANCH   5  11
ATOM     11  O   LIG    1       30.984 -19.236   9.914  0.00  0.00    -0.389 OA
ATOM     12  H   LIG    1       31.582 -18.531  10.215  0.00  0.00    +0.210 HD
ENDBRANCH   5  11
BRANCH   4  13
ATOM     13  O   LIG    1       31.543 -21.951   9.970  0.00  0.00    -0.389 OA
ATOM     14  H   LIG    1       32.140 -21.306  10.403  0.00  0.00    +0.210 HD
ENDBRANCH   4  13
BRANCH   1  15
ATOM     15  O   LIG    1       27.197 -22.025   7.266  0.00  0.00    -0.489 OA
BRANCH  15  16
ATOM     16  C   LIG    1       25.936 -22.278   6.628  0.00  0.00    +0.261 C 
BRANCH  16  17
ATOM     17  C   LIG    1       24.804 -22.238   7.663  0.00  0.00    +0.166 C 
BRANCH  17  18
ATOM     18  O   LIG    1       25.201 -21.494   8.822  0.00  0.00    -0.387 OA
ATOM     19  H   LIG    1       24.481 -20.872   9.020  0.00  0.00    +0.210 HD
ENDBRANCH  17  18
BRANCH  17  20
ATOM     20  C   LIG    1       23.505 -21.652   7.070  0.00  0.00    +0.116 C 
BRANCH  20  21
ATOM     21  N   LIG    1       23.722 -20.363   6.380  0.00  0.00    -0.309 NA
ATOM     22  H   LIG    1       23.381 -19.596   6.953  0.00  0.00    +0.122 HD
BRANCH  21  24
ATOM     23  C   LIG    1       22.446 -18.879   4.828  0.00  0.00    +0.027 C 
ATOM     24  C   LIG    1       23.092 -20.255   5.048  0.00  0.00    +0.011 C 
ATOM     25  C   LIG    1       24.107 -20.555   3.933  0.00  0.00    +0.027 C 
ATOM     26  C   LIG    1       21.976 -21.318   4.986  0.00  0.00    +0.027 C 
ENDBRANCH  21  24
ENDBRANCH  20  21
ENDBRANCH  17  20
ENDBRANCH  16  17
ENDBRANCH  15  16
ENDBRANCH   1  15
TORSDOF 9
ENDMDL
MODEL 2
REMARK VINA RESULT:      -8.3      2.356      3.399
REMARK  Name = *****
REMARK                            x       y       z     vdW  Elec       q    Type
REMARK                         _______ _______ _______ _____ _____    ______ ____
ROOT
ATOM      1  C   LIG    1       27.985 -20.563   6.494  0.00  0.00    +0.124 A 
ATOM      2  C   LIG    1       29.170 -20.391   7.249  0.00  0.00    +0.000 A 
ATOM      3  C   LIG    1       29.490 -21.315   8.400  0.00  0.00    +0.073 C 
ATOM      4  C   LIG    1       30.970 -21.304   8.797  0.00  0.00    +0.148 C 
ATOM      5  C   LIG    1       31.486 -19.875   8.969  0.00  0.00    +0.147 C 
ATOM      6  C   LIG    1       31.326 -19.075   7.678  0.00  0.00    +0.069 C 
ATOM      7  C   LIG    1       30.029 -19.318   6.937  0.00  0.00    -0.038 A 
ATOM      8  C   LIG    1       29.723 -18.463   5.868  0.00  0.00    +0.004 A 
ATOM      9  C   LIG    1       28.543 -18.633   5.142  0.00  0.00    +0.004 A 
ATOM     10  C   LIG    1       27.676 -19.664   5.471  0.00  0.00    +0.046 A 
ENDROOT
BRANCH   5  11
ATOM     11  O   LIG    1       30.789 -19.259  10.066  0.00  0.00    -0.389 OA
ATOM     12  H   LIG    1       31.229 -19.537  10.888  0.00  0.00    +0.210 HD
ENDBRANCH   5  11
BRANCH   4  13
ATOM     13  O   LIG    1       31.141 -22.008  10.034  0.00  0.00    -0.389 OA
ATOM     14  H   LIG    1       30.593 -21.517  10.680  0.00  0.00    +0.210 HD
ENDBRANCH   4  13
BRANCH   1  15
ATOM     15  O   LIG    1       27.167 -21.613   6.831  0.00  0.00    -0.489 OA
BRANCH  15  16
ATOM     16  C   LIG    1       25.763 -21.313   6.828  0.00  0.00    +0.261 C 
BRANCH  16  17
ATOM     17  C   LIG    1       24.963 -22.534   6.358  0.00  0.00    +0.166 C 
BRANCH  17  18
ATOM     18  O   LIG    1       24.958 -22.619   4.927  0.00  0.00    -0.387 OA
ATOM     19  H   LIG    1       24.031 -22.562   4.642  0.00  0.00    +0.210 HD
ENDBRANCH  17  18
BRANCH  17  20
ATOM     20  C   LIG    1       25.505 -23.845   6.969  0.00  0.00    +0.116 C 
BRANCH  20  21
ATOM     21  N   LIG    1       26.135 -24.726   5.965  0.00  0.00    -0.309 NA
ATOM     22  H   LIG    1       26.043 -24.324   5.036  0.00  0.00    +0.122 HD
BRANCH  21  24
ATOM     23  C   LIG    1       25.980 -26.827   4.621  0.00  0.00    +0.027 C 
ATOM     24  C   LIG    1       25.602 -26.104   5.923  0.00  0.00    +0.011 C 
ATOM     25  C   LIG    1       26.072 -26.914   7.141  0.00  0.00    +0.027 C 
ATOM     26  C   LIG    1       24.064 -25.998   5.976  0.00  0.00    +0.027 C 
ENDBRANCH  21  24
ENDBRANCH  20  21
ENDBRANCH  17  20
ENDBRANCH  16  17
ENDBRANCH  15  16
ENDBRANCH   1  15
TORSDOF 9
ENDMDL
MODEL 3
REMARK VINA RESULT:      -8.1      2.687      7.060
REMARK  Name = *****
REMARK                            x       y       z     vdW  Elec       q    Type
REMARK                         _______ _______ _______ _____ _____    ______ ____
ROOT
ATOM      1  C   LIG    1       25.930 -21.792   7.523  0.00  0.00    +0.124 A 
ATOM      2  C   LIG    1       25.373 -23.021   7.098  0.00  0.00    +0.000 A 
ATOM      3  C   LIG    1       26.262 -24.205   6.797  0.00  0.00    +0.073 C 
ATOM      4  C   LIG    1       25.517 -25.545   6.813  0.00  0.00    +0.148 C 
ATOM      5  C   LIG    1       24.242 -25.479   5.971  0.00  0.00    +0.147 C 
ATOM      6  C   LIG    1       23.298 -24.396   6.488  0.00  0.00    +0.069 C 
ATOM      7  C   LIG    1       23.978 -23.114   6.919  0.00  0.00    -0.038 A 
ATOM      8  C   LIG    1       23.161 -22.008   7.197  0.00  0.00    +0.004 A 
ATOM      9  C   LIG    1       23.724 -20.796   7.599  0.00  0.00    +0.004 A 
ATOM     10  C   LIG    1       25.100 -20.689   7.739  0.00  0.00    +0.046 A 
ENDROOT
BRANCH   5  11
ATOM     11  O   LIG    1       24.604 -25.256   4.597  0.00  0.00    -0.389 OA
ATOM     12  H   LIG    1       25.569 -25.133   4.563  0.00  0.00    +0.210 HD
ENDBRANCH   5  11
BRANCH   4  13
ATOM     13  O   LIG    1       26.366 -26.572   6.285  0.00  0.00    -0.389 OA
ATOM     14  H   LIG    1       27.277 -26.261   6.462  0.00  0.00    +0.210 HD
ENDBRANCH   4  13
BRANCH   1  15
ATOM     15  O   LIG    1       27.293 -21.734   7.678  0.00  0.00    -0.489 OA
BRANCH  15  16
ATOM     16  C   LIG    1       27.865 -20.425   7.537  0.00  0.00    +0.261 C 
BRANCH  16  17
ATOM     17  C   LIG    1       28.786 -20.381   6.311  0.00  0.00    +0.166 C 
BRANCH  17  18
ATOM     18  O   LIG    1       28.079 -19.898   5.161  0.00  0.00    -0.387 OA
ATOM     19  H   LIG    1       28.490 -20.307   4.382  0.00  0.00    +0.210 HD
ENDBRANCH  17  18
BRANCH  17  20
ATOM     20  C   LIG    1       30.041 -19.520   6.567  0.00  0.00    +0.116 C 
BRANCH  20  21
ATOM     21  N   LIG    1       29.830 -18.497   7.612  0.00  0.00    -0.309 NA
ATOM     22  H   LIG    1       29.854 -17.567   7.204  0.00  0.00    +0.122 HD
BRANCH  21  24
ATOM     23  C   LIG    1       31.226 -19.969   9.070  0.00  0.00    +0.027 C 
ATOM     24  C   LIG    1       30.801 -18.534   8.726  0.00  0.00    +0.011 C 
ATOM     25  C   LIG    1       32.033 -17.671   8.412  0.00  0.00    +0.027 C 
ATOM     26  C   LIG    1       30.095 -17.940   9.962  0.00  0.00    +0.027 C 
ENDBRANCH  21  24
ENDBRANCH  20  21
ENDBRANCH  17  20
ENDBRANCH  16  17
ENDBRANCH  15  16
ENDBRANCH   1  15
TORSDOF 9
ENDMDL
MODEL 4
REMARK VINA RESULT:      -7.9      5.059      7.167
REMARK  Name = *****
REMARK                            x       y       z     vdW  Elec       q    Type
REMARK                         _______ _______ _______ _____ _____    ______ ____
ROOT
ATOM      1  C   LIG    1       25.039 -24.338   6.717  0.00  0.00    +0.124 A 
ATOM      2  C   LIG    1       25.344 -23.014   7.114  0.00  0.00    +0.000 A 
ATOM      3  C   LIG    1       26.764 -22.616   7.437  0.00  0.00    +0.073 C 
ATOM      4  C   LIG    1       27.000 -21.103   7.386  0.00  0.00    +0.148 C 
ATOM      5  C   LIG    1       25.934 -20.350   8.182  0.00  0.00    +0.147 C 
ATOM      6  C   LIG    1       24.536 -20.640   7.639  0.00  0.00    +0.069 C 
ATOM      7  C   LIG    1       24.295 -22.081   7.242  0.00  0.00    -0.038 A 
ATOM      8  C   LIG    1       22.979 -22.460   6.941  0.00  0.00    +0.004 A 
ATOM      9  C   LIG    1       22.689 -23.773   6.568  0.00  0.00    +0.004 A 
ATOM     10  C   LIG    1       23.712 -24.705   6.479  0.00  0.00    +0.046 A 
ENDROOT
BRANCH   5  11
ATOM     11  O   LIG    1       26.049 -20.710   9.569  0.00  0.00    -0.389 OA
ATOM     12  H   LIG    1       26.731 -21.401   9.638  0.00  0.00    +0.210 HD
ENDBRANCH   5  11
BRANCH   4  13
ATOM     13  O   LIG    1       28.287 -20.798   7.937  0.00  0.00    -0.389 OA
ATOM     14  H   LIG    1       28.927 -21.237   7.339  0.00  0.00    +0.210 HD
ENDBRANCH   4  13
BRANCH   1  15
ATOM     15  O   LIG    1       26.083 -25.224   6.611  0.00  0.00    -0.489 OA
BRANCH  15  16
ATOM     16  C   LIG    1       25.713 -26.609   6.691  0.00  0.00    +0.261 C 
BRANCH  16  17
ATOM     17  C   LIG    1       25.832 -27.267   5.310  0.00  0.00    +0.166 C 
BRANCH  17  18
ATOM     18  O   LIG    1       27.208 -27.435   4.943  0.00  0.00    -0.387 OA
ATOM     19  H   LIG    1       27.414 -28.379   5.042  0.00  0.00    +0.210 HD
ENDBRANCH  17  18
BRANCH  17  20
ATOM     20  C   LIG    1       25.094 -28.622   5.255  0.00  0.00    +0.116 C 
BRANCH  20  21
ATOM     21  N   LIG    1       25.845 -29.709   5.916  0.00  0.00    -0.309 NA
ATOM     22  H   LIG    1       26.280 -30.310   5.221  0.00  0.00    +0.122 HD
BRANCH  21  24
ATOM     23  C   LIG    1       24.323 -29.733   7.897  0.00  0.00    +0.027 C 
ATOM     24  C   LIG    1       25.044 -30.559   6.821  0.00  0.00    +0.011 C 
ATOM     25  C   LIG    1       24.035 -31.407   6.031  0.00  0.00    +0.027 C 
ATOM     26  C   LIG    1       26.025 -31.513   7.534  0.00  0.00    +0.027 C 
ENDBRANCH  21  24
ENDBRANCH  20  21
ENDBRANCH  17  20
ENDBRANCH  16  17
ENDBRANCH  15  16
ENDBRANCH   1  15
TORSDOF 9
ENDMDL
MODEL 5
REMARK VINA RESULT:      -7.8      2.809      6.966
REMARK  Name = *****
REMARK                            x       y       z     vdW  Elec       q    Type
REMARK                         _______ _______ _______ _____ _____    ______ ____
ROOT
ATOM      1  C   LIG    1       28.452 -20.073   7.145  0.00  0.00    +0.124 A 
ATOM      2  C   LIG    1       27.182 -20.461   6.658  0.00  0.00    +0.000 A 
ATOM      3  C   LIG    1       26.345 -21.470   7.409  0.00  0.00    +0.073 C 
ATOM      4  C   LIG    1       24.859 -21.430   7.034  0.00  0.00    +0.148 C 
ATOM      5  C   LIG    1       24.672 -21.456   5.516  0.00  0.00    +0.147 C 
ATOM      6  C   LIG    1       25.369 -20.267   4.857  0.00  0.00    +0.069 C 
ATOM      7  C   LIG    1       26.724 -19.923   5.438  0.00  0.00    -0.038 A 
ATOM      8  C   LIG    1       27.508 -18.989   4.746  0.00  0.00    +0.004 A 
ATOM      9  C   LIG    1       28.767 -18.628   5.228  0.00  0.00    +0.004 A 
ATOM     10  C   LIG    1       29.238 -19.185   6.408  0.00  0.00    +0.046 A 
ENDROOT
BRANCH   5  11
ATOM     11  O   LIG    1       25.164 -22.708   5.008  0.00  0.00    -0.389 OA
ATOM     12  H   LIG    1       25.012 -22.716   4.048  0.00  0.00    +0.210 HD
ENDBRANCH   5  11
BRANCH   4  13
ATOM     13  O   LIG    1       24.190 -22.564   7.600  0.00  0.00    -0.389 OA
ATOM     14  H   LIG    1       24.687 -22.765   8.419  0.00  0.00    +0.210 HD
ENDBRANCH   4  13
BRANCH   1  15
ATOM     15  O   LIG    1       28.871 -20.624   8.331  0.00  0.00    -0.489 OA
BRANCH  15  16
ATOM     16  C   LIG    1       30.135 -21.301   8.273  0.00  0.00    +0.261 C 
BRANCH  16  17
ATOM     17  C   LIG    1       31.122 -20.663   9.259  0.00  0.00    +0.166 C 
BRANCH  17  18
ATOM     18  O   LIG    1       32.298 -21.472   9.397  0.00  0.00    -0.387 OA
ATOM     19  H   LIG    1       33.025 -20.992   8.969  0.00  0.00    +0.210 HD
ENDBRANCH  17  18
BRANCH  17  20
ATOM     20  C   LIG    1       31.508 -19.229   8.837  0.00  0.00    +0.116 C 
BRANCH  20  21
ATOM     21  N   LIG    1       32.164 -18.470   9.921  0.00  0.00    -0.309 NA
ATOM     22  H   LIG    1       32.122 -18.993  10.792  0.00  0.00    +0.122 HD
BRANCH  21  24
ATOM     23  C   LIG    1       31.380 -16.861  11.664  0.00  0.00    +0.027 C 
ATOM     24  C   LIG    1       31.606 -17.125  10.168  0.00  0.00    +0.011 C 
ATOM     25  C   LIG    1       32.507 -16.036   9.563  0.00  0.00    +0.027 C 
ATOM     26  C   LIG    1       30.235 -17.066   9.463  0.00  0.00    +0.027 C 
ENDBRANCH  21  24
ENDBRANCH  20  21
ENDBRANCH  17  20
ENDBRANCH  16  17
ENDBRANCH  15  16
ENDBRANCH   1  15
TORSDOF 9
ENDMDL
MODEL 6
REMARK VINA RESULT:      -7.8      3.000      7.485
REMARK  Name = *****
REMARK                            x       y       z     vdW  Elec       q    Type
REMARK                         _______ _______ _______ _____ _____    ______ ____
ROOT
ATOM      1  C   LIG    1       26.833 -20.328   6.592  0.00  0.00    +0.124 A 
ATOM      2  C   LIG    1       25.570 -20.532   5.988  0.00  0.00    +0.000 A 
ATOM      3  C   LIG    1       25.400 -20.389   4.493  0.00  0.00    +0.073 C 
ATOM      4  C   LIG    1       24.142 -21.080   3.954  0.00  0.00    +0.148 C 
ATOM      5  C   LIG    1       22.908 -20.698   4.772  0.00  0.00    +0.147 C 
ATOM      6  C   LIG    1       23.080 -21.085   6.239  0.00  0.00    +0.069 C 
ATOM      7  C   LIG    1       24.461 -20.831   6.805  0.00  0.00    -0.038 A 
ATOM      8  C   LIG    1       24.627 -20.959   8.192  0.00  0.00    +0.004 A 
ATOM      9  C   LIG    1       25.874 -20.738   8.778  0.00  0.00    +0.004 A 
ATOM     10  C   LIG    1       26.960 -20.406   7.981  0.00  0.00    +0.046 A 
ENDROOT
BRANCH   5  11
ATOM     11  O   LIG    1       22.669 -19.288   4.619  0.00  0.00    -0.389 OA
ATOM     12  H   LIG    1       23.531 -18.839   4.645  0.00  0.00    +0.210 HD
ENDBRANCH   5  11
BRANCH   4  13
ATOM     13  O   LIG    1       23.930 -20.694   2.591  0.00  0.00    -0.389 OA
ATOM     14  H   LIG    1       24.175 -19.747   2.557  0.00  0.00    +0.210 HD
ENDBRANCH   4  13
BRANCH   1  15
ATOM     15  O   LIG    1       27.889 -20.031   5.767  0.00  0.00    -0.489 OA
BRANCH  15  16
ATOM     16  C   LIG    1       29.185 -20.326   6.311  0.00  0.00    +0.261 C 
BRANCH  16  17
ATOM     17  C   LIG    1       30.183 -19.227   5.922  0.00  0.00    +0.166 C 
BRANCH  17  18
ATOM     18  O   LIG    1       29.494 -18.037   5.514  0.00  0.00    -0.387 OA
ATOM     19  H   LIG    1       29.700 -17.897   4.575  0.00  0.00    +0.210 HD
ENDBRANCH  17  18
BRANCH  17  20
ATOM     20  C   LIG    1       31.164 -18.909   7.071  0.00  0.00    +0.116 C 
BRANCH  20  21
ATOM     21  N   LIG    1       30.706 -17.792   7.922  0.00  0.00    -0.309 NA
ATOM     22  H   LIG    1       30.999 -16.904   7.524  0.00  0.00    +0.122 HD
BRANCH  21  24
ATOM     23  C   LIG    1       32.437 -17.001   9.539  0.00  0.00    +0.027 C 
ATOM     24  C   LIG    1       31.171 -17.843   9.323  0.00  0.00    +0.011 C 
ATOM     25  C   LIG    1       30.061 -17.400  10.289  0.00  0.00    +0.027 C 
ATOM     26  C   LIG    1       31.522 -19.314   9.630  0.00  0.00    +0.027 C 
ENDBRANCH  21  24
ENDBRANCH  20  21
ENDBRANCH  17  20
ENDBRANCH  16  17
ENDBRANCH  15  16
ENDBRANCH   1  15
TORSDOF 9
ENDMDL
MODEL 7
REMARK VINA RESULT:      -7.7      2.607      5.859
REMARK  Name = *****
REMARK                            x       y       z     vdW  Elec       q    Type
REMARK                         _______ _______ _______ _____ _____    ______ ____
ROOT
ATOM      1  C   LIG    1       25.264 -22.707   7.451  0.00  0.00    +0.124 A 
ATOM      2  C   LIG    1       25.218 -23.975   6.824  0.00  0.00    +0.000 A 
ATOM      3  C   LIG    1       26.489 -24.739   6.540  0.00  0.00    +0.073 C 
ATOM      4  C   LIG    1       26.260 -26.237   6.306  0.00  0.00    +0.148 C 
ATOM      5  C   LIG    1       25.138 -26.473   5.293  0.00  0.00    +0.147 C 
ATOM      6  C   LIG    1       23.827 -25.853   5.773  0.00  0.00    +0.069 C 
ATOM      7  C   LIG    1       23.969 -24.497   6.429  0.00  0.00    -0.038 A 
ATOM      8  C   LIG    1       22.794 -23.779   6.695  0.00  0.00    +0.004 A 
ATOM      9  C   LIG    1       22.855 -22.522   7.299  0.00  0.00    +0.004 A 
ATOM     10  C   LIG    1       24.084 -21.987   7.653  0.00  0.00    +0.046 A 
ENDROOT
BRANCH   5  11
ATOM     11  O   LIG    1       25.542 -25.942   4.020  0.00  0.00    -0.389 OA
ATOM     12  H   LIG    1       26.496 -25.754   4.069  0.00  0.00    +0.210 HD
ENDBRANCH   5  11
BRANCH   4  13
ATOM     13  O   LIG    1       27.463 -26.835   5.808  0.00  0.00    -0.389 OA
ATOM     14  H   LIG    1       28.130 -26.679   6.508  0.00  0.00    +0.210 HD
ENDBRANCH   4  13
BRANCH   1  15
ATOM     15  O   LIG    1       26.498 -22.225   7.814  0.00  0.00    -0.489 OA
BRANCH  15  16
ATOM     16  C   LIG    1       26.608 -20.794   7.834  0.00  0.00    +0.261 C 
BRANCH  16  17
ATOM     17  C   LIG    1       27.428 -20.311   6.631  0.00  0.00    +0.166 C 
BRANCH  17  18
ATOM     18  O   LIG    1       28.531 -21.193   6.380  0.00  0.00    -0.387 OA
ATOM     19  H   LIG    1       28.912 -20.935   5.525  0.00  0.00    +0.210 HD
ENDBRANCH  17  18
BRANCH  17  20
ATOM     20  C   LIG    1       26.558 -20.171   5.363  0.00  0.00    +0.116 C 
BRANCH  20  21
ATOM     21  N   LIG    1       25.125 -19.984   5.670  0.00  0.00    -0.309 NA
ATOM     22  H   LIG    1       24.817 -20.672   6.351  0.00  0.00    +0.122 HD
BRANCH  21  24
ATOM     23  C   LIG    1       24.194 -21.466   3.888  0.00  0.00    +0.027 C 
ATOM     24  C   LIG    1       24.222 -20.059   4.503  0.00  0.00    +0.011 C 
ATOM     25  C   LIG    1       22.801 -19.608   4.876  0.00  0.00    +0.027 C 
ATOM     26  C   LIG    1       24.774 -19.088   3.438  0.00  0.00    +0.027 C 
ENDBRANCH  21  24
ENDBRANCH  20  21
ENDBRANCH  17  20
ENDBRANCH  16  17
ENDBRANCH  15  16
ENDBRANCH   1  15
TORSDOF 9
ENDMDL
MODEL 8
REMARK VINA RESULT:      -7.7      2.853      4.021
REMARK  Name = *****
REMARK                            x       y       z     vdW  Elec       q    Type
REMARK                         _______ _______ _______ _____ _____    ______ ____
ROOT
ATOM      1  C   LIG    1       26.049 -21.332   6.511  0.00  0.00    +0.124 A 
ATOM      2  C   LIG    1       27.358 -20.907   6.840  0.00  0.00    +0.000 A 
ATOM      3  C   LIG    1       28.069 -21.470   8.048  0.00  0.00    +0.073 C 
ATOM      4  C   LIG    1       29.590 -21.283   8.002  0.00  0.00    +0.148 C 
ATOM      5  C   LIG    1       29.959 -19.838   7.665  0.00  0.00    +0.147 C 
ATOM      6  C   LIG    1       29.380 -19.425   6.313  0.00  0.00    +0.069 C 
ATOM      7  C   LIG    1       27.975 -19.920   6.046  0.00  0.00    -0.038 A 
ATOM      8  C   LIG    1       27.307 -19.401   4.927  0.00  0.00    +0.004 A 
ATOM      9  C   LIG    1       26.009 -19.816   4.624  0.00  0.00    +0.004 A 
ATOM     10  C   LIG    1       25.383 -20.759   5.425  0.00  0.00    +0.046 A 
ENDROOT
BRANCH   5  11
ATOM     11  O   LIG    1       29.498 -18.981   8.724  0.00  0.00    -0.389 OA
ATOM     12  H   LIG    1       30.277 -18.691   9.228  0.00  0.00    +0.210 HD
ENDBRANCH   5  11
BRANCH   4  13
ATOM     13  O   LIG    1       30.154 -21.617   9.276  0.00  0.00    -0.389 OA
ATOM     14  H   LIG    1       29.552 -21.209   9.932  0.00  0.00    +0.210 HD
ENDBRANCH   4  13
BRANCH   1  15
ATOM     15  O   LIG    1       25.475 -22.290   7.311  0.00  0.00    -0.489 OA
BRANCH  15  16
ATOM     16  C   LIG    1       24.049 -22.408   7.187  0.00  0.00    +0.261 C 
BRANCH  16  17
ATOM     17  C   LIG    1       23.665 -23.864   6.890  0.00  0.00    +0.166 C 
BRANCH  17  18
ATOM     18  O   LIG    1       22.263 -23.973   6.611  0.00  0.00    -0.387 OA
ATOM     19  H   LIG    1       21.792 -23.608   7.378  0.00  0.00    +0.210 HD
ENDBRANCH  17  18
BRANCH  17  20
ATOM     20  C   LIG    1       24.489 -24.448   5.722  0.00  0.00    +0.116 C 
BRANCH  20  21
ATOM     21  N   LIG    1       25.718 -25.132   6.175  0.00  0.00    -0.309 NA
ATOM     22  H   LIG    1       26.515 -24.829   5.621  0.00  0.00    +0.122 HD
BRANCH  21  24
ATOM     23  C   LIG    1       26.134 -27.240   7.448  0.00  0.00    +0.027 C 
ATOM     24  C   LIG    1       25.664 -26.607   6.130  0.00  0.00    +0.011 C 
ATOM     25  C   LIG    1       24.251 -27.096   5.775  0.00  0.00    +0.027 C 
ATOM     26  C   LIG    1       26.628 -27.063   5.015  0.00  0.00    +0.027 C 
ENDBRANCH  21  24
ENDBRANCH  20  21
ENDBRANCH  17  20
ENDBRANCH  16  17
ENDBRANCH  15  16
ENDBRANCH   1  15
TORSDOF 9
ENDMDL
MODEL 9
REMARK VINA RESULT:      -7.7      2.826      7.018
REMARK  Name = *****
REMARK                            x       y       z     vdW  Elec       q    Type
REMARK                         _______ _______ _______ _____ _____    ______ ____
ROOT
ATOM      1  C   LIG    1       25.055 -22.483   7.414  0.00  0.00    +0.124 A 
ATOM      2  C   LIG    1       25.064 -23.777   6.840  0.00  0.00    +0.000 A 
ATOM      3  C   LIG    1       26.368 -24.497   6.589  0.00  0.00    +0.073 C 
ATOM      4  C   LIG    1       26.204 -26.012   6.419  0.00  0.00    +0.148 C 
ATOM      5  C   LIG    1       25.095 -26.339   5.417  0.00  0.00    +0.147 C 
ATOM      6  C   LIG    1       23.758 -25.756   5.870  0.00  0.00    +0.069 C 
ATOM      7  C   LIG    1       23.840 -24.369   6.469  0.00  0.00    -0.038 A 
ATOM      8  C   LIG    1       22.635 -23.691   6.704  0.00  0.00    +0.004 A 
ATOM      9  C   LIG    1       22.639 -22.409   7.254  0.00  0.00    +0.004 A 
ATOM     10  C   LIG    1       23.844 -21.807   7.586  0.00  0.00    +0.046 A 
ENDROOT
BRANCH   5  11
ATOM     11  O   LIG    1       25.478 -25.845   4.122  0.00  0.00    -0.389 OA
ATOM     12  H   LIG    1       26.422 -25.614   4.163  0.00  0.00    +0.210 HD
ENDBRANCH   5  11
BRANCH   4  13
ATOM     13  O   LIG    1       27.433 -26.578   5.946  0.00  0.00    -0.389 OA
ATOM     14  H   LIG    1       28.091 -26.364   6.639  0.00  0.00    +0.210 HD
ENDBRANCH   4  13
BRANCH   1  15
ATOM     15  O   LIG    1       26.265 -21.933   7.756  0.00  0.00    -0.489 OA
BRANCH  15  16
ATOM     16  C   LIG    1       26.482 -20.598   7.276  0.00  0.00    +0.261 C 
BRANCH  16  17
ATOM     17  C   LIG    1       27.446 -20.616   6.083  0.00  0.00    +0.166 C 
BRANCH  17  18
ATOM     18  O   LIG    1       26.884 -19.917   4.964  0.00  0.00    -0.387 OA
ATOM     19  H   LIG    1       27.591 -19.822   4.304  0.00  0.00    +0.210 HD
ENDBRANCH  17  18
BRANCH  17  20
ATOM     20  C   LIG    1       28.823 -20.020   6.448  0.00  0.00    +0.116 C 
BRANCH  20  21
ATOM     21  N   LIG    1       29.234 -20.336   7.831  0.00  0.00    -0.309 NA
ATOM     22  H   LIG    1       28.482 -20.123   8.480  0.00  0.00    +0.122 HD
BRANCH  21  24
ATOM     23  C   LIG    1       30.118 -18.340   9.046  0.00  0.00    +0.027 C 
ATOM     24  C   LIG    1       30.451 -19.638   8.295  0.00  0.00    +0.011 C 
ATOM     25  C   LIG    1       31.314 -20.558   9.172  0.00  0.00    +0.027 C 
ATOM     26  C   LIG    1       31.265 -19.263   7.039  0.00  0.00    +0.027 C 
ENDBRANCH  21  24
ENDBRANCH  20  21
ENDBRANCH  17  20
ENDBRANCH  16  17
ENDBRANCH  15  16
ENDBRANCH   1  15
TORSDOF 9
ENDMDL
