MODEL 1
REMARK VINA RESULT:      -9.5      0.000      0.000
REMARK  Name = *****
REMARK                            x       y       z     vdW  Elec       q    Type
REMARK                         _______ _______ _______ _____ _____    ______ ____
ROOT
ATOM      1  C   LIG    1       28.721 -19.758   6.046  0.00  0.00    +0.105 C 
ATOM      2  N   LIG    1       28.307 -19.957   7.436  0.00  0.00    -0.301 NA
ATOM      3  C   LIG    1       26.833 -19.916   7.564  0.00  0.00    +0.116 C 
ATOM      4  C   LIG    1       26.162 -21.215   7.254  0.00  0.00    -0.040 C 
ATOM      5  C   LIG    1       24.667 -21.367   7.054  0.00  0.00    +0.077 C 
ATOM      6  C   LIG    1       24.578 -22.861   6.815  0.00  0.00    -0.029 A 
ATOM      7  C   LIG    1       25.860 -23.434   6.890  0.00  0.00    -0.018 A 
ATOM      8  C   LIG    1       26.041 -24.794   6.713  0.00  0.00    +0.008 A 
ATOM      9  C   LIG    1       24.917 -25.585   6.460  0.00  0.00    +0.001 A 
ATOM     10  C   LIG    1       23.636 -25.012   6.389  0.00  0.00    +0.000 A 
ATOM     11  C   LIG    1       23.457 -23.639   6.569  0.00  0.00    +0.005 A 
ATOM     12  C   LIG    1       26.824 -22.383   7.165  0.00  0.00    -0.037 C 
ATOM     13  C   LIG    1       28.287 -22.514   7.378  0.00  0.00    +0.051 C 
ATOM     14  C   LIG    1       28.855 -21.213   7.992  0.00  0.00    +0.089 C 
ENDROOT
BRANCH   5  15
ATOM     15  C   LIG    1       24.108 -20.518   5.929  0.00  0.00    -0.036 A 
ATOM     16  C   LIG    1       24.889 -20.273   4.787  0.00  0.00    +0.004 A 
ATOM     17  C   LIG    1       24.389 -19.504   3.734  0.00  0.00    +0.000 A 
ATOM     18  C   LIG    1       23.105 -18.970   3.806  0.00  0.00    +0.000 A 
ATOM     19  C   LIG    1       22.317 -19.205   4.930  0.00  0.00    +0.000 A 
ATOM     20  C   LIG    1       22.813 -19.974   5.984  0.00  0.00    +0.004 A 
ENDBRANCH   5  15
TORSDOF 1
ENDMDL
MODEL 2
REMARK VINA RESULT:      -8.8      1.638      5.238
REMARK  Name = *****
REMARK                            x       y       z     vdW  Elec       q    Type
REMARK                         _______ _______ _______ _____ _____    ______ ____
ROOT
ATOM      1  C   LIG    1       23.709 -20.994   2.801  0.00  0.00    +0.105 C 
ATOM      2  N   LIG    1       23.429 -20.023   3.860  0.00  0.00    -0.301 NA
ATOM      3  C   LIG    1       23.551 -20.644   5.198  0.00  0.00    +0.116 C 
ATOM      4  C   LIG    1       24.953 -20.696   5.716  0.00  0.00    -0.040 C 
ATOM      5  C   LIG    1       25.377 -21.508   6.923  0.00  0.00    +0.077 C 
ATOM      6  C   LIG    1       26.849 -21.150   6.984  0.00  0.00    -0.029 A 
ATOM      7  C   LIG    1       27.165 -20.253   5.950  0.00  0.00    -0.018 A 
ATOM      8  C   LIG    1       28.452 -19.768   5.798  0.00  0.00    +0.008 A 
ATOM      9  C   LIG    1       29.430 -20.193   6.702  0.00  0.00    +0.001 A 
ATOM     10  C   LIG    1       29.111 -21.088   7.738  0.00  0.00    +0.000 A 
ATOM     11  C   LIG    1       27.811 -21.573   7.888  0.00  0.00    +0.005 A 
ATOM     12  C   LIG    1       25.963 -19.989   5.179  0.00  0.00    -0.037 C 
ATOM     13  C   LIG    1       25.797 -19.071   4.024  0.00  0.00    +0.051 C 
ATOM     14  C   LIG    1       24.295 -18.829   3.746  0.00  0.00    +0.089 C 
ENDROOT
BRANCH   5  15
ATOM     15  C   LIG    1       25.098 -22.993   6.794  0.00  0.00    -0.036 A 
ATOM     16  C   LIG    1       23.772 -23.447   6.701  0.00  0.00    +0.004 A 
ATOM     17  C   LIG    1       23.493 -24.809   6.569  0.00  0.00    +0.000 A 
ATOM     18  C   LIG    1       24.533 -25.735   6.527  0.00  0.00    +0.000 A 
ATOM     19  C   LIG    1       25.854 -25.301   6.616  0.00  0.00    +0.000 A 
ATOM     20  C   LIG    1       26.135 -23.940   6.747  0.00  0.00    +0.004 A 
ENDBRANCH   5  15
TORSDOF 1
ENDMDL
MODEL 3
REMARK VINA RESULT:      -8.0      1.778      4.249
REMARK  Name = *****
REMARK                            x       y       z     vdW  Elec       q    Type
REMARK                         _______ _______ _______ _____ _____    ______ ____
ROOT
ATOM      1  C   LIG    1       22.883 -24.013   6.875  0.00  0.00    +0.105 C 
ATOM      2  N   LIG    1       23.918 -24.499   5.960  0.00  0.00    -0.301 NA
ATOM      3  C   LIG    1       24.335 -23.438   5.016  0.00  0.00    +0.116 C 
ATOM      4  C   LIG    1       25.363 -22.505   5.570  0.00  0.00    -0.040 C 
ATOM      5  C   LIG    1       25.756 -21.196   4.914  0.00  0.00    +0.077 C 
ATOM      6  C   LIG    1       26.829 -20.725   5.876  0.00  0.00    -0.029 A 
ATOM      7  C   LIG    1       26.995 -21.668   6.906  0.00  0.00    -0.018 A 
ATOM      8  C   LIG    1       27.927 -21.469   7.908  0.00  0.00    +0.008 A 
ATOM      9  C   LIG    1       28.701 -20.306   7.871  0.00  0.00    +0.001 A 
ATOM     10  C   LIG    1       28.537 -19.365   6.839  0.00  0.00    +0.000 A 
ATOM     11  C   LIG    1       27.596 -19.572   5.829  0.00  0.00    +0.005 A 
ATOM     12  C   LIG    1       26.069 -22.765   6.686  0.00  0.00    -0.037 C 
ATOM     13  C   LIG    1       25.914 -24.008   7.482  0.00  0.00    +0.051 C 
ATOM     14  C   LIG    1       25.080 -25.045   6.694  0.00  0.00    +0.089 C 
ENDROOT
BRANCH   5  15
ATOM     15  C   LIG    1       24.604 -20.227   4.737  0.00  0.00    -0.036 A 
ATOM     16  C   LIG    1       23.505 -20.285   5.611  0.00  0.00    +0.004 A 
ATOM     17  C   LIG    1       22.439 -19.394   5.474  0.00  0.00    +0.000 A 
ATOM     18  C   LIG    1       22.455 -18.433   4.465  0.00  0.00    +0.000 A 
ATOM     19  C   LIG    1       23.538 -18.361   3.592  0.00  0.00    +0.000 A 
ATOM     20  C   LIG    1       24.606 -19.249   3.728  0.00  0.00    +0.004 A 
ENDBRANCH   5  15
TORSDOF 1
ENDMDL
MODEL 4
REMARK VINA RESULT:      -6.9      1.848      4.856
REMARK  Name = *****
REMARK                            x       y       z     vdW  Elec       q    Type
REMARK                         _______ _______ _______ _____ _____    ______ ____
ROOT
ATOM      1  C   LIG    1       26.575 -25.800   5.713  0.00  0.00    +0.105 C 
ATOM      2  N   LIG    1       25.727 -25.753   6.905  0.00  0.00    -0.301 NA
ATOM      3  C   LIG    1       25.877 -24.462   7.615  0.00  0.00    +0.116 C 
ATOM      4  C   LIG    1       25.032 -23.363   7.057  0.00  0.00    -0.040 C 
ATOM      5  C   LIG    1       25.196 -21.902   7.427  0.00  0.00    +0.077 C 
ATOM      6  C   LIG    1       24.077 -21.290   6.607  0.00  0.00    -0.029 A 
ATOM      7  C   LIG    1       23.396 -22.297   5.901  0.00  0.00    -0.018 A 
ATOM      8  C   LIG    1       22.324 -21.991   5.083  0.00  0.00    +0.008 A 
ATOM      9  C   LIG    1       21.932 -20.653   4.979  0.00  0.00    +0.001 A 
ATOM     10  C   LIG    1       22.611 -19.647   5.688  0.00  0.00    +0.000 A 
ATOM     11  C   LIG    1       23.692 -19.962   6.512  0.00  0.00    +0.005 A 
ATOM     12  C   LIG    1       24.014 -23.576   6.204  0.00  0.00    -0.037 C 
ATOM     13  C   LIG    1       23.611 -24.924   5.731  0.00  0.00    +0.051 C 
ATOM     14  C   LIG    1       24.309 -26.017   6.574  0.00  0.00    +0.089 C 
ENDROOT
BRANCH   5  15
ATOM     15  C   LIG    1       26.572 -21.342   7.124  0.00  0.00    -0.036 A 
ATOM     16  C   LIG    1       26.756 -20.513   6.005  0.00  0.00    +0.004 A 
ATOM     17  C   LIG    1       28.012 -19.976   5.715  0.00  0.00    +0.000 A 
ATOM     18  C   LIG    1       29.101 -20.259   6.538  0.00  0.00    +0.000 A 
ATOM     19  C   LIG    1       28.935 -21.077   7.652  0.00  0.00    +0.000 A 
ATOM     20  C   LIG    1       27.680 -21.614   7.945  0.00  0.00    +0.004 A 
ENDBRANCH   5  15
TORSDOF 1
ENDMDL
