MODEL 1
REMARK VINA RESULT:      -8.4      0.000      0.000
REMARK  Name = *****
REMARK                            x       y       z     vdW  Elec       q    Type
REMARK                         _______ _______ _______ _____ _____    ______ ____
ROOT
ATOM      1  C   LIG    1       25.254 -25.794   5.505  0.00  0.00    +0.153 C 
ATOM      2  C   LIG    1       26.332 -26.300   6.458  0.00  0.00    +0.172 C 
ATOM      3  C   LIG    1       25.778 -27.417   7.341  0.00  0.00    +0.151 C 
ATOM      4  C   LIG    1       25.191 -28.572   6.517  0.00  0.00    +0.048 C 
ATOM      5  C   LIG    1       24.337 -28.054   5.341  0.00  0.00    +0.166 C 
ATOM      6  O   LIG    1       24.872 -26.908   4.668  0.00  0.00    -0.373 OA
ENDROOT
BRANCH   2   7
ATOM      7  O   LIG    1       27.433 -26.850   5.698  0.00  0.00    -0.387 OA
ATOM      8  H   LIG    1       27.321 -26.526   4.780  0.00  0.00    +0.210 HD
ENDBRANCH   2   7
BRANCH   3   9
ATOM      9  O   LIG    1       26.852 -27.905   8.153  0.00  0.00    -0.389 OA
ATOM     10  H   LIG    1       26.578 -28.798   8.444  0.00  0.00    +0.210 HD
ENDBRANCH   3   9
BRANCH   4  11
ATOM     11  C   LIG    1       24.364 -29.525   7.417  0.00  0.00    +0.042 C 
BRANCH  11  12
ATOM     12  C   LIG    1       24.623 -30.986   7.142  0.00  0.00    +0.148 C 
ATOM     13  C   LIG    1       24.602 -31.620   5.733  0.00  0.00    +0.153 C 
ATOM     14  O   LIG    1       25.821 -31.221   6.402  0.00  0.00    -0.368 OA
BRANCH  13  15
ATOM     15  C   LIG    1       24.571 -33.133   5.436  0.00  0.00    +0.046 C 
ATOM     16  C   LIG    1       23.226 -33.761   5.817  0.00  0.00    +0.013 C 
BRANCH  15  17
ATOM     17  C   LIG    1       24.908 -33.481   3.950  0.00  0.00    +0.117 C 
ATOM     18  C   LIG    1       25.736 -32.415   3.205  0.00  0.00    +0.038 C 
BRANCH  17  19
ATOM     19  O   LIG    1       23.711 -33.697   3.195  0.00  0.00    -0.392 OA
ATOM     20  H   LIG    1       23.164 -32.895   3.252  0.00  0.00    +0.210 HD
ENDBRANCH  17  19
ENDBRANCH  15  17
ENDBRANCH  13  15
ENDBRANCH  11  12
ENDBRANCH   4  11
BRANCH   1  21
ATOM     21  C   LIG    1       24.036 -25.095   6.169  0.00  0.00    +0.065 C 
BRANCH  21  23
ATOM     22  C   LIG    1       22.977 -22.854   6.997  0.00  0.00    +0.039 C 
ATOM     23  C   LIG    1       24.206 -23.716   6.797  0.00  0.00    -0.063 C 
ATOM     24  C   LIG    1       25.446 -23.306   7.181  0.00  0.00    +0.090 C 
BRANCH  24  25
ATOM     25  C   LIG    1       25.747 -22.008   7.801  0.00  0.00    +0.332 C 
ATOM     26  O   LIG    1       26.139 -21.889   8.984  0.00  0.00    -0.246 OA
BRANCH  25  27
ATOM     27  O   LIG    1       25.429 -21.012   6.943  0.00  0.00    -0.462 OA
BRANCH  27  28
ATOM     28  C   LIG    1       26.334 -20.765   5.835  0.00  0.00    +0.232 C 
BRANCH  28  29
ATOM     29  C   LIG    1       27.585 -19.999   6.224  0.00  0.00    +0.041 C 
BRANCH  29  30
ATOM     30  C   LIG    1       28.805 -20.887   6.497  0.00  0.00    +0.003 C 
BRANCH  30  31
ATOM     31  C   LIG    1       29.362 -20.840   7.934  0.00  0.00    +0.000 C 
BRANCH  31  32
ATOM     32  C   LIG    1       30.868 -20.515   8.086  0.00  0.00    +0.000 C 
BRANCH  32  33
ATOM     33  C   LIG    1       31.287 -19.170   7.493  0.00  0.00    +0.000 C 
BRANCH  33  34
ATOM     34  C   LIG    1       31.490 -17.986   8.435  0.00  0.00    +0.011 C 
BRANCH  34  35
ATOM     35  C   LIG    1       30.301 -17.484   9.272  0.00  0.00    +0.120 C 
BRANCH  35  36
ATOM     36  C   LIG    1       30.437 -17.483  10.783  0.00  0.00    +0.305 C 
ATOM     37  O   LIG    1       30.733 -18.438  11.473  0.00  0.00    -0.251 OA
BRANCH  36  38
ATOM     38  O   LIG    1       30.284 -16.263  11.305  0.00  0.00    -0.481 OA
ATOM     39  H   LIG    1       31.155 -15.814  11.399  0.00  0.00    +0.295 HD
ENDBRANCH  36  38
ENDBRANCH  35  36
ENDBRANCH  34  35
ENDBRANCH  33  34
ENDBRANCH  32  33
ENDBRANCH  31  32
ENDBRANCH  30  31
ENDBRANCH  29  30
ENDBRANCH  28  29
ENDBRANCH  27  28
ENDBRANCH  25  27
ENDBRANCH  24  25
ENDBRANCH  21  23
ENDBRANCH   1  21
TORSDOF 21
ENDMDL
MODEL 2
REMARK VINA RESULT:      -8.4      3.054      5.411
REMARK  Name = *****
REMARK                            x       y       z     vdW  Elec       q    Type
REMARK                         _______ _______ _______ _____ _____    ______ ____
ROOT
ATOM      1  C   LIG    1       24.355 -29.636   5.778  0.00  0.00    +0.153 C 
ATOM      2  C   LIG    1       24.785 -31.083   5.561  0.00  0.00    +0.172 C 
ATOM      3  C   LIG    1       25.868 -31.471   6.567  0.00  0.00    +0.151 C 
ATOM      4  C   LIG    1       25.421 -31.245   8.018  0.00  0.00    +0.048 C 
ATOM      5  C   LIG    1       24.694 -29.894   8.185  0.00  0.00    +0.166 C 
ATOM      6  O   LIG    1       23.808 -29.552   7.113  0.00  0.00    -0.373 OA
ENDROOT
BRANCH   2   7
ATOM      7  O   LIG    1       23.657 -31.962   5.775  0.00  0.00    -0.387 OA
ATOM      8  H   LIG    1       23.978 -32.685   6.354  0.00  0.00    +0.210 HD
ENDBRANCH   2   7
BRANCH   3   9
ATOM      9  O   LIG    1       26.172 -32.856   6.369  0.00  0.00    -0.389 OA
ATOM     10  H   LIG    1       27.031 -33.004   6.814  0.00  0.00    +0.210 HD
ENDBRANCH   3   9
BRANCH   4  11
ATOM     11  C   LIG    1       26.628 -31.341   8.987  0.00  0.00    +0.042 C 
BRANCH  11  12
ATOM     12  C   LIG    1       26.882 -30.068   9.757  0.00  0.00    +0.148 C 
ATOM     13  C   LIG    1       26.792 -29.953  11.295  0.00  0.00    +0.153 C 
ATOM     14  O   LIG    1       28.042 -30.129  10.587  0.00  0.00    -0.368 OA
BRANCH  13  15
ATOM     15  C   LIG    1       26.756 -28.632  12.089  0.00  0.00    +0.046 C 
ATOM     16  C   LIG    1       25.325 -28.226  12.456  0.00  0.00    +0.013 C 
BRANCH  15  17
ATOM     17  C   LIG    1       27.638 -28.658  13.380  0.00  0.00    +0.117 C 
ATOM     18  C   LIG    1       27.743 -30.035  14.065  0.00  0.00    +0.038 C 
BRANCH  17  19
ATOM     19  O   LIG    1       27.142 -27.733  14.353  0.00  0.00    -0.392 OA
ATOM     20  H   LIG    1       26.639 -28.230  15.020  0.00  0.00    +0.210 HD
ENDBRANCH  17  19
ENDBRANCH  15  17
ENDBRANCH  13  15
ENDBRANCH  11  12
ENDBRANCH   4  11
BRANCH   1  21
ATOM     21  C   LIG    1       25.438 -28.558   5.504  0.00  0.00    +0.065 C 
BRANCH  21  23
ATOM     22  C   LIG    1       26.160 -26.698   7.194  0.00  0.00    +0.039 C 
ATOM     23  C   LIG    1       25.260 -27.149   6.062  0.00  0.00    -0.063 C 
ATOM     24  C   LIG    1       24.319 -26.331   5.518  0.00  0.00    +0.090 C 
BRANCH  24  25
ATOM     25  C   LIG    1       24.048 -24.954   5.956  0.00  0.00    +0.332 C 
ATOM     26  O   LIG    1       23.094 -24.651   6.708  0.00  0.00    -0.246 OA
BRANCH  25  27
ATOM     27  O   LIG    1       24.900 -24.106   5.337  0.00  0.00    -0.462 OA
BRANCH  27  28
ATOM     28  C   LIG    1       25.168 -22.832   5.982  0.00  0.00    +0.232 C 
BRANCH  28  29
ATOM     29  C   LIG    1       26.043 -22.942   7.217  0.00  0.00    +0.041 C 
BRANCH  29  30
ATOM     30  C   LIG    1       25.861 -21.797   8.219  0.00  0.00    +0.003 C 
BRANCH  30  31
ATOM     31  C   LIG    1       26.874 -20.640   8.110  0.00  0.00    +0.000 C 
BRANCH  31  32
ATOM     32  C   LIG    1       28.351 -21.030   7.861  0.00  0.00    +0.000 C 
BRANCH  32  33
ATOM     33  C   LIG    1       28.984 -20.363   6.640  0.00  0.00    +0.000 C 
BRANCH  33  34
ATOM     34  C   LIG    1       29.590 -18.971   6.797  0.00  0.00    +0.011 C 
BRANCH  34  35
ATOM     35  C   LIG    1       30.077 -18.520   8.185  0.00  0.00    +0.120 C 
BRANCH  35  36
ATOM     36  C   LIG    1       31.544 -18.702   8.525  0.00  0.00    +0.305 C 
ATOM     37  O   LIG    1       32.041 -19.685   9.034  0.00  0.00    -0.251 OA
BRANCH  36  38
ATOM     38  O   LIG    1       32.291 -17.674   8.112  0.00  0.00    -0.481 OA
ATOM     39  H   LIG    1       33.249 -17.880   8.209  0.00  0.00    +0.295 HD
ENDBRANCH  36  38
ENDBRANCH  35  36
ENDBRANCH  34  35
ENDBRANCH  33  34
ENDBRANCH  32  33
ENDBRANCH  31  32
ENDBRANCH  30  31
ENDBRANCH  29  30
ENDBRANCH  28  29
ENDBRANCH  27  28
ENDBRANCH  25  27
ENDBRANCH  24  25
ENDBRANCH  21  23
ENDBRANCH   1  21
TORSDOF 21
ENDMDL
MODEL 3
REMARK VINA RESULT:      -8.3      2.385     11.028
REMARK  Name = *****
REMARK                            x       y       z     vdW  Elec       q    Type
REMARK                         _______ _______ _______ _____ _____    ______ ____
ROOT
ATOM      1  C   LIG    1       24.656 -21.784   6.241  0.00  0.00    +0.153 C 
ATOM      2  C   LIG    1       25.273 -21.739   7.635  0.00  0.00    +0.172 C 
ATOM      3  C   LIG    1       26.791 -21.597   7.539  0.00  0.00    +0.151 C 
ATOM      4  C   LIG    1       27.209 -20.369   6.716  0.00  0.00    +0.048 C 
ATOM      5  C   LIG    1       26.361 -20.230   5.434  0.00  0.00    +0.166 C 
ATOM      6  O   LIG    1       24.970 -20.529   5.598  0.00  0.00    -0.373 OA
ENDROOT
BRANCH   2   7
ATOM      7  O   LIG    1       24.772 -20.587   8.351  0.00  0.00    -0.387 OA
ATOM      8  H   LIG    1       24.477 -20.915   9.226  0.00  0.00    +0.210 HD
ENDBRANCH   2   7
BRANCH   3   9
ATOM      9  O   LIG    1       27.304 -21.478   8.871  0.00  0.00    -0.389 OA
ATOM     10  H   LIG    1       28.213 -21.128   8.773  0.00  0.00    +0.210 HD
ENDBRANCH   3   9
BRANCH   4  11
ATOM     11  C   LIG    1       28.719 -20.427   6.371  0.00  0.00    +0.042 C 
BRANCH  11  12
ATOM     12  C   LIG    1       29.515 -19.291   6.966  0.00  0.00    +0.148 C 
ATOM     13  C   LIG    1       29.847 -19.160   8.469  0.00  0.00    +0.153 C 
ATOM     14  O   LIG    1       30.775 -19.699   7.498  0.00  0.00    -0.368 OA
BRANCH  13  15
ATOM     15  C   LIG    1       30.395 -17.892   9.155  0.00  0.00    +0.046 C 
ATOM     16  C   LIG    1       29.813 -17.707  10.560  0.00  0.00    +0.013 C 
BRANCH  15  17
ATOM     17  C   LIG    1       31.956 -17.848   9.226  0.00  0.00    +0.117 C 
ATOM     18  C   LIG    1       32.533 -16.756  10.148  0.00  0.00    +0.038 C 
BRANCH  17  19
ATOM     19  O   LIG    1       32.518 -17.650   7.924  0.00  0.00    -0.392 OA
ATOM     20  H   LIG    1       32.889 -16.752   7.885  0.00  0.00    +0.210 HD
ENDBRANCH  17  19
ENDBRANCH  15  17
ENDBRANCH  13  15
ENDBRANCH  11  12
ENDBRANCH   4  11
BRANCH   1  21
ATOM     21  C   LIG    1       25.032 -23.015   5.372  0.00  0.00    +0.065 C 
BRANCH  21  23
ATOM     22  C   LIG    1       23.574 -24.843   6.539  0.00  0.00    +0.039 C 
ATOM     23  C   LIG    1       24.904 -24.419   5.955  0.00  0.00    -0.063 C 
ATOM     24  C   LIG    1       25.976 -25.257   5.915  0.00  0.00    +0.090 C 
BRANCH  24  25
ATOM     25  C   LIG    1       25.987 -26.632   6.435  0.00  0.00    +0.332 C 
ATOM     26  O   LIG    1       26.238 -26.910   7.630  0.00  0.00    -0.246 OA
BRANCH  25  27
ATOM     27  O   LIG    1       25.802 -27.503   5.416  0.00  0.00    -0.462 OA
BRANCH  27  28
ATOM     28  C   LIG    1       24.525 -28.190   5.343  0.00  0.00    +0.232 C 
BRANCH  28  29
ATOM     29  C   LIG    1       24.126 -28.882   6.634  0.00  0.00    +0.041 C 
BRANCH  29  30
ATOM     30  C   LIG    1       24.819 -30.231   6.862  0.00  0.00    +0.003 C 
BRANCH  30  31
ATOM     31  C   LIG    1       24.359 -31.021   8.104  0.00  0.00    +0.000 C 
BRANCH  31  32
ATOM     32  C   LIG    1       23.599 -30.225   9.193  0.00  0.00    +0.000 C 
BRANCH  32  33
ATOM     33  C   LIG    1       23.873 -30.690  10.622  0.00  0.00    +0.000 C 
BRANCH  33  34
ATOM     34  C   LIG    1       24.784 -29.844  11.507  0.00  0.00    +0.011 C 
BRANCH  34  35
ATOM     35  C   LIG    1       25.801 -28.898  10.845  0.00  0.00    +0.120 C 
BRANCH  35  36
ATOM     36  C   LIG    1       27.087 -29.494  10.302  0.00  0.00    +0.305 C 
ATOM     37  O   LIG    1       27.823 -30.258  10.892  0.00  0.00    -0.251 OA
BRANCH  36  38
ATOM     38  O   LIG    1       27.301 -29.161   9.026  0.00  0.00    -0.481 OA
ATOM     39  H   LIG    1       26.752 -29.715   8.425  0.00  0.00    +0.295 HD
ENDBRANCH  36  38
ENDBRANCH  35  36
ENDBRANCH  34  35
ENDBRANCH  33  34
ENDBRANCH  32  33
ENDBRANCH  31  32
ENDBRANCH  30  31
ENDBRANCH  29  30
ENDBRANCH  28  29
ENDBRANCH  27  28
ENDBRANCH  25  27
ENDBRANCH  24  25
ENDBRANCH  21  23
ENDBRANCH   1  21
TORSDOF 21
ENDMDL
MODEL 4
REMARK VINA RESULT:      -8.2      3.317      9.622
REMARK  Name = *****
REMARK                            x       y       z     vdW  Elec       q    Type
REMARK                         _______ _______ _______ _____ _____    ______ ____
ROOT
ATOM      1  C   LIG    1       24.307 -23.975   5.905  0.00  0.00    +0.153 C 
ATOM      2  C   LIG    1       23.308 -23.157   6.717  0.00  0.00    +0.172 C 
ATOM      3  C   LIG    1       24.039 -22.128   7.577  0.00  0.00    +0.151 C 
ATOM      4  C   LIG    1       24.946 -21.212   6.743  0.00  0.00    +0.048 C 
ATOM      5  C   LIG    1       25.744 -22.009   5.690  0.00  0.00    +0.166 C 
ATOM      6  O   LIG    1       25.007 -23.052   5.041  0.00  0.00    -0.373 OA
ENDROOT
BRANCH   2   7
ATOM      7  O   LIG    1       22.432 -22.433   5.822  0.00  0.00    -0.387 OA
ATOM      8  H   LIG    1       22.174 -21.614   6.294  0.00  0.00    +0.210 HD
ENDBRANCH   2   7
BRANCH   3   9
ATOM      9  O   LIG    1       23.050 -21.340   8.251  0.00  0.00    -0.389 OA
ATOM     10  H   LIG    1       23.550 -20.721   8.820  0.00  0.00    +0.210 HD
ENDBRANCH   3   9
BRANCH   4  11
ATOM     11  C   LIG    1       25.902 -20.403   7.658  0.00  0.00    +0.042 C 
BRANCH  11  12
ATOM     12  C   LIG    1       27.361 -20.614   7.337  0.00  0.00    +0.148 C 
ATOM     13  C   LIG    1       28.522 -19.916   8.079  0.00  0.00    +0.153 C 
ATOM     14  O   LIG    1       28.085 -21.261   8.383  0.00  0.00    -0.368 OA
BRANCH  13  15
ATOM     15  C   LIG    1       29.988 -19.875   7.604  0.00  0.00    +0.046 C 
ATOM     16  C   LIG    1       30.167 -18.966   6.383  0.00  0.00    +0.013 C 
BRANCH  15  17
ATOM     17  C   LIG    1       30.993 -19.450   8.723  0.00  0.00    +0.117 C 
ATOM     18  C   LIG    1       31.906 -18.262   8.359  0.00  0.00    +0.038 C 
BRANCH  17  19
ATOM     19  O   LIG    1       31.841 -20.545   9.087  0.00  0.00    -0.392 OA
ATOM     20  H   LIG    1       32.540 -20.209   9.674  0.00  0.00    +0.210 HD
ENDBRANCH  17  19
ENDBRANCH  15  17
ENDBRANCH  13  15
ENDBRANCH  11  12
ENDBRANCH   4  11
BRANCH   1  21
ATOM     21  C   LIG    1       25.269 -24.877   6.725  0.00  0.00    +0.065 C 
BRANCH  21  23
ATOM     22  C   LIG    1       26.820 -26.801   5.872  0.00  0.00    +0.039 C 
ATOM     23  C   LIG    1       25.452 -26.339   6.331  0.00  0.00    -0.063 C 
ATOM     24  C   LIG    1       24.395 -27.192   6.422  0.00  0.00    +0.090 C 
BRANCH  24  25
ATOM     25  C   LIG    1       24.436 -28.621   6.079  0.00  0.00    +0.332 C 
ATOM     26  O   LIG    1       24.545 -29.040   4.905  0.00  0.00    -0.246 OA
BRANCH  25  27
ATOM     27  O   LIG    1       24.228 -29.360   7.193  0.00  0.00    -0.462 OA
BRANCH  27  28
ATOM     28  C   LIG    1       25.397 -29.836   7.912  0.00  0.00    +0.232 C 
BRANCH  28  29
ATOM     29  C   LIG    1       25.459 -29.374   9.356  0.00  0.00    +0.041 C 
BRANCH  29  30
ATOM     30  C   LIG    1       26.612 -28.409   9.657  0.00  0.00    +0.003 C 
BRANCH  30  31
ATOM     31  C   LIG    1       26.985 -28.250  11.144  0.00  0.00    +0.000 C 
BRANCH  31  32
ATOM     32  C   LIG    1       25.828 -27.929  12.121  0.00  0.00    +0.000 C 
BRANCH  32  33
ATOM     33  C   LIG    1       26.161 -26.868  13.168  0.00  0.00    +0.000 C 
BRANCH  33  34
ATOM     34  C   LIG    1       25.108 -25.815  13.506  0.00  0.00    +0.011 C 
BRANCH  34  35
ATOM     35  C   LIG    1       25.289 -24.956  14.770  0.00  0.00    +0.120 C 
BRANCH  35  36
ATOM     36  C   LIG    1       26.008 -23.627  14.637  0.00  0.00    +0.305 C 
ATOM     37  O   LIG    1       25.483 -22.533  14.598  0.00  0.00    -0.251 OA
BRANCH  36  38
ATOM     38  O   LIG    1       27.337 -23.765  14.658  0.00  0.00    -0.481 OA
ATOM     39  H   LIG    1       27.707 -23.433  15.508  0.00  0.00    +0.295 HD
ENDBRANCH  36  38
ENDBRANCH  35  36
ENDBRANCH  34  35
ENDBRANCH  33  34
ENDBRANCH  32  33
ENDBRANCH  31  32
ENDBRANCH  30  31
ENDBRANCH  29  30
ENDBRANCH  28  29
ENDBRANCH  27  28
ENDBRANCH  25  27
ENDBRANCH  24  25
ENDBRANCH  21  23
ENDBRANCH   1  21
TORSDOF 21
ENDMDL
MODEL 5
REMARK VINA RESULT:      -8.1      1.474      2.113
REMARK  Name = *****
REMARK                            x       y       z     vdW  Elec       q    Type
REMARK                         _______ _______ _______ _____ _____    ______ ____
ROOT
ATOM      1  C   LIG    1       25.507 -25.292   5.642  0.00  0.00    +0.153 C 
ATOM      2  C   LIG    1       26.274 -26.252   6.544  0.00  0.00    +0.172 C 
ATOM      3  C   LIG    1       25.434 -27.494   6.835  0.00  0.00    +0.151 C 
ATOM      4  C   LIG    1       24.976 -28.200   5.550  0.00  0.00    +0.048 C 
ATOM      5  C   LIG    1       24.479 -27.190   4.494  0.00  0.00    +0.166 C 
ATOM      6  O   LIG    1       25.253 -25.988   4.401  0.00  0.00    -0.373 OA
ENDROOT
BRANCH   2   7
ATOM      7  O   LIG    1       27.480 -26.689   5.875  0.00  0.00    -0.387 OA
ATOM      8  H   LIG    1       27.218 -26.915   4.958  0.00  0.00    +0.210 HD
ENDBRANCH   2   7
BRANCH   3   9
ATOM      9  O   LIG    1       26.233 -28.390   7.615  0.00  0.00    -0.389 OA
ATOM     10  H   LIG    1       26.743 -28.920   6.968  0.00  0.00    +0.210 HD
ENDBRANCH   3   9
BRANCH   4  11
ATOM     11  C   LIG    1       23.880 -29.251   5.861  0.00  0.00    +0.042 C 
BRANCH  11  12
ATOM     12  C   LIG    1       24.430 -30.630   6.133  0.00  0.00    +0.148 C 
ATOM     13  C   LIG    1       24.322 -31.354   7.493  0.00  0.00    +0.153 C 
ATOM     14  O   LIG    1       23.419 -31.604   6.391  0.00  0.00    -0.368 OA
BRANCH  13  15
ATOM     15  C   LIG    1       25.110 -32.617   7.896  0.00  0.00    +0.046 C 
ATOM     16  C   LIG    1       24.731 -33.825   7.033  0.00  0.00    +0.013 C 
BRANCH  15  17
ATOM     17  C   LIG    1       26.660 -32.418   7.866  0.00  0.00    +0.117 C 
ATOM     18  C   LIG    1       27.465 -33.478   8.645  0.00  0.00    +0.038 C 
BRANCH  17  19
ATOM     19  O   LIG    1       27.018 -31.136   8.393  0.00  0.00    -0.392 OA
ATOM     20  H   LIG    1       27.978 -31.019   8.289  0.00  0.00    +0.210 HD
ENDBRANCH  17  19
ENDBRANCH  15  17
ENDBRANCH  13  15
ENDBRANCH  11  12
ENDBRANCH   4  11
BRANCH   1  21
ATOM     21  C   LIG    1       24.223 -24.667   6.253  0.00  0.00    +0.065 C 
BRANCH  21  23
ATOM     22  C   LIG    1       23.025 -22.458   6.973  0.00  0.00    +0.039 C 
ATOM     23  C   LIG    1       24.290 -23.287   6.901  0.00  0.00    -0.063 C 
ATOM     24  C   LIG    1       25.472 -22.848   7.414  0.00  0.00    +0.090 C 
BRANCH  24  25
ATOM     25  C   LIG    1       25.672 -21.546   8.067  0.00  0.00    +0.332 C 
ATOM     26  O   LIG    1       25.686 -21.399   9.311  0.00  0.00    -0.246 OA
BRANCH  25  27
ATOM     27  O   LIG    1       25.717 -20.572   7.130  0.00  0.00    -0.462 OA
BRANCH  27  28
ATOM     28  C   LIG    1       26.546 -20.803   5.960  0.00  0.00    +0.232 C 
BRANCH  28  29
ATOM     29  C   LIG    1       27.784 -19.927   5.903  0.00  0.00    +0.041 C 
BRANCH  29  30
ATOM     30  C   LIG    1       28.885 -20.332   6.889  0.00  0.00    +0.003 C 
BRANCH  30  31
ATOM     31  C   LIG    1       30.216 -19.565   6.763  0.00  0.00    +0.000 C 
BRANCH  31  32
ATOM     32  C   LIG    1       30.405 -18.342   7.692  0.00  0.00    +0.000 C 
BRANCH  32  33
ATOM     33  C   LIG    1       31.599 -18.447   8.640  0.00  0.00    +0.000 C 
BRANCH  33  34
ATOM     34  C   LIG    1       32.248 -17.162   9.148  0.00  0.00    +0.011 C 
BRANCH  34  35
ATOM     35  C   LIG    1       32.392 -16.946  10.665  0.00  0.00    +0.120 C 
BRANCH  35  36
ATOM     36  C   LIG    1       31.164 -16.523  11.449  0.00  0.00    +0.305 C 
ATOM     37  O   LIG    1       30.023 -16.879  11.234  0.00  0.00    -0.251 OA
BRANCH  36  38
ATOM     38  O   LIG    1       31.472 -15.759  12.501  0.00  0.00    -0.481 OA
ATOM     39  H   LIG    1       31.967 -16.279  13.175  0.00  0.00    +0.295 HD
ENDBRANCH  36  38
ENDBRANCH  35  36
ENDBRANCH  34  35
ENDBRANCH  33  34
ENDBRANCH  32  33
ENDBRANCH  31  32
ENDBRANCH  30  31
ENDBRANCH  29  30
ENDBRANCH  28  29
ENDBRANCH  27  28
ENDBRANCH  25  27
ENDBRANCH  24  25
ENDBRANCH  21  23
ENDBRANCH   1  21
TORSDOF 21
ENDMDL
MODEL 6
REMARK VINA RESULT:      -8.1      2.699      5.252
REMARK  Name = *****
REMARK                            x       y       z     vdW  Elec       q    Type
REMARK                         _______ _______ _______ _____ _____    ______ ____
ROOT
ATOM      1  C   LIG    1       24.436 -30.094   5.795  0.00  0.00    +0.153 C 
ATOM      2  C   LIG    1       25.668 -30.886   5.368  0.00  0.00    +0.172 C 
ATOM      3  C   LIG    1       26.126 -31.805   6.499  0.00  0.00    +0.151 C 
ATOM      4  C   LIG    1       25.009 -32.745   6.973  0.00  0.00    +0.048 C 
ATOM      5  C   LIG    1       23.662 -32.004   7.111  0.00  0.00    +0.166 C 
ATOM      6  O   LIG    1       23.391 -31.053   6.074  0.00  0.00    -0.373 OA
ENDROOT
BRANCH   2   7
ATOM      7  O   LIG    1       25.339 -31.722   4.234  0.00  0.00    -0.387 OA
ATOM      8  H   LIG    1       24.447 -31.444   3.938  0.00  0.00    +0.210 HD
ENDBRANCH   2   7
BRANCH   3   9
ATOM      9  O   LIG    1       27.230 -32.578   6.014  0.00  0.00    -0.389 OA
ATOM     10  H   LIG    1       27.082 -33.486   6.346  0.00  0.00    +0.210 HD
ENDBRANCH   3   9
BRANCH   4  11
ATOM     11  C   LIG    1       25.396 -33.429   8.310  0.00  0.00    +0.042 C 
BRANCH  11  12
ATOM     12  C   LIG    1       26.236 -32.556   9.210  0.00  0.00    +0.148 C 
ATOM     13  C   LIG    1       25.658 -31.497  10.175  0.00  0.00    +0.153 C 
ATOM     14  O   LIG    1       26.046 -32.824  10.599  0.00  0.00    -0.368 OA
BRANCH  13  15
ATOM     15  C   LIG    1       26.474 -30.398  10.885  0.00  0.00    +0.046 C 
ATOM     16  C   LIG    1       26.879 -29.276   9.923  0.00  0.00    +0.013 C 
BRANCH  15  17
ATOM     17  C   LIG    1       25.744 -29.785  12.125  0.00  0.00    +0.117 C 
ATOM     18  C   LIG    1       25.659 -30.715  13.352  0.00  0.00    +0.038 C 
BRANCH  17  19
ATOM     19  O   LIG    1       24.408 -29.399  11.787  0.00  0.00    -0.392 OA
ATOM     20  H   LIG    1       24.102 -29.961  11.055  0.00  0.00    +0.210 HD
ENDBRANCH  17  19
ENDBRANCH  15  17
ENDBRANCH  13  15
ENDBRANCH  11  12
ENDBRANCH   4  11
BRANCH   1  21
ATOM     21  C   LIG    1       24.648 -29.083   6.954  0.00  0.00    +0.065 C 
BRANCH  21  23
ATOM     22  C   LIG    1       26.252 -27.038   7.234  0.00  0.00    +0.039 C 
ATOM     23  C   LIG    1       24.993 -27.632   6.637  0.00  0.00    -0.063 C 
ATOM     24  C   LIG    1       24.178 -26.917   5.813  0.00  0.00    +0.090 C 
BRANCH  24  25
ATOM     25  C   LIG    1       24.396 -25.516   5.424  0.00  0.00    +0.332 C 
ATOM     26  O   LIG    1       25.079 -25.181   4.429  0.00  0.00    -0.246 OA
BRANCH  25  27
ATOM     27  O   LIG    1       23.853 -24.698   6.353  0.00  0.00    -0.462 OA
BRANCH  27  28
ATOM     28  C   LIG    1       24.421 -23.368   6.493  0.00  0.00    +0.232 C 
BRANCH  28  29
ATOM     29  C   LIG    1       25.639 -23.313   7.396  0.00  0.00    +0.041 C 
BRANCH  29  30
ATOM     30  C   LIG    1       25.580 -22.213   8.462  0.00  0.00    +0.003 C 
BRANCH  30  31
ATOM     31  C   LIG    1       25.548 -20.765   7.933  0.00  0.00    +0.000 C 
BRANCH  31  32
ATOM     32  C   LIG    1       26.734 -20.325   7.040  0.00  0.00    +0.000 C 
BRANCH  32  33
ATOM     33  C   LIG    1       28.051 -20.129   7.790  0.00  0.00    +0.000 C 
BRANCH  33  34
ATOM     34  C   LIG    1       29.163 -21.157   7.600  0.00  0.00    +0.011 C 
BRANCH  34  35
ATOM     35  C   LIG    1       30.564 -20.855   8.160  0.00  0.00    +0.120 C 
BRANCH  35  36
ATOM     36  C   LIG    1       31.177 -21.846   9.131  0.00  0.00    +0.305 C 
ATOM     37  O   LIG    1       30.750 -22.121  10.234  0.00  0.00    -0.251 OA
BRANCH  36  38
ATOM     38  O   LIG    1       32.226 -22.486   8.607  0.00  0.00    -0.481 OA
ATOM     39  H   LIG    1       32.112 -23.461   8.683  0.00  0.00    +0.295 HD
ENDBRANCH  36  38
ENDBRANCH  35  36
ENDBRANCH  34  35
ENDBRANCH  33  34
ENDBRANCH  32  33
ENDBRANCH  31  32
ENDBRANCH  30  31
ENDBRANCH  29  30
ENDBRANCH  28  29
ENDBRANCH  27  28
ENDBRANCH  25  27
ENDBRANCH  24  25
ENDBRANCH  21  23
ENDBRANCH   1  21
TORSDOF 21
ENDMDL
MODEL 7
REMARK VINA RESULT:      -8.1      3.230     10.417
REMARK  Name = *****
REMARK                            x       y       z     vdW  Elec       q    Type
REMARK                         _______ _______ _______ _____ _____    ______ ____
ROOT
ATOM      1  C   LIG    1       24.289 -23.896   5.904  0.00  0.00    +0.153 C 
ATOM      2  C   LIG    1       23.298 -23.050   6.696  0.00  0.00    +0.172 C 
ATOM      3  C   LIG    1       24.042 -22.056   7.587  0.00  0.00    +0.151 C 
ATOM      4  C   LIG    1       25.003 -21.165   6.786  0.00  0.00    +0.048 C 
ATOM      5  C   LIG    1       25.800 -21.981   5.747  0.00  0.00    +0.166 C 
ATOM      6  O   LIG    1       25.045 -22.991   5.068  0.00  0.00    -0.373 OA
ENDROOT
BRANCH   2   7
ATOM      7  O   LIG    1       22.473 -22.287   5.785  0.00  0.00    -0.387 OA
ATOM      8  H   LIG    1       21.814 -22.914   5.422  0.00  0.00    +0.210 HD
ENDBRANCH   2   7
BRANCH   3   9
ATOM      9  O   LIG    1       23.064 -21.239   8.241  0.00  0.00    -0.389 OA
ATOM     10  H   LIG    1       22.328 -21.146   7.602  0.00  0.00    +0.210 HD
ENDBRANCH   3   9
BRANCH   4  11
ATOM     11  C   LIG    1       25.962 -20.401   7.735  0.00  0.00    +0.042 C 
BRANCH  11  12
ATOM     12  C   LIG    1       27.421 -20.620   7.418  0.00  0.00    +0.148 C 
ATOM     13  C   LIG    1       28.583 -19.923   8.160  0.00  0.00    +0.153 C 
ATOM     14  O   LIG    1       28.139 -21.265   8.469  0.00  0.00    -0.368 OA
BRANCH  13  15
ATOM     15  C   LIG    1       30.051 -19.892   7.687  0.00  0.00    +0.046 C 
ATOM     16  C   LIG    1       30.236 -18.991   6.462  0.00  0.00    +0.013 C 
BRANCH  15  17
ATOM     17  C   LIG    1       31.055 -19.464   8.806  0.00  0.00    +0.117 C 
ATOM     18  C   LIG    1       31.837 -18.167   8.515  0.00  0.00    +0.038 C 
BRANCH  17  19
ATOM     19  O   LIG    1       32.015 -20.497   9.048  0.00  0.00    -0.392 OA
ATOM     20  H   LIG    1       31.581 -21.357   8.915  0.00  0.00    +0.210 HD
ENDBRANCH  17  19
ENDBRANCH  15  17
ENDBRANCH  13  15
ENDBRANCH  11  12
ENDBRANCH   4  11
BRANCH   1  21
ATOM     21  C   LIG    1       25.195 -24.840   6.740  0.00  0.00    +0.065 C 
BRANCH  21  23
ATOM     22  C   LIG    1       26.771 -26.761   5.927  0.00  0.00    +0.039 C 
ATOM     23  C   LIG    1       25.382 -26.290   6.304  0.00  0.00    -0.063 C 
ATOM     24  C   LIG    1       24.306 -27.124   6.285  0.00  0.00    +0.090 C 
BRANCH  24  25
ATOM     25  C   LIG    1       24.348 -28.540   5.891  0.00  0.00    +0.332 C 
ATOM     26  O   LIG    1       24.536 -28.917   4.712  0.00  0.00    -0.246 OA
BRANCH  25  27
ATOM     27  O   LIG    1       24.045 -29.316   6.957  0.00  0.00    -0.462 OA
BRANCH  27  28
ATOM     28  C   LIG    1       25.129 -30.055   7.580  0.00  0.00    +0.232 C 
BRANCH  28  29
ATOM     29  C   LIG    1       25.379 -29.674   9.027  0.00  0.00    +0.041 C 
BRANCH  29  30
ATOM     30  C   LIG    1       26.375 -28.524   9.210  0.00  0.00    +0.003 C 
BRANCH  30  31
ATOM     31  C   LIG    1       26.765 -28.197  10.666  0.00  0.00    +0.000 C 
BRANCH  31  32
ATOM     32  C   LIG    1       26.120 -29.068  11.771  0.00  0.00    +0.000 C 
BRANCH  32  33
ATOM     33  C   LIG    1       24.923 -28.421  12.467  0.00  0.00    +0.000 C 
BRANCH  33  34
ATOM     34  C   LIG    1       23.527 -28.976  12.192  0.00  0.00    +0.011 C 
BRANCH  34  35
ATOM     35  C   LIG    1       22.380 -28.625  13.157  0.00  0.00    +0.120 C 
BRANCH  35  36
ATOM     36  C   LIG    1       21.719 -27.267  13.019  0.00  0.00    +0.305 C 
ATOM     37  O   LIG    1       22.265 -26.191  13.153  0.00  0.00    -0.251 OA
BRANCH  36  38
ATOM     38  O   LIG    1       20.444 -27.361  12.630  0.00  0.00    -0.481 OA
ATOM     39  H   LIG    1       19.990 -28.097  13.101  0.00  0.00    +0.295 HD
ENDBRANCH  36  38
ENDBRANCH  35  36
ENDBRANCH  34  35
ENDBRANCH  33  34
ENDBRANCH  32  33
ENDBRANCH  31  32
ENDBRANCH  30  31
ENDBRANCH  29  30
ENDBRANCH  28  29
ENDBRANCH  27  28
ENDBRANCH  25  27
ENDBRANCH  24  25
ENDBRANCH  21  23
ENDBRANCH   1  21
TORSDOF 21
ENDMDL
MODEL 8
REMARK VINA RESULT:      -8.1      1.605     11.520
REMARK  Name = *****
REMARK                            x       y       z     vdW  Elec       q    Type
REMARK                         _______ _______ _______ _____ _____    ______ ____
ROOT
ATOM      1  C   LIG    1       24.441 -21.751   6.058  0.00  0.00    +0.153 C 
ATOM      2  C   LIG    1       24.988 -21.811   7.480  0.00  0.00    +0.172 C 
ATOM      3  C   LIG    1       26.512 -21.711   7.467  0.00  0.00    +0.151 C 
ATOM      4  C   LIG    1       27.005 -20.448   6.745  0.00  0.00    +0.048 C 
ATOM      5  C   LIG    1       26.228 -20.203   5.434  0.00  0.00    +0.166 C 
ATOM      6  O   LIG    1       24.822 -20.468   5.511  0.00  0.00    -0.373 OA
ENDROOT
BRANCH   2   7
ATOM      7  O   LIG    1       24.484 -20.690   8.242  0.00  0.00    -0.387 OA
ATOM      8  H   LIG    1       24.443 -19.933   7.622  0.00  0.00    +0.210 HD
ENDBRANCH   2   7
BRANCH   3   9
ATOM      9  O   LIG    1       26.960 -21.691   8.827  0.00  0.00    -0.389 OA
ATOM     10  H   LIG    1       26.690 -22.552   9.206  0.00  0.00    +0.210 HD
ENDBRANCH   3   9
BRANCH   4  11
ATOM     11  C   LIG    1       28.529 -20.532   6.470  0.00  0.00    +0.042 C 
BRANCH  11  12
ATOM     12  C   LIG    1       29.374 -20.239   7.686  0.00  0.00    +0.148 C 
ATOM     13  C   LIG    1       29.909 -18.837   8.053  0.00  0.00    +0.153 C 
ATOM     14  O   LIG    1       28.720 -19.410   8.646  0.00  0.00    -0.368 OA
BRANCH  13  15
ATOM     15  C   LIG    1       31.000 -18.546   9.103  0.00  0.00    +0.046 C 
ATOM     16  C   LIG    1       32.170 -17.756   8.506  0.00  0.00    +0.013 C 
BRANCH  15  17
ATOM     17  C   LIG    1       30.461 -17.804  10.369  0.00  0.00    +0.117 C 
ATOM     18  C   LIG    1       31.030 -16.386  10.582  0.00  0.00    +0.038 C 
BRANCH  17  19
ATOM     19  O   LIG    1       30.736 -18.557  11.555  0.00  0.00    -0.392 OA
ATOM     20  H   LIG    1       31.006 -19.454  11.292  0.00  0.00    +0.210 HD
ENDBRANCH  17  19
ENDBRANCH  15  17
ENDBRANCH  13  15
ENDBRANCH  11  12
ENDBRANCH   4  11
BRANCH   1  21
ATOM     21  C   LIG    1       24.826 -22.936   5.132  0.00  0.00    +0.065 C 
BRANCH  21  23
ATOM     22  C   LIG    1       23.533 -24.633   6.643  0.00  0.00    +0.039 C 
ATOM     23  C   LIG    1       24.606 -24.369   5.608  0.00  0.00    -0.063 C 
ATOM     24  C   LIG    1       25.361 -25.371   5.078  0.00  0.00    +0.090 C 
BRANCH  24  25
ATOM     25  C   LIG    1       25.249 -26.790   5.444  0.00  0.00    +0.332 C 
ATOM     26  O   LIG    1       24.265 -27.501   5.135  0.00  0.00    -0.246 OA
BRANCH  25  27
ATOM     27  O   LIG    1       26.290 -27.138   6.233  0.00  0.00    -0.462 OA
BRANCH  27  28
ATOM     28  C   LIG    1       26.029 -27.321   7.650  0.00  0.00    +0.232 C 
BRANCH  28  29
ATOM     29  C   LIG    1       25.784 -28.765   8.047  0.00  0.00    +0.041 C 
BRANCH  29  30
ATOM     30  C   LIG    1       26.071 -29.067   9.522  0.00  0.00    +0.003 C 
BRANCH  30  31
ATOM     31  C   LIG    1       25.115 -30.067  10.202  0.00  0.00    +0.000 C 
BRANCH  31  32
ATOM     32  C   LIG    1       23.663 -30.115   9.668  0.00  0.00    +0.000 C 
BRANCH  32  33
ATOM     33  C   LIG    1       23.217 -31.490   9.172  0.00  0.00    +0.000 C 
BRANCH  33  34
ATOM     34  C   LIG    1       24.139 -32.266   8.234  0.00  0.00    +0.011 C 
BRANCH  34  35
ATOM     35  C   LIG    1       23.824 -32.291   6.728  0.00  0.00    +0.120 C 
BRANCH  35  36
ATOM     36  C   LIG    1       24.258 -31.107   5.885  0.00  0.00    +0.305 C 
ATOM     37  O   LIG    1       25.321 -30.993   5.309  0.00  0.00    -0.251 OA
BRANCH  36  38
ATOM     38  O   LIG    1       23.288 -30.198   5.750  0.00  0.00    -0.481 OA
ATOM     39  H   LIG    1       23.259 -29.855   4.828  0.00  0.00    +0.295 HD
ENDBRANCH  36  38
ENDBRANCH  35  36
ENDBRANCH  34  35
ENDBRANCH  33  34
ENDBRANCH  32  33
ENDBRANCH  31  32
ENDBRANCH  30  31
ENDBRANCH  29  30
ENDBRANCH  28  29
ENDBRANCH  27  28
ENDBRANCH  25  27
ENDBRANCH  24  25
ENDBRANCH  21  23
ENDBRANCH   1  21
TORSDOF 21
ENDMDL
MODEL 9
REMARK VINA RESULT:      -7.8      3.723      6.649
REMARK  Name = *****
REMARK                            x       y       z     vdW  Elec       q    Type
REMARK                         _______ _______ _______ _____ _____    ______ ____
ROOT
ATOM      1  C   LIG    1       24.544 -30.367   7.752  0.00  0.00    +0.153 C 
ATOM      2  C   LIG    1       25.437 -31.468   8.314  0.00  0.00    +0.172 C 
ATOM      3  C   LIG    1       25.741 -31.205   9.788  0.00  0.00    +0.151 C 
ATOM      4  C   LIG    1       24.464 -31.055  10.627  0.00  0.00    +0.048 C 
ATOM      5  C   LIG    1       23.413 -30.180   9.911  0.00  0.00    +0.166 C 
ATOM      6  O   LIG    1       23.307 -30.401   8.499  0.00  0.00    -0.373 OA
ENDROOT
BRANCH   2   7
ATOM      7  O   LIG    1       24.752 -32.739   8.231  0.00  0.00    -0.387 OA
ATOM      8  H   LIG    1       23.960 -32.662   8.803  0.00  0.00    +0.210 HD
ENDBRANCH   2   7
BRANCH   3   9
ATOM      9  O   LIG    1       26.511 -32.308  10.279  0.00  0.00    -0.389 OA
ATOM     10  H   LIG    1       26.698 -32.101  11.218  0.00  0.00    +0.210 HD
ENDBRANCH   3   9
BRANCH   4  11
ATOM     11  C   LIG    1       24.791 -30.481  12.029  0.00  0.00    +0.042 C 
BRANCH  11  12
ATOM     12  C   LIG    1       24.582 -28.989  12.131  0.00  0.00    +0.148 C 
ATOM     13  C   LIG    1       23.798 -28.300  13.269  0.00  0.00    +0.153 C 
ATOM     14  O   LIG    1       25.241 -28.399  13.251  0.00  0.00    -0.368 OA
BRANCH  13  15
ATOM     15  C   LIG    1       23.317 -26.834  13.260  0.00  0.00    +0.046 C 
ATOM     16  C   LIG    1       21.788 -26.737  13.271  0.00  0.00    +0.013 C 
BRANCH  15  17
ATOM     17  C   LIG    1       23.904 -25.980  14.429  0.00  0.00    +0.117 C 
ATOM     18  C   LIG    1       24.989 -24.967  14.011  0.00  0.00    +0.038 C 
BRANCH  17  19
ATOM     19  O   LIG    1       24.472 -26.822  15.438  0.00  0.00    -0.392 OA
ATOM     20  H   LIG    1       23.972 -26.693  16.262  0.00  0.00    +0.210 HD
ENDBRANCH  17  19
ENDBRANCH  15  17
ENDBRANCH  13  15
ENDBRANCH  11  12
ENDBRANCH   4  11
BRANCH   1  21
ATOM     21  C   LIG    1       25.172 -28.948   7.694  0.00  0.00    +0.065 C 
BRANCH  21  23
ATOM     22  C   LIG    1       24.043 -28.563   5.368  0.00  0.00    +0.039 C 
ATOM     23  C   LIG    1       24.803 -28.005   6.553  0.00  0.00    -0.063 C 
ATOM     24  C   LIG    1       25.145 -26.690   6.639  0.00  0.00    +0.090 C 
BRANCH  24  25
ATOM     25  C   LIG    1       24.847 -25.677   5.616  0.00  0.00    +0.332 C 
ATOM     26  O   LIG    1       25.516 -25.549   4.565  0.00  0.00    -0.246 OA
BRANCH  25  27
ATOM     27  O   LIG    1       23.848 -24.875   6.050  0.00  0.00    -0.462 OA
BRANCH  27  28
ATOM     28  C   LIG    1       24.208 -23.745   6.887  0.00  0.00    +0.232 C 
BRANCH  28  29
ATOM     29  C   LIG    1       23.171 -22.637   6.901  0.00  0.00    +0.041 C 
BRANCH  29  30
ATOM     30  C   LIG    1       23.755 -21.234   7.106  0.00  0.00    +0.003 C 
BRANCH  30  31
ATOM     31  C   LIG    1       24.561 -20.661   5.923  0.00  0.00    +0.000 C 
BRANCH  31  32
ATOM     32  C   LIG    1       26.093 -20.554   6.112  0.00  0.00    +0.000 C 
BRANCH  32  33
ATOM     33  C   LIG    1       26.564 -20.705   7.558  0.00  0.00    +0.000 C 
BRANCH  33  34
ATOM     34  C   LIG    1       27.999 -21.156   7.818  0.00  0.00    +0.011 C 
BRANCH  34  35
ATOM     35  C   LIG    1       29.151 -20.443   7.089  0.00  0.00    +0.120 C 
BRANCH  35  36
ATOM     36  C   LIG    1       30.406 -20.119   7.876  0.00  0.00    +0.305 C 
ATOM     37  O   LIG    1       30.501 -20.086   9.086  0.00  0.00    -0.251 OA
BRANCH  36  38
ATOM     38  O   LIG    1       31.471 -19.953   7.086  0.00  0.00    -0.481 OA
ATOM     39  H   LIG    1       31.336 -19.191   6.476  0.00  0.00    +0.295 HD
ENDBRANCH  36  38
ENDBRANCH  35  36
ENDBRANCH  34  35
ENDBRANCH  33  34
ENDBRANCH  32  33
ENDBRANCH  31  32
ENDBRANCH  30  31
ENDBRANCH  29  30
ENDBRANCH  28  29
ENDBRANCH  27  28
ENDBRANCH  25  27
ENDBRANCH  24  25
ENDBRANCH  21  23
ENDBRANCH   1  21
TORSDOF 21
ENDMDL
