MODEL 1
REMARK VINA RESULT:      -9.8      0.000      0.000
REMARK  Name = *****
REMARK                            x       y       z     vdW  Elec       q    Type
REMARK                         _______ _______ _______ _____ _____    ______ ____
ROOT
ATOM      1  C   LIG    1       24.873 -21.706   6.092  0.00  0.00    +0.239 A 
ATOM      2  C   LIG    1       23.937 -20.939   5.426  0.00  0.00    +0.100 A 
ATOM      3  C   LIG    1       24.410 -19.895   4.634  0.00  0.00    +0.087 A 
ATOM      4  C   LIG    1       23.348 -19.210   3.975  0.00  0.00    +0.036 A 
ATOM      5  C   LIG    1       22.110 -19.712   4.311  0.00  0.00    +0.048 A 
ATOM      6  N   LIG    1       25.729 -19.597   4.500  0.00  0.00    -0.213 NA
ATOM      7  C   LIG    1       26.560 -20.339   5.230  0.00  0.00    +0.223 A 
ATOM      8  S   LIG    1       22.227 -21.046   5.372  0.00  0.00    -0.090 S 
ATOM      9  N   LIG    1       26.157 -21.321   6.039  0.00  0.00    -0.178 NA
ENDROOT
BRANCH   7  10
ATOM     10  N   LIG    1       27.932 -20.140   5.062  0.00  0.00    -0.283 N 
ATOM     11  H   LIG    1       28.222 -20.281   4.106  0.00  0.00    +0.155 HD
BRANCH  10  12
ATOM     12  C   LIG    1       28.913 -19.820   6.010  0.00  0.00    +0.034 A 
ATOM     13  C   LIG    1       29.524 -18.568   6.075  0.00  0.00    +0.025 A 
ATOM     14  C   LIG    1       30.399 -18.211   7.110  0.00  0.00    +0.025 A 
ATOM     15  C   LIG    1       30.744 -19.103   8.127  0.00  0.00    +0.030 A 
ATOM     16  C   LIG    1       30.104 -20.356   8.064  0.00  0.00    +0.025 A 
ATOM     17  C   LIG    1       29.211 -20.709   7.036  0.00  0.00    +0.025 A 
BRANCH  15  18
ATOM     18  N   LIG    1       31.598 -18.736   9.179  0.00  0.00    -0.328 N 
ATOM     19  C   LIG    1       32.285 -17.429   9.098  0.00  0.00    +0.120 C 
ATOM     20  C   LIG    1       31.306 -16.300   9.500  0.00  0.00    +0.103 C 
ATOM     21  N   LIG    1       30.723 -16.437  10.856  0.00  0.00    -0.302 NA
ATOM     22  C   LIG    1       31.680 -16.051  11.888  0.00  0.00    +0.105 C 
ATOM     23  C   LIG    1       30.219 -17.820  11.063  0.00  0.00    +0.103 C 
ATOM     24  C   LIG    1       31.148 -18.968  10.580  0.00  0.00    +0.120 C 
ENDBRANCH  15  18
ENDBRANCH  10  12
ENDBRANCH   7  10
BRANCH   1  25
ATOM     25  O   LIG    1       24.527 -22.838   6.825  0.00  0.00    -0.437 OA
BRANCH  25  28
ATOM     26  C   LIG    1       25.862 -26.339   6.669  0.00  0.00    +0.037 A 
ATOM     27  C   LIG    1       25.505 -25.088   7.185  0.00  0.00    +0.069 A 
ATOM     28  C   LIG    1       24.938 -24.086   6.387  0.00  0.00    +0.132 A 
ATOM     29  C   LIG    1       24.814 -24.327   5.018  0.00  0.00    +0.046 A 
ATOM     30  C   LIG    1       25.228 -25.550   4.477  0.00  0.00    +0.005 A 
ATOM     31  C   LIG    1       25.739 -26.558   5.304  0.00  0.00    +0.023 A 
BRANCH  26  33
ATOM     32  C   LIG    1       25.696 -28.472   7.966  0.00  0.00    +0.240 C 
ATOM     33  N   LIG    1       26.310 -27.295   7.604  0.00  0.00    -0.282 N 
ATOM     34  H   LIG    1       27.186 -27.083   8.069  0.00  0.00    +0.155 HD
ATOM     35  O   LIG    1       24.657 -28.946   7.523  0.00  0.00    -0.271 OA
BRANCH  32  37
ATOM     36  C   LIG    1       26.814 -28.638  10.123  0.00  0.00    +0.013 C 
ATOM     37  C   LIG    1       26.504 -29.213   8.955  0.00  0.00    +0.060 C 
ENDBRANCH  32  37
ENDBRANCH  26  33
ENDBRANCH  25  28
ENDBRANCH   1  25
TORSDOF 7
ENDMDL
MODEL 2
REMARK VINA RESULT:      -9.5      2.726     10.100
REMARK  Name = *****
REMARK                            x       y       z     vdW  Elec       q    Type
REMARK                         _______ _______ _______ _____ _____    ______ ____
ROOT
ATOM      1  C   LIG    1       26.245 -22.451   7.365  0.00  0.00    +0.239 A 
ATOM      2  C   LIG    1       25.023 -21.914   7.009  0.00  0.00    +0.100 A 
ATOM      3  C   LIG    1       24.161 -22.719   6.268  0.00  0.00    +0.087 A 
ATOM      4  C   LIG    1       22.924 -22.062   6.001  0.00  0.00    +0.036 A 
ATOM      5  C   LIG    1       22.894 -20.777   6.498  0.00  0.00    +0.048 A 
ATOM      6  N   LIG    1       24.469 -23.983   5.879  0.00  0.00    -0.213 NA
ATOM      7  C   LIG    1       25.692 -24.400   6.201  0.00  0.00    +0.223 A 
ATOM      8  S   LIG    1       24.329 -20.382   7.338  0.00  0.00    -0.090 S 
ATOM      9  N   LIG    1       26.574 -23.654   6.870  0.00  0.00    -0.178 NA
ENDROOT
BRANCH   7  10
ATOM     10  N   LIG    1       26.030 -25.723   5.909  0.00  0.00    -0.283 N 
ATOM     11  H   LIG    1       26.750 -25.784   5.205  0.00  0.00    +0.155 HD
BRANCH  10  12
ATOM     12  C   LIG    1       25.499 -26.916   6.418  0.00  0.00    +0.034 A 
ATOM     13  C   LIG    1       24.584 -27.699   5.715  0.00  0.00    +0.025 A 
ATOM     14  C   LIG    1       24.166 -28.957   6.171  0.00  0.00    +0.025 A 
ATOM     15  C   LIG    1       24.613 -29.492   7.380  0.00  0.00    +0.030 A 
ATOM     16  C   LIG    1       25.554 -28.703   8.070  0.00  0.00    +0.025 A 
ATOM     17  C   LIG    1       25.989 -27.449   7.605  0.00  0.00    +0.025 A 
BRANCH  15  18
ATOM     18  N   LIG    1       24.216 -30.764   7.822  0.00  0.00    -0.328 N 
ATOM     19  C   LIG    1       24.722 -31.947   7.092  0.00  0.00    +0.120 C 
ATOM     20  C   LIG    1       26.175 -32.249   7.530  0.00  0.00    +0.103 C 
ATOM     21  N   LIG    1       26.349 -32.489   8.983  0.00  0.00    -0.302 NA
ATOM     22  C   LIG    1       25.898 -33.825   9.358  0.00  0.00    +0.105 C 
ATOM     23  C   LIG    1       25.653 -31.434   9.766  0.00  0.00    +0.103 C 
ATOM     24  C   LIG    1       24.227 -31.049   9.284  0.00  0.00    +0.120 C 
ENDBRANCH  15  18
ENDBRANCH  10  12
ENDBRANCH   7  10
BRANCH   1  25
ATOM     25  O   LIG    1       27.143 -21.783   8.193  0.00  0.00    -0.437 OA
BRANCH  25  28
ATOM     26  C   LIG    1       29.533 -18.923   7.787  0.00  0.00    +0.037 A 
ATOM     27  C   LIG    1       28.718 -19.880   8.401  0.00  0.00    +0.069 A 
ATOM     28  C   LIG    1       27.948 -20.787   7.664  0.00  0.00    +0.132 A 
ATOM     29  C   LIG    1       27.936 -20.663   6.274  0.00  0.00    +0.046 A 
ATOM     30  C   LIG    1       28.696 -19.668   5.649  0.00  0.00    +0.005 A 
ATOM     31  C   LIG    1       29.503 -18.808   6.404  0.00  0.00    +0.023 A 
BRANCH  26  33
ATOM     32  C   LIG    1       31.527 -18.523   9.245  0.00  0.00    +0.240 C 
ATOM     33  N   LIG    1       30.347 -18.152   8.644  0.00  0.00    -0.282 N 
ATOM     34  H   LIG    1       30.015 -17.216   8.846  0.00  0.00    +0.155 HD
ATOM     35  O   LIG    1       32.130 -19.584   9.128  0.00  0.00    -0.271 OA
BRANCH  32  37
ATOM     36  C   LIG    1       32.232 -16.205   9.492  0.00  0.00    +0.013 C 
ATOM     37  C   LIG    1       32.090 -17.416  10.044  0.00  0.00    +0.060 C 
ENDBRANCH  32  37
ENDBRANCH  26  33
ENDBRANCH  25  28
ENDBRANCH   1  25
TORSDOF 7
ENDMDL
MODEL 3
REMARK VINA RESULT:      -9.5      5.100      8.774
REMARK  Name = *****
REMARK                            x       y       z     vdW  Elec       q    Type
REMARK                         _______ _______ _______ _____ _____    ______ ____
ROOT
ATOM      1  C   LIG    1       26.391 -29.143   8.913  0.00  0.00    +0.239 A 
ATOM      2  C   LIG    1       25.611 -30.280   8.825  0.00  0.00    +0.100 A 
ATOM      3  C   LIG    1       24.648 -30.320   7.819  0.00  0.00    +0.087 A 
ATOM      4  C   LIG    1       23.941 -31.558   7.814  0.00  0.00    +0.036 A 
ATOM      5  C   LIG    1       24.346 -32.398   8.828  0.00  0.00    +0.048 A 
ATOM      6  N   LIG    1       24.439 -29.302   6.944  0.00  0.00    -0.213 NA
ATOM      7  C   LIG    1       25.184 -28.216   7.141  0.00  0.00    +0.223 A 
ATOM      8  S   LIG    1       25.618 -31.724   9.749  0.00  0.00    -0.090 S 
ATOM      9  N   LIG    1       26.088 -28.107   8.116  0.00  0.00    -0.178 NA
ENDROOT
BRANCH   7  10
ATOM     10  N   LIG    1       25.078 -27.175   6.216  0.00  0.00    -0.283 N 
ATOM     11  H   LIG    1       25.140 -27.504   5.265  0.00  0.00    +0.155 HD
BRANCH  10  12
ATOM     12  C   LIG    1       24.939 -25.797   6.431  0.00  0.00    +0.034 A 
ATOM     13  C   LIG    1       26.027 -24.928   6.512  0.00  0.00    +0.025 A 
ATOM     14  C   LIG    1       25.874 -23.537   6.588  0.00  0.00    +0.025 A 
ATOM     15  C   LIG    1       24.616 -22.932   6.623  0.00  0.00    +0.030 A 
ATOM     16  C   LIG    1       23.526 -23.817   6.518  0.00  0.00    +0.025 A 
ATOM     17  C   LIG    1       23.677 -25.212   6.424  0.00  0.00    +0.025 A 
BRANCH  15  18
ATOM     18  N   LIG    1       24.464 -21.537   6.670  0.00  0.00    -0.328 N 
ATOM     19  C   LIG    1       25.364 -20.707   5.841  0.00  0.00    +0.120 C 
ATOM     20  C   LIG    1       24.874 -20.711   4.373  0.00  0.00    +0.103 C 
ATOM     21  N   LIG    1       23.486 -20.227   4.181  0.00  0.00    -0.302 NA
ATOM     22  C   LIG    1       23.415 -18.772   4.260  0.00  0.00    +0.105 C 
ATOM     23  C   LIG    1       22.573 -20.876   5.159  0.00  0.00    +0.103 C 
ATOM     24  C   LIG    1       23.089 -20.967   6.623  0.00  0.00    +0.120 C 
ENDBRANCH  15  18
ENDBRANCH  10  12
ENDBRANCH   7  10
BRANCH   1  25
ATOM     25  O   LIG    1       27.454 -29.032   9.806  0.00  0.00    -0.437 OA
BRANCH  25  28
ATOM     26  C   LIG    1       25.850 -28.153  13.079  0.00  0.00    +0.037 A 
ATOM     27  C   LIG    1       26.049 -28.264  11.699  0.00  0.00    +0.069 A 
ATOM     28  C   LIG    1       27.196 -28.854  11.155  0.00  0.00    +0.132 A 
ATOM     29  C   LIG    1       28.205 -29.259  12.030  0.00  0.00    +0.046 A 
ATOM     30  C   LIG    1       28.049 -29.094  13.411  0.00  0.00    +0.005 A 
ATOM     31  C   LIG    1       26.868 -28.554  13.934  0.00  0.00    +0.023 A 
BRANCH  26  33
ATOM     32  C   LIG    1       24.246 -26.335  13.697  0.00  0.00    +0.240 C 
ATOM     33  N   LIG    1       24.600 -27.648  13.492  0.00  0.00    -0.282 N 
ATOM     34  H   LIG    1       23.879 -28.340  13.665  0.00  0.00    +0.155 HD
ATOM     35  O   LIG    1       24.934 -25.335  13.527  0.00  0.00    -0.271 OA
BRANCH  32  37
ATOM     36  C   LIG    1       21.870 -26.644  13.265  0.00  0.00    +0.013 C 
ATOM     37  C   LIG    1       22.829 -26.219  14.095  0.00  0.00    +0.060 C 
ENDBRANCH  32  37
ENDBRANCH  26  33
ENDBRANCH  25  28
ENDBRANCH   1  25
TORSDOF 7
ENDMDL
MODEL 4
REMARK VINA RESULT:      -9.4      3.721      7.968
REMARK  Name = *****
REMARK                            x       y       z     vdW  Elec       q    Type
REMARK                         _______ _______ _______ _____ _____    ______ ____
ROOT
ATOM      1  C   LIG    1       25.628 -29.266   8.048  0.00  0.00    +0.239 A 
ATOM      2  C   LIG    1       25.120 -30.472   7.606  0.00  0.00    +0.100 A 
ATOM      3  C   LIG    1       24.243 -30.439   6.524  0.00  0.00    +0.087 A 
ATOM      4  C   LIG    1       23.824 -31.748   6.146  0.00  0.00    +0.036 A 
ATOM      5  C   LIG    1       24.347 -32.725   6.964  0.00  0.00    +0.048 A 
ATOM      6  N   LIG    1       23.865 -29.292   5.903  0.00  0.00    -0.213 NA
ATOM      7  C   LIG    1       24.344 -28.169   6.434  0.00  0.00    +0.223 A 
ATOM      8  S   LIG    1       25.391 -32.074   8.151  0.00  0.00    -0.090 S 
ATOM      9  N   LIG    1       25.150 -28.139   7.497  0.00  0.00    -0.178 NA
ENDROOT
BRANCH   7  10
ATOM     10  N   LIG    1       24.065 -26.966   5.780  0.00  0.00    -0.283 N 
ATOM     11  H   LIG    1       23.534 -27.108   4.935  0.00  0.00    +0.155 HD
BRANCH  10  12
ATOM     12  C   LIG    1       24.438 -25.658   6.116  0.00  0.00    +0.034 A 
ATOM     13  C   LIG    1       23.513 -24.666   6.442  0.00  0.00    +0.025 A 
ATOM     14  C   LIG    1       23.899 -23.403   6.910  0.00  0.00    +0.025 A 
ATOM     15  C   LIG    1       25.242 -23.043   7.048  0.00  0.00    +0.030 A 
ATOM     16  C   LIG    1       26.165 -24.060   6.738  0.00  0.00    +0.025 A 
ATOM     17  C   LIG    1       25.779 -25.334   6.285  0.00  0.00    +0.025 A 
BRANCH  15  18
ATOM     18  N   LIG    1       25.628 -21.789   7.544  0.00  0.00    -0.328 N 
ATOM     19  C   LIG    1       26.834 -21.716   8.398  0.00  0.00    +0.120 C 
ATOM     20  C   LIG    1       28.103 -21.756   7.513  0.00  0.00    +0.103 C 
ATOM     21  N   LIG    1       28.186 -20.680   6.497  0.00  0.00    -0.302 NA
ATOM     22  C   LIG    1       28.578 -19.410   7.099  0.00  0.00    +0.105 C 
ATOM     23  C   LIG    1       26.899 -20.566   5.761  0.00  0.00    +0.103 C 
ATOM     24  C   LIG    1       25.608 -20.618   6.623  0.00  0.00    +0.120 C 
ENDBRANCH  15  18
ENDBRANCH  10  12
ENDBRANCH   7  10
BRANCH   1  25
ATOM     25  O   LIG    1       26.592 -29.182   9.049  0.00  0.00    -0.437 OA
BRANCH  25  28
ATOM     26  C   LIG    1       26.465 -27.652  12.470  0.00  0.00    +0.037 A 
ATOM     27  C   LIG    1       26.935 -27.991  11.196  0.00  0.00    +0.069 A 
ATOM     28  C   LIG    1       26.214 -28.825  10.332  0.00  0.00    +0.132 A 
ATOM     29  C   LIG    1       25.033 -29.398  10.805  0.00  0.00    +0.046 A 
ATOM     30  C   LIG    1       24.584 -29.119  12.101  0.00  0.00    +0.005 A 
ATOM     31  C   LIG    1       25.292 -28.237  12.926  0.00  0.00    +0.023 A 
BRANCH  26  33
ATOM     32  C   LIG    1       26.939 -25.385  13.417  0.00  0.00    +0.240 C 
ATOM     33  N   LIG    1       27.230 -26.710  13.188  0.00  0.00    -0.282 N 
ATOM     34  H   LIG    1       28.104 -27.051  13.573  0.00  0.00    +0.155 HD
ATOM     35  O   LIG    1       25.938 -24.765  13.077  0.00  0.00    -0.271 OA
BRANCH  32  37
ATOM     36  C   LIG    1       28.611 -25.455  15.185  0.00  0.00    +0.013 C 
ATOM     37  C   LIG    1       27.981 -24.744  14.243  0.00  0.00    +0.060 C 
ENDBRANCH  32  37
ENDBRANCH  26  33
ENDBRANCH  25  28
ENDBRANCH   1  25
TORSDOF 7
ENDMDL
MODEL 5
REMARK VINA RESULT:      -9.3      5.169      8.840
REMARK  Name = *****
REMARK                            x       y       z     vdW  Elec       q    Type
REMARK                         _______ _______ _______ _____ _____    ______ ____
ROOT
ATOM      1  C   LIG    1       25.488 -29.997   8.691  0.00  0.00    +0.239 A 
ATOM      2  C   LIG    1       24.752 -31.034   8.151  0.00  0.00    +0.100 A 
ATOM      3  C   LIG    1       24.253 -30.863   6.861  0.00  0.00    +0.087 A 
ATOM      4  C   LIG    1       23.548 -32.017   6.411  0.00  0.00    +0.036 A 
ATOM      5  C   LIG    1       23.490 -33.005   7.369  0.00  0.00    +0.048 A 
ATOM      6  N   LIG    1       24.446 -29.735   6.129  0.00  0.00    -0.213 NA
ATOM      7  C   LIG    1       25.105 -28.756   6.748  0.00  0.00    +0.223 A 
ATOM      8  S   LIG    1       24.335 -32.569   8.790  0.00  0.00    -0.090 S 
ATOM      9  N   LIG    1       25.565 -28.850   7.997  0.00  0.00    -0.178 NA
ENDROOT
BRANCH   7  10
ATOM     10  N   LIG    1       25.414 -27.610   6.012  0.00  0.00    -0.283 N 
ATOM     11  H   LIG    1       25.890 -27.829   5.151  0.00  0.00    +0.155 HD
BRANCH  10  12
ATOM     12  C   LIG    1       25.187 -26.262   6.319  0.00  0.00    +0.034 A 
ATOM     13  C   LIG    1       26.219 -25.359   6.576  0.00  0.00    +0.025 A 
ATOM     14  C   LIG    1       25.992 -23.986   6.745  0.00  0.00    +0.025 A 
ATOM     15  C   LIG    1       24.709 -23.438   6.702  0.00  0.00    +0.030 A 
ATOM     16  C   LIG    1       23.678 -24.355   6.420  0.00  0.00    +0.025 A 
ATOM     17  C   LIG    1       23.905 -25.730   6.232  0.00  0.00    +0.025 A 
BRANCH  15  18
ATOM     18  N   LIG    1       24.484 -22.059   6.842  0.00  0.00    -0.328 N 
ATOM     19  C   LIG    1       25.259 -21.135   5.986  0.00  0.00    +0.120 C 
ATOM     20  C   LIG    1       24.638 -21.091   4.570  0.00  0.00    +0.103 C 
ATOM     21  N   LIG    1       23.213 -20.681   4.528  0.00  0.00    -0.302 NA
ATOM     22  C   LIG    1       23.070 -19.239   4.697  0.00  0.00    +0.105 C 
ATOM     23  C   LIG    1       22.431 -21.434   5.544  0.00  0.00    +0.103 C 
ATOM     24  C   LIG    1       23.082 -21.570   6.949  0.00  0.00    +0.120 C 
ENDBRANCH  15  18
ENDBRANCH  10  12
ENDBRANCH   7  10
BRANCH   1  25
ATOM     25  O   LIG    1       26.125 -30.094   9.924  0.00  0.00    -0.437 OA
BRANCH  25  28
ATOM     26  C   LIG    1       25.967 -27.652  12.766  0.00  0.00    +0.037 A 
ATOM     27  C   LIG    1       26.491 -28.439  11.734  0.00  0.00    +0.069 A 
ATOM     28  C   LIG    1       25.693 -29.308  10.980  0.00  0.00    +0.132 A 
ATOM     29  C   LIG    1       24.352 -29.449  11.339  0.00  0.00    +0.046 A 
ATOM     30  C   LIG    1       23.829 -28.716  12.412  0.00  0.00    +0.005 A 
ATOM     31  C   LIG    1       24.633 -27.811  13.114  0.00  0.00    +0.023 A 
BRANCH  26  33
ATOM     32  C   LIG    1       26.703 -25.372  13.487  0.00  0.00    +0.240 C 
ATOM     33  N   LIG    1       26.855 -26.734  13.363  0.00  0.00    -0.282 N 
ATOM     34  H   LIG    1       27.711 -27.126  13.739  0.00  0.00    +0.155 HD
ATOM     35  O   LIG    1       25.749 -24.687  13.137  0.00  0.00    -0.271 OA
BRANCH  32  37
ATOM     36  C   LIG    1       28.538 -25.506  15.082  0.00  0.00    +0.013 C 
ATOM     37  C   LIG    1       27.843 -24.771  14.206  0.00  0.00    +0.060 C 
ENDBRANCH  32  37
ENDBRANCH  26  33
ENDBRANCH  25  28
ENDBRANCH   1  25
TORSDOF 7
ENDMDL
MODEL 6
REMARK VINA RESULT:      -8.9      5.354      8.922
REMARK  Name = *****
REMARK                            x       y       z     vdW  Elec       q    Type
REMARK                         _______ _______ _______ _____ _____    ______ ____
ROOT
ATOM      1  C   LIG    1       23.964 -30.420   7.481  0.00  0.00    +0.239 A 
ATOM      2  C   LIG    1       24.199 -31.545   6.715  0.00  0.00    +0.100 A 
ATOM      3  C   LIG    1       24.989 -31.393   5.577  0.00  0.00    +0.087 A 
ATOM      4  C   LIG    1       25.185 -32.633   4.901  0.00  0.00    +0.036 A 
ATOM      5  C   LIG    1       24.513 -33.672   5.505  0.00  0.00    +0.048 A 
ATOM      6  N   LIG    1       25.519 -30.204   5.190  0.00  0.00    -0.213 NA
ATOM      7  C   LIG    1       25.187 -29.156   5.942  0.00  0.00    +0.223 A 
ATOM      8  S   LIG    1       23.696 -33.171   6.920  0.00  0.00    -0.090 S 
ATOM      9  N   LIG    1       24.398 -29.238   7.016  0.00  0.00    -0.178 NA
ENDROOT
BRANCH   7  10
ATOM     10  N   LIG    1       25.778 -27.926   5.647  0.00  0.00    -0.283 N 
ATOM     11  H   LIG    1       26.578 -28.025   5.042  0.00  0.00    +0.155 HD
BRANCH  10  12
ATOM     12  C   LIG    1       25.436 -26.641   6.088  0.00  0.00    +0.034 A 
ATOM     13  C   LIG    1       26.387 -25.690   6.461  0.00  0.00    +0.025 A 
ATOM     14  C   LIG    1       26.045 -24.366   6.768  0.00  0.00    +0.025 A 
ATOM     15  C   LIG    1       24.722 -23.921   6.753  0.00  0.00    +0.030 A 
ATOM     16  C   LIG    1       23.774 -24.882   6.353  0.00  0.00    +0.025 A 
ATOM     17  C   LIG    1       24.117 -26.207   6.027  0.00  0.00    +0.025 A 
BRANCH  15  18
ATOM     18  N   LIG    1       24.382 -22.588   7.032  0.00  0.00    -0.328 N 
ATOM     19  C   LIG    1       25.137 -21.516   6.346  0.00  0.00    +0.120 C 
ATOM     20  C   LIG    1       24.609 -21.348   4.901  0.00  0.00    +0.103 C 
ATOM     21  N   LIG    1       23.163 -21.036   4.801  0.00  0.00    -0.302 NA
ATOM     22  C   LIG    1       22.898 -19.637   5.121  0.00  0.00    +0.105 C 
ATOM     23  C   LIG    1       22.376 -21.956   5.664  0.00  0.00    +0.103 C 
ATOM     24  C   LIG    1       22.942 -22.213   7.089  0.00  0.00    +0.120 C 
ENDBRANCH  15  18
ENDBRANCH  10  12
ENDBRANCH   7  10
BRANCH   1  25
ATOM     25  O   LIG    1       23.281 -30.469   8.693  0.00  0.00    -0.437 OA
BRANCH  25  28
ATOM     26  C   LIG    1       25.063 -29.461  11.834  0.00  0.00    +0.037 A 
ATOM     27  C   LIG    1       24.369 -29.358  10.624  0.00  0.00    +0.069 A 
ATOM     28  C   LIG    1       23.995 -30.483   9.879  0.00  0.00    +0.132 A 
ATOM     29  C   LIG    1       24.414 -31.737  10.327  0.00  0.00    +0.046 A 
ATOM     30  C   LIG    1       25.166 -31.850  11.503  0.00  0.00    +0.005 A 
ATOM     31  C   LIG    1       25.478 -30.715  12.261  0.00  0.00    +0.023 A 
BRANCH  26  33
ATOM     32  C   LIG    1       26.341 -27.399  12.447  0.00  0.00    +0.240 C 
ATOM     33  N   LIG    1       25.270 -28.258  12.540  0.00  0.00    -0.282 N 
ATOM     34  H   LIG    1       24.544 -28.001  13.200  0.00  0.00    +0.155 HD
ATOM     35  O   LIG    1       27.313 -27.486  11.706  0.00  0.00    -0.271 OA
BRANCH  32  37
ATOM     36  C   LIG    1       24.936 -25.865  13.713  0.00  0.00    +0.013 C 
ATOM     37  C   LIG    1       26.165 -26.229  13.331  0.00  0.00    +0.060 C 
ENDBRANCH  32  37
ENDBRANCH  26  33
ENDBRANCH  25  28
ENDBRANCH   1  25
TORSDOF 7
ENDMDL
MODEL 7
REMARK VINA RESULT:      -8.8      2.425      9.340
REMARK  Name = *****
REMARK                            x       y       z     vdW  Elec       q    Type
REMARK                         _______ _______ _______ _____ _____    ______ ____
ROOT
ATOM      1  C   LIG    1       25.711 -20.399   5.264  0.00  0.00    +0.239 A 
ATOM      2  C   LIG    1       24.596 -19.745   4.776  0.00  0.00    +0.100 A 
ATOM      3  C   LIG    1       23.351 -20.303   5.060  0.00  0.00    +0.087 A 
ATOM      4  C   LIG    1       22.288 -19.513   4.534  0.00  0.00    +0.036 A 
ATOM      5  C   LIG    1       22.743 -18.416   3.836  0.00  0.00    +0.048 A 
ATOM      6  N   LIG    1       23.190 -21.447   5.773  0.00  0.00    -0.213 NA
ATOM      7  C   LIG    1       24.316 -22.052   6.146  0.00  0.00    +0.223 A 
ATOM      8  S   LIG    1       24.448 -18.302   3.864  0.00  0.00    -0.090 S 
ATOM      9  N   LIG    1       25.535 -21.587   5.863  0.00  0.00    -0.178 NA
ENDROOT
BRANCH   7  10
ATOM     10  N   LIG    1       24.212 -23.182   6.961  0.00  0.00    -0.283 N 
ATOM     11  H   LIG    1       23.776 -22.972   7.846  0.00  0.00    +0.155 HD
BRANCH  10  12
ATOM     12  C   LIG    1       24.645 -24.495   6.731  0.00  0.00    +0.034 A 
ATOM     13  C   LIG    1       25.849 -24.993   7.226  0.00  0.00    +0.025 A 
ATOM     14  C   LIG    1       26.208 -26.343   7.110  0.00  0.00    +0.025 A 
ATOM     15  C   LIG    1       25.395 -27.271   6.457  0.00  0.00    +0.030 A 
ATOM     16  C   LIG    1       24.172 -26.761   5.981  0.00  0.00    +0.025 A 
ATOM     17  C   LIG    1       23.802 -25.411   6.112  0.00  0.00    +0.025 A 
BRANCH  15  18
ATOM     18  N   LIG    1       25.742 -28.629   6.365  0.00  0.00    -0.328 N 
ATOM     19  C   LIG    1       25.836 -29.412   7.616  0.00  0.00    +0.120 C 
ATOM     20  C   LIG    1       24.418 -29.806   8.094  0.00  0.00    +0.103 C 
ATOM     21  N   LIG    1       23.628 -30.589   7.112  0.00  0.00    -0.302 NA
ATOM     22  C   LIG    1       24.062 -31.981   7.070  0.00  0.00    +0.105 C 
ATOM     23  C   LIG    1       23.694 -29.951   5.771  0.00  0.00    +0.103 C 
ATOM     24  C   LIG    1       25.097 -29.462   5.313  0.00  0.00    +0.120 C 
ENDBRANCH  15  18
ENDBRANCH  10  12
ENDBRANCH   7  10
BRANCH   1  25
ATOM     25  O   LIG    1       26.997 -19.881   5.137  0.00  0.00    -0.437 OA
BRANCH  25  28
ATOM     26  C   LIG    1       29.884 -19.603   7.513  0.00  0.00    +0.037 A 
ATOM     27  C   LIG    1       28.999 -19.291   6.476  0.00  0.00    +0.069 A 
ATOM     28  C   LIG    1       27.935 -20.131   6.125  0.00  0.00    +0.132 A 
ATOM     29  C   LIG    1       27.820 -21.357   6.782  0.00  0.00    +0.046 A 
ATOM     30  C   LIG    1       28.739 -21.712   7.777  0.00  0.00    +0.005 A 
ATOM     31  C   LIG    1       29.760 -20.830   8.150  0.00  0.00    +0.023 A 
BRANCH  26  33
ATOM     32  C   LIG    1       31.194 -18.171   9.092  0.00  0.00    +0.240 C 
ATOM     33  N   LIG    1       30.836 -18.615   7.840  0.00  0.00    -0.282 N 
ATOM     34  H   LIG    1       31.306 -18.176   7.056  0.00  0.00    +0.155 HD
ATOM     35  O   LIG    1       30.787 -18.570  10.177  0.00  0.00    -0.271 OA
BRANCH  32  37
ATOM     36  C   LIG    1       32.238 -16.107   9.853  0.00  0.00    +0.013 C 
ATOM     37  C   LIG    1       32.255 -17.147   9.011  0.00  0.00    +0.060 C 
ENDBRANCH  32  37
ENDBRANCH  26  33
ENDBRANCH  25  28
ENDBRANCH   1  25
TORSDOF 7
ENDMDL
MODEL 8
REMARK VINA RESULT:      -8.8      5.735      9.873
REMARK  Name = *****
REMARK                            x       y       z     vdW  Elec       q    Type
REMARK                         _______ _______ _______ _____ _____    ______ ____
ROOT
ATOM      1  C   LIG    1       24.265 -29.859   6.502  0.00  0.00    +0.239 A 
ATOM      2  C   LIG    1       24.857 -31.068   6.186  0.00  0.00    +0.100 A 
ATOM      3  C   LIG    1       24.937 -32.024   7.196  0.00  0.00    +0.087 A 
ATOM      4  C   LIG    1       25.532 -33.233   6.730  0.00  0.00    +0.036 A 
ATOM      5  C   LIG    1       25.923 -33.153   5.412  0.00  0.00    +0.048 A 
ATOM      6  N   LIG    1       24.478 -31.820   8.458  0.00  0.00    -0.213 NA
ATOM      7  C   LIG    1       23.987 -30.605   8.698  0.00  0.00    +0.223 A 
ATOM      8  S   LIG    1       25.522 -31.644   4.716  0.00  0.00    -0.090 S 
ATOM      9  N   LIG    1       23.927 -29.637   7.782  0.00  0.00    -0.178 NA
ENDROOT
BRANCH   7  10
ATOM     10  N   LIG    1       23.415 -30.368   9.950  0.00  0.00    -0.283 N 
ATOM     11  H   LIG    1       22.452 -30.663   9.990  0.00  0.00    +0.155 HD
BRANCH  10  12
ATOM     12  C   LIG    1       23.971 -29.771  11.089  0.00  0.00    +0.034 A 
ATOM     13  C   LIG    1       25.345 -29.594  11.258  0.00  0.00    +0.025 A 
ATOM     14  C   LIG    1       25.883 -28.873  12.332  0.00  0.00    +0.025 A 
ATOM     15  C   LIG    1       25.078 -28.315  13.326  0.00  0.00    +0.030 A 
ATOM     16  C   LIG    1       23.693 -28.480  13.134  0.00  0.00    +0.025 A 
ATOM     17  C   LIG    1       23.149 -29.188  12.046  0.00  0.00    +0.025 A 
BRANCH  15  18
ATOM     18  N   LIG    1       25.616 -27.569  14.387  0.00  0.00    -0.328 N 
ATOM     19  C   LIG    1       26.976 -27.010  14.229  0.00  0.00    +0.120 C 
ATOM     20  C   LIG    1       26.918 -25.731  13.360  0.00  0.00    +0.103 C 
ATOM     21  N   LIG    1       26.033 -24.663  13.885  0.00  0.00    -0.302 NA
ATOM     22  C   LIG    1       26.661 -23.949  14.992  0.00  0.00    +0.105 C 
ATOM     23  C   LIG    1       24.715 -25.230  14.274  0.00  0.00    +0.103 C 
ATOM     24  C   LIG    1       24.750 -26.566  15.067  0.00  0.00    +0.120 C 
ENDBRANCH  15  18
ENDBRANCH  10  12
ENDBRANCH   7  10
BRANCH   1  25
ATOM     25  O   LIG    1       24.032 -28.870   5.551  0.00  0.00    -0.437 OA
BRANCH  25  28
ATOM     26  C   LIG    1       24.620 -25.187   5.940  0.00  0.00    +0.037 A 
ATOM     27  C   LIG    1       23.949 -26.400   5.751  0.00  0.00    +0.069 A 
ATOM     28  C   LIG    1       24.623 -27.626   5.701  0.00  0.00    +0.132 A 
ATOM     29  C   LIG    1       26.017 -27.613   5.754  0.00  0.00    +0.046 A 
ATOM     30  C   LIG    1       26.706 -26.400   5.877  0.00  0.00    +0.005 A 
ATOM     31  C   LIG    1       26.007 -25.192   5.983  0.00  0.00    +0.023 A 
BRANCH  26  33
ATOM     32  C   LIG    1       24.053 -22.934   6.870  0.00  0.00    +0.240 C 
ATOM     33  N   LIG    1       23.810 -24.042   6.091  0.00  0.00    -0.282 N 
ATOM     34  H   LIG    1       22.942 -24.042   5.568  0.00  0.00    +0.155 HD
ATOM     35  O   LIG    1       25.039 -22.702   7.560  0.00  0.00    -0.271 OA
BRANCH  32  37
ATOM     36  C   LIG    1       23.284 -20.649   6.531  0.00  0.00    +0.013 C 
ATOM     37  C   LIG    1       22.975 -21.936   6.729  0.00  0.00    +0.060 C 
ENDBRANCH  32  37
ENDBRANCH  26  33
ENDBRANCH  25  28
ENDBRANCH   1  25
TORSDOF 7
ENDMDL
MODEL 9
REMARK VINA RESULT:      -8.7      5.150      8.959
REMARK  Name = *****
REMARK                            x       y       z     vdW  Elec       q    Type
REMARK                         _______ _______ _______ _____ _____    ______ ____
ROOT
ATOM      1  C   LIG    1       24.359 -30.083   8.459  0.00  0.00    +0.239 A 
ATOM      2  C   LIG    1       25.397 -29.993   9.367  0.00  0.00    +0.100 A 
ATOM      3  C   LIG    1       26.275 -28.920   9.233  0.00  0.00    +0.087 A 
ATOM      4  C   LIG    1       27.272 -28.924  10.252  0.00  0.00    +0.036 A 
ATOM      5  C   LIG    1       27.158 -30.007  11.095  0.00  0.00    +0.048 A 
ATOM      6  N   LIG    1       26.163 -27.981   8.258  0.00  0.00    -0.213 NA
ATOM      7  C   LIG    1       25.180 -28.179   7.382  0.00  0.00    +0.223 A 
ATOM      8  S   LIG    1       25.815 -30.988  10.699  0.00  0.00    -0.090 S 
ATOM      9  N   LIG    1       24.338 -29.213   7.437  0.00  0.00    -0.178 NA
ENDROOT
BRANCH   7  10
ATOM     10  N   LIG    1       24.959 -27.196   6.415  0.00  0.00    -0.283 N 
ATOM     11  H   LIG    1       24.887 -27.586   5.488  0.00  0.00    +0.155 HD
BRANCH  10  12
ATOM     12  C   LIG    1       24.863 -25.805   6.557  0.00  0.00    +0.034 A 
ATOM     13  C   LIG    1       25.980 -24.973   6.632  0.00  0.00    +0.025 A 
ATOM     14  C   LIG    1       25.876 -23.575   6.634  0.00  0.00    +0.025 A 
ATOM     15  C   LIG    1       24.642 -22.925   6.598  0.00  0.00    +0.030 A 
ATOM     16  C   LIG    1       23.523 -23.774   6.500  0.00  0.00    +0.025 A 
ATOM     17  C   LIG    1       23.626 -25.177   6.479  0.00  0.00    +0.025 A 
BRANCH  15  18
ATOM     18  N   LIG    1       24.539 -21.525   6.572  0.00  0.00    -0.328 N 
ATOM     19  C   LIG    1       25.387 -20.780   5.616  0.00  0.00    +0.120 C 
ATOM     20  C   LIG    1       24.766 -20.852   4.201  0.00  0.00    +0.103 C 
ATOM     21  N   LIG    1       23.383 -20.327   4.102  0.00  0.00    -0.302 NA
ATOM     22  C   LIG    1       23.367 -18.868   4.097  0.00  0.00    +0.105 C 
ATOM     23  C   LIG    1       22.542 -20.882   5.196  0.00  0.00    +0.103 C 
ATOM     24  C   LIG    1       23.185 -20.906   6.611  0.00  0.00    +0.120 C 
ENDBRANCH  15  18
ENDBRANCH  10  12
ENDBRANCH   7  10
BRANCH   1  25
ATOM     25  O   LIG    1       23.361 -31.048   8.557  0.00  0.00    -0.437 OA
BRANCH  25  28
ATOM     26  C   LIG    1       21.317 -30.164  11.574  0.00  0.00    +0.037 A 
ATOM     27  C   LIG    1       22.132 -30.015  10.446  0.00  0.00    +0.069 A 
ATOM     28  C   LIG    1       22.582 -31.111   9.700  0.00  0.00    +0.132 A 
ATOM     29  C   LIG    1       22.273 -32.392  10.161  0.00  0.00    +0.046 A 
ATOM     30  C   LIG    1       21.514 -32.557  11.325  0.00  0.00    +0.005 A 
ATOM     31  C   LIG    1       21.026 -31.445  12.022  0.00  0.00    +0.023 A 
BRANCH  26  33
ATOM     32  C   LIG    1       21.566 -27.987  12.782  0.00  0.00    +0.240 C 
ATOM     33  N   LIG    1       20.837 -28.975  12.160  0.00  0.00    -0.282 N 
ATOM     34  H   LIG    1       19.833 -28.837  12.123  0.00  0.00    +0.155 HD
ATOM     35  O   LIG    1       22.782 -27.923  12.920  0.00  0.00    -0.271 OA
BRANCH  32  37
ATOM     36  C   LIG    1       19.597 -27.158  13.952  0.00  0.00    +0.013 C 
ATOM     37  C   LIG    1       20.693 -26.885  13.235  0.00  0.00    +0.060 C 
ENDBRANCH  32  37
ENDBRANCH  26  33
ENDBRANCH  25  28
ENDBRANCH   1  25
TORSDOF 7
ENDMDL
