MODEL 1
REMARK VINA RESULT:      -7.4      0.000      0.000
REMARK  Name = *****
REMARK                            x       y       z     vdW  Elec       q    Type
REMARK                         _______ _______ _______ _____ _____    ______ ____
ROOT
ATOM      1  C   LIG    1       27.190 -20.664   6.595  0.00  0.00    +0.101 C 
ENDROOT
BRANCH   1   2
ATOM      2  C   LIG    1       27.628 -20.577   8.083  0.00  0.00    +0.101 C 
BRANCH   2   3
ATOM      3  N   LIG    1       29.027 -20.227   8.366  0.00  0.00    -0.280 NA
BRANCH   3   4
ATOM      4  C   LIG    1       30.023 -21.198   7.850  0.00  0.00    +0.212 C 
BRANCH   4   5
ATOM      5  P   LIG    1       31.169 -21.829   9.083  0.00  0.00    +0.342 P 
ATOM      6  O   LIG    1       30.615 -22.289  10.373  0.00  0.00    -0.258 OA
BRANCH   5   7
ATOM      7  O   LIG    1       32.270 -20.691   9.359  0.00  0.00    -0.323 OA
ATOM      8  H   LIG    1       32.906 -20.975  10.032  0.00  0.00    +0.220 HD
ENDBRANCH   5   7
BRANCH   5   9
ATOM      9  O   LIG    1       32.155 -22.910   8.397  0.00  0.00    -0.323 OA
ATOM     10  H   LIG    1       32.666 -22.533   7.678  0.00  0.00    +0.220 HD
ENDBRANCH   5   9
ENDBRANCH   4   5
ENDBRANCH   3   4
BRANCH   3  11
ATOM     11  C   LIG    1       29.367 -18.821   8.016  0.00  0.00    +0.212 C 
BRANCH  11  12
ATOM     12  P   LIG    1       30.454 -18.004   9.211  0.00  0.00    +0.342 P 
ATOM     13  O   LIG    1       30.651 -18.676  10.528  0.00  0.00    -0.258 OA
BRANCH  12  14
ATOM     14  O   LIG    1       31.878 -17.792   8.493  0.00  0.00    -0.323 OA
ATOM     15  H   LIG    1       31.960 -18.262   7.643  0.00  0.00    +0.220 HD
ENDBRANCH  12  14
BRANCH  12  16
ATOM     16  O   LIG    1       29.957 -16.491   9.380  0.00  0.00    -0.323 OA
ATOM     17  H   LIG    1       30.573 -15.945   9.903  0.00  0.00    +0.220 HD
ENDBRANCH  12  16
ENDBRANCH  11  12
ENDBRANCH   3  11
ENDBRANCH   2   3
ENDBRANCH   1   2
BRANCH   1  18
ATOM     18  N   LIG    1       26.006 -21.534   6.350  0.00  0.00    -0.280 NA
BRANCH  18  19
ATOM     19  C   LIG    1       26.140 -22.823   7.094  0.00  0.00    +0.212 C 
BRANCH  19  20
ATOM     20  P   LIG    1       25.340 -24.231   6.300  0.00  0.00    +0.342 P 
ATOM     21  O   LIG    1       26.121 -25.508   6.338  0.00  0.00    -0.258 OA
BRANCH  20  22
ATOM     22  O   LIG    1       25.027 -23.771   4.796  0.00  0.00    -0.323 OA
ATOM     23  H   LIG    1       25.512 -22.941   4.604  0.00  0.00    +0.220 HD
ENDBRANCH  20  22
BRANCH  20  24
ATOM     24  O   LIG    1       23.859 -24.363   6.900  0.00  0.00    -0.323 OA
ATOM     25  H   LIG    1       23.817 -24.336   7.877  0.00  0.00    +0.220 HD
ENDBRANCH  20  24
ENDBRANCH  19  20
ENDBRANCH  18  19
BRANCH  18  26
ATOM     26  C   LIG    1       24.775 -20.827   6.845  0.00  0.00    +0.212 C 
BRANCH  26  28
ATOM     27  O   LIG    1       22.602 -19.485   5.649  0.00  0.00    -0.258 OA
ATOM     28  P   LIG    1       23.464 -20.706   5.615  0.00  0.00    +0.342 P 
BRANCH  28  29
ATOM     29  O   LIG    1       22.579 -22.036   5.773  0.00  0.00    -0.323 OA
ATOM     30  H   LIG    1       21.620 -21.853   5.806  0.00  0.00    +0.220 HD
ENDBRANCH  28  29
BRANCH  28  31
ATOM     31  O   LIG    1       24.118 -20.936   4.171  0.00  0.00    -0.323 OA
ATOM     32  H   LIG    1       23.984 -21.834   3.816  0.00  0.00    +0.220 HD
ENDBRANCH  28  31
ENDBRANCH  26  28
ENDBRANCH  18  26
ENDBRANCH   1  18
TORSDOF 19
ENDMDL
MODEL 2
REMARK VINA RESULT:      -7.4      0.799      7.307
REMARK  Name = *****
REMARK                            x       y       z     vdW  Elec       q    Type
REMARK                         _______ _______ _______ _____ _____    ______ ____
ROOT
ATOM      1  C   LIG    1       27.648 -20.396   7.941  0.00  0.00    +0.101 C 
ENDROOT
BRANCH   1   2
ATOM      2  C   LIG    1       27.463 -21.585   6.959  0.00  0.00    +0.101 C 
BRANCH   2   3
ATOM      3  N   LIG    1       26.091 -21.957   6.585  0.00  0.00    -0.280 NA
BRANCH   3   4
ATOM      4  C   LIG    1       25.501 -23.043   7.406  0.00  0.00    +0.212 C 
BRANCH   4   5
ATOM      5  P   LIG    1       24.970 -24.488   6.476  0.00  0.00    +0.342 P 
ATOM      6  O   LIG    1       25.630 -25.778   6.762  0.00  0.00    -0.258 OA
BRANCH   5   7
ATOM      7  O   LIG    1       25.130 -24.150   4.912  0.00  0.00    -0.323 OA
ATOM      8  H   LIG    1       24.412 -23.579   4.602  0.00  0.00    +0.220 HD
ENDBRANCH   5   7
BRANCH   5   9
ATOM      9  O   LIG    1       23.358 -24.582   6.504  0.00  0.00    -0.323 OA
ATOM     10  H   LIG    1       22.948 -23.751   6.752  0.00  0.00    +0.220 HD
ENDBRANCH   5   9
ENDBRANCH   4   5
ENDBRANCH   3   4
BRANCH   3  11
ATOM     11  C   LIG    1       25.179 -20.790   6.445  0.00  0.00    +0.212 C 
BRANCH  11  12
ATOM     12  P   LIG    1       24.705 -20.424   4.737  0.00  0.00    +0.342 P 
ATOM     13  O   LIG    1       23.776 -19.277   4.514  0.00  0.00    -0.258 OA
BRANCH  12  14
ATOM     14  O   LIG    1       26.061 -20.191   3.905  0.00  0.00    -0.323 OA
ATOM     15  H   LIG    1       26.258 -20.907   3.271  0.00  0.00    +0.220 HD
ENDBRANCH  12  14
BRANCH  12  16
ATOM     16  O   LIG    1       24.156 -21.775   4.074  0.00  0.00    -0.323 OA
ATOM     17  H   LIG    1       23.183 -21.814   4.041  0.00  0.00    +0.220 HD
ENDBRANCH  12  16
ENDBRANCH  11  12
ENDBRANCH   3  11
ENDBRANCH   2   3
ENDBRANCH   1   2
BRANCH   1  18
ATOM     18  N   LIG    1       29.043 -20.211   8.428  0.00  0.00    -0.280 NA
BRANCH  18  19
ATOM     19  C   LIG    1       29.924 -21.311   7.931  0.00  0.00    +0.212 C 
BRANCH  19  20
ATOM     20  P   LIG    1       31.140 -21.895   9.128  0.00  0.00    +0.342 P 
ATOM     21  O   LIG    1       30.606 -22.138  10.506  0.00  0.00    -0.258 OA
BRANCH  20  22
ATOM     22  O   LIG    1       32.316 -20.804   9.131  0.00  0.00    -0.323 OA
ATOM     23  H   LIG    1       32.362 -20.381  10.013  0.00  0.00    +0.220 HD
ENDBRANCH  20  22
BRANCH  20  24
ATOM     24  O   LIG    1       31.890 -23.161   8.494  0.00  0.00    -0.323 OA
ATOM     25  H   LIG    1       31.990 -23.918   9.107  0.00  0.00    +0.220 HD
ENDBRANCH  20  24
ENDBRANCH  19  20
ENDBRANCH  18  19
BRANCH  18  26
ATOM     26  C   LIG    1       29.572 -18.906   7.900  0.00  0.00    +0.212 C 
BRANCH  26  28
ATOM     27  O   LIG    1       29.924 -16.612   9.502  0.00  0.00    -0.258 OA
ATOM     28  P   LIG    1       30.484 -17.944   9.121  0.00  0.00    +0.342 P 
BRANCH  28  29
ATOM     29  O   LIG    1       31.976 -17.795   8.548  0.00  0.00    -0.323 OA
ATOM     30  H   LIG    1       32.636 -17.619   9.246  0.00  0.00    +0.220 HD
ENDBRANCH  28  29
BRANCH  28  31
ATOM     31  O   LIG    1       30.731 -18.876  10.400  0.00  0.00    -0.323 OA
ATOM     32  H   LIG    1       30.999 -18.385  11.199  0.00  0.00    +0.220 HD
ENDBRANCH  28  31
ENDBRANCH  26  28
ENDBRANCH  18  26
ENDBRANCH   1  18
TORSDOF 19
ENDMDL
MODEL 3
REMARK VINA RESULT:      -7.0      0.911      2.074
REMARK  Name = *****
REMARK                            x       y       z     vdW  Elec       q    Type
REMARK                         _______ _______ _______ _____ _____    ______ ____
ROOT
ATOM      1  C   LIG    1       27.012 -21.763   7.889  0.00  0.00    +0.101 C 
ENDROOT
BRANCH   1   2
ATOM      2  C   LIG    1       27.592 -20.325   7.977  0.00  0.00    +0.101 C 
BRANCH   2   3
ATOM      3  N   LIG    1       29.027 -20.181   8.257  0.00  0.00    -0.280 NA
BRANCH   3   4
ATOM      4  C   LIG    1       29.851 -21.356   7.883  0.00  0.00    +0.212 C 
BRANCH   4   5
ATOM      5  P   LIG    1       31.192 -21.730   9.021  0.00  0.00    +0.342 P 
ATOM      6  O   LIG    1       32.296 -20.754   9.136  0.00  0.00    -0.258 OA
BRANCH   5   7
ATOM      7  O   LIG    1       31.796 -23.163   8.614  0.00  0.00    -0.323 OA
ATOM      8  H   LIG    1       32.330 -23.534   9.331  0.00  0.00    +0.220 HD
ENDBRANCH   5   7
BRANCH   5   9
ATOM      9  O   LIG    1       30.578 -22.162  10.451  0.00  0.00    -0.323 OA
ATOM     10  H   LIG    1       31.084 -21.812  11.186  0.00  0.00    +0.220 HD
ENDBRANCH   5   9
ENDBRANCH   4   5
ENDBRANCH   3   4
BRANCH   3  11
ATOM     11  C   LIG    1       29.601 -18.901   7.759  0.00  0.00    +0.212 C 
BRANCH  11  12
ATOM     12  P   LIG    1       30.480 -17.945   9.019  0.00  0.00    +0.342 P 
ATOM     13  O   LIG    1       29.898 -16.628   9.410  0.00  0.00    -0.258 OA
BRANCH  12  14
ATOM     14  O   LIG    1       30.618 -18.882  10.319  0.00  0.00    -0.323 OA
ATOM     15  H   LIG    1       29.888 -18.775  10.956  0.00  0.00    +0.220 HD
ENDBRANCH  12  14
BRANCH  12  16
ATOM     16  O   LIG    1       32.010 -17.811   8.563  0.00  0.00    -0.323 OA
ATOM     17  H   LIG    1       32.392 -18.657   8.264  0.00  0.00    +0.220 HD
ENDBRANCH  12  16
ENDBRANCH  11  12
ENDBRANCH   3  11
ENDBRANCH   2   3
ENDBRANCH   1   2
BRANCH   1  18
ATOM     18  N   LIG    1       25.995 -21.953   6.817  0.00  0.00    -0.280 NA
BRANCH  18  19
ATOM     19  C   LIG    1       24.905 -22.863   7.282  0.00  0.00    +0.212 C 
BRANCH  19  20
ATOM     20  P   LIG    1       24.769 -24.403   6.354  0.00  0.00    +0.342 P 
ATOM     21  O   LIG    1       23.498 -25.163   6.570  0.00  0.00    -0.258 OA
BRANCH  20  22
ATOM     22  O   LIG    1       26.056 -25.274   6.754  0.00  0.00    -0.323 OA
ATOM     23  H   LIG    1       25.901 -25.701   7.621  0.00  0.00    +0.220 HD
ENDBRANCH  20  22
BRANCH  20  24
ATOM     24  O   LIG    1       25.075 -24.083   4.814  0.00  0.00    -0.323 OA
ATOM     25  H   LIG    1       25.839 -24.570   4.446  0.00  0.00    +0.220 HD
ENDBRANCH  20  24
ENDBRANCH  19  20
ENDBRANCH  18  19
BRANCH  18  26
ATOM     26  C   LIG    1       25.387 -20.618   6.484  0.00  0.00    +0.212 C 
BRANCH  26  28
ATOM     27  O   LIG    1       24.281 -21.602   4.084  0.00  0.00    -0.258 OA
ATOM     28  P   LIG    1       24.942 -20.437   4.747  0.00  0.00    +0.342 P 
BRANCH  28  29
ATOM     29  O   LIG    1       26.292 -20.031   3.980  0.00  0.00    -0.323 OA
ATOM     30  H   LIG    1       26.287 -20.290   3.039  0.00  0.00    +0.220 HD
ENDBRANCH  28  29
BRANCH  28  31
ATOM     31  O   LIG    1       24.080 -19.096   4.595  0.00  0.00    -0.323 OA
ATOM     32  H   LIG    1       24.393 -18.361   5.154  0.00  0.00    +0.220 HD
ENDBRANCH  28  31
ENDBRANCH  26  28
ENDBRANCH  18  26
ENDBRANCH   1  18
TORSDOF 19
ENDMDL
MODEL 4
REMARK VINA RESULT:      -6.9      1.418      1.599
REMARK  Name = *****
REMARK                            x       y       z     vdW  Elec       q    Type
REMARK                         _______ _______ _______ _____ _____    ______ ____
ROOT
ATOM      1  C   LIG    1       26.140 -20.588   7.404  0.00  0.00    +0.101 C 
ENDROOT
BRANCH   1   2
ATOM      2  C   LIG    1       27.308 -21.246   8.189  0.00  0.00    +0.101 C 
BRANCH   2   3
ATOM      3  N   LIG    1       28.680 -20.874   7.815  0.00  0.00    -0.280 NA
BRANCH   3   4
ATOM      4  C   LIG    1       29.661 -21.985   7.881  0.00  0.00    +0.212 C 
BRANCH   4   5
ATOM      5  P   LIG    1       30.957 -21.774   9.110  0.00  0.00    +0.342 P 
ATOM      6  O   LIG    1       30.641 -22.103  10.515  0.00  0.00    -0.258 OA
BRANCH   5   7
ATOM      7  O   LIG    1       31.469 -20.252   9.027  0.00  0.00    -0.323 OA
ATOM      8  H   LIG    1       31.185 -19.746   9.802  0.00  0.00    +0.220 HD
ENDBRANCH   5   7
BRANCH   5   9
ATOM      9  O   LIG    1       32.314 -22.477   8.585  0.00  0.00    -0.323 OA
ATOM     10  H   LIG    1       32.827 -22.858   9.299  0.00  0.00    +0.220 HD
ENDBRANCH   5   9
ENDBRANCH   4   5
ENDBRANCH   3   4
BRANCH   3  11
ATOM     11  C   LIG    1       28.760 -20.119   6.535  0.00  0.00    +0.212 C 
BRANCH  11  12
ATOM     12  P   LIG    1       30.032 -18.832   6.515  0.00  0.00    +0.342 P 
ATOM     13  O   LIG    1       31.446 -19.268   6.317  0.00  0.00    -0.258 OA
BRANCH  12  14
ATOM     14  O   LIG    1       29.626 -17.777   5.371  0.00  0.00    -0.323 OA
ATOM     15  H   LIG    1       29.220 -16.962   5.718  0.00  0.00    +0.220 HD
ENDBRANCH  12  14
BRANCH  12  16
ATOM     16  O   LIG    1       29.861 -17.944   7.837  0.00  0.00    -0.323 OA
ATOM     17  H   LIG    1       29.721 -16.998   7.644  0.00  0.00    +0.220 HD
ENDBRANCH  12  16
ENDBRANCH  11  12
ENDBRANCH   3  11
ENDBRANCH   2   3
ENDBRANCH   1   2
BRANCH   1  18
ATOM     18  N   LIG    1       25.213 -21.554   6.753  0.00  0.00    -0.280 NA
BRANCH  18  19
ATOM     19  C   LIG    1       25.329 -22.902   7.387  0.00  0.00    +0.212 C 
BRANCH  19  20
ATOM     20  P   LIG    1       24.738 -24.264   6.364  0.00  0.00    +0.342 P 
ATOM     21  O   LIG    1       25.411 -25.579   6.609  0.00  0.00    -0.258 OA
BRANCH  20  22
ATOM     22  O   LIG    1       24.914 -23.782   4.844  0.00  0.00    -0.323 OA
ATOM     23  H   LIG    1       24.153 -23.218   4.593  0.00  0.00    +0.220 HD
ENDBRANCH  20  22
BRANCH  20  24
ATOM     24  O   LIG    1       23.141 -24.323   6.490  0.00  0.00    -0.323 OA
ATOM     25  H   LIG    1       22.801 -24.127   7.386  0.00  0.00    +0.220 HD
ENDBRANCH  20  24
ENDBRANCH  19  20
ENDBRANCH  18  19
BRANCH  18  26
ATOM     26  C   LIG    1       23.801 -21.067   6.932  0.00  0.00    +0.212 C 
BRANCH  26  28
ATOM     27  O   LIG    1       22.405 -19.274   5.261  0.00  0.00    -0.258 OA
ATOM     28  P   LIG    1       22.977 -20.650   5.384  0.00  0.00    +0.342 P 
BRANCH  28  29
ATOM     29  O   LIG    1       21.840 -21.763   5.170  0.00  0.00    -0.323 OA
ATOM     30  H   LIG    1       20.956 -21.462   5.452  0.00  0.00    +0.220 HD
ENDBRANCH  28  29
BRANCH  28  31
ATOM     31  O   LIG    1       23.979 -20.990   4.182  0.00  0.00    -0.323 OA
ATOM     32  H   LIG    1       24.325 -21.902   4.203  0.00  0.00    +0.220 HD
ENDBRANCH  28  31
ENDBRANCH  26  28
ENDBRANCH  18  26
ENDBRANCH   1  18
TORSDOF 19
ENDMDL
MODEL 5
REMARK VINA RESULT:      -6.8      1.668      3.349
REMARK  Name = *****
REMARK                            x       y       z     vdW  Elec       q    Type
REMARK                         _______ _______ _______ _____ _____    ______ ____
ROOT
ATOM      1  C   LIG    1       26.240 -21.890   8.356  0.00  0.00    +0.101 C 
ENDROOT
BRANCH   1   2
ATOM      2  C   LIG    1       26.922 -20.530   8.038  0.00  0.00    +0.101 C 
BRANCH   2   3
ATOM      3  N   LIG    1       28.374 -20.528   7.814  0.00  0.00    -0.280 NA
BRANCH   3   4
ATOM      4  C   LIG    1       29.068 -21.764   8.249  0.00  0.00    +0.212 C 
BRANCH   4   5
ATOM      5  P   LIG    1       30.611 -21.492   9.133  0.00  0.00    +0.342 P 
ATOM      6  O   LIG    1       30.915 -22.367  10.283  0.00  0.00    -0.258 OA
BRANCH   5   7
ATOM      7  O   LIG    1       30.635 -19.959   9.618  0.00  0.00    -0.323 OA
ATOM      8  H   LIG    1       31.365 -19.798  10.232  0.00  0.00    +0.220 HD
ENDBRANCH   5   7
BRANCH   5   9
ATOM      9  O   LIG    1       31.826 -21.393   8.074  0.00  0.00    -0.323 OA
ATOM     10  H   LIG    1       32.664 -21.664   8.453  0.00  0.00    +0.220 HD
ENDBRANCH   5   9
ENDBRANCH   4   5
ENDBRANCH   3   4
BRANCH   3  11
ATOM     11  C   LIG    1       28.759 -20.113   6.438  0.00  0.00    +0.212 C 
BRANCH  11  12
ATOM     12  P   LIG    1       29.989 -18.786   6.383  0.00  0.00    +0.342 P 
ATOM     13  O   LIG    1       31.411 -19.179   6.161  0.00  0.00    -0.258 OA
BRANCH  12  14
ATOM     14  O   LIG    1       29.528 -17.754   5.239  0.00  0.00    -0.323 OA
ATOM     15  H   LIG    1       29.957 -16.881   5.305  0.00  0.00    +0.220 HD
ENDBRANCH  12  14
BRANCH  12  16
ATOM     16  O   LIG    1       29.814 -17.893   7.702  0.00  0.00    -0.323 OA
ATOM     17  H   LIG    1       30.445 -17.150   7.744  0.00  0.00    +0.220 HD
ENDBRANCH  12  16
ENDBRANCH  11  12
ENDBRANCH   3  11
ENDBRANCH   2   3
ENDBRANCH   1   2
BRANCH   1  18
ATOM     18  N   LIG    1       25.380 -22.419   7.262  0.00  0.00    -0.280 NA
BRANCH  18  19
ATOM     19  C   LIG    1       25.499 -21.566   6.041  0.00  0.00    +0.212 C 
BRANCH  19  20
ATOM     20  P   LIG    1       23.970 -20.747   5.547  0.00  0.00    +0.342 P 
ATOM     21  O   LIG    1       23.105 -20.284   6.678  0.00  0.00    -0.258 OA
BRANCH  20  22
ATOM     22  O   LIG    1       23.200 -21.786   4.598  0.00  0.00    -0.323 OA
ATOM     23  H   LIG    1       23.638 -21.811   3.723  0.00  0.00    +0.220 HD
ENDBRANCH  20  22
BRANCH  20  24
ATOM     24  O   LIG    1       24.343 -19.589   4.504  0.00  0.00    -0.323 OA
ATOM     25  H   LIG    1       24.109 -18.687   4.804  0.00  0.00    +0.220 HD
ENDBRANCH  20  24
ENDBRANCH  19  20
ENDBRANCH  18  19
BRANCH  18  26
ATOM     26  C   LIG    1       25.836 -23.809   6.915  0.00  0.00    +0.212 C 
BRANCH  26  28
ATOM     27  O   LIG    1       24.599 -26.292   6.408  0.00  0.00    -0.258 OA
ATOM     28  P   LIG    1       24.559 -24.821   6.145  0.00  0.00    +0.342 P 
BRANCH  28  29
ATOM     29  O   LIG    1       24.639 -24.519   4.571  0.00  0.00    -0.323 OA
ATOM     30  H   LIG    1       24.190 -23.689   4.320  0.00  0.00    +0.220 HD
ENDBRANCH  28  29
BRANCH  28  31
ATOM     31  O   LIG    1       23.136 -24.187   6.514  0.00  0.00    -0.323 OA
ATOM     32  H   LIG    1       22.622 -24.716   7.153  0.00  0.00    +0.220 HD
ENDBRANCH  28  31
ENDBRANCH  26  28
ENDBRANCH  18  26
ENDBRANCH   1  18
TORSDOF 19
ENDMDL
MODEL 6
REMARK VINA RESULT:      -6.7      0.797      3.004
REMARK  Name = *****
REMARK                            x       y       z     vdW  Elec       q    Type
REMARK                         _______ _______ _______ _____ _____    ______ ____
ROOT
ATOM      1  C   LIG    1       26.806 -20.270   7.135  0.00  0.00    +0.101 C 
ENDROOT
BRANCH   1   2
ATOM      2  C   LIG    1       27.675 -20.896   8.260  0.00  0.00    +0.101 C 
BRANCH   2   3
ATOM      3  N   LIG    1       29.035 -20.370   8.449  0.00  0.00    -0.280 NA
BRANCH   3   4
ATOM      4  C   LIG    1       30.112 -21.241   7.918  0.00  0.00    +0.212 C 
BRANCH   4   5
ATOM      5  P   LIG    1       31.228 -21.903   9.163  0.00  0.00    +0.342 P 
ATOM      6  O   LIG    1       30.677 -22.194  10.503  0.00  0.00    -0.258 OA
BRANCH   5   7
ATOM      7  O   LIG    1       32.461 -20.882   9.310  0.00  0.00    -0.323 OA
ATOM      8  H   LIG    1       33.273 -21.260   8.944  0.00  0.00    +0.220 HD
ENDBRANCH   5   7
BRANCH   5   9
ATOM      9  O   LIG    1       32.056 -23.141   8.538  0.00  0.00    -0.323 OA
ATOM     10  H   LIG    1       32.511 -22.903   7.728  0.00  0.00    +0.220 HD
ENDBRANCH   5   9
ENDBRANCH   4   5
ENDBRANCH   3   4
BRANCH   3  11
ATOM     11  C   LIG    1       29.185 -18.953   8.021  0.00  0.00    +0.212 C 
BRANCH  11  12
ATOM     12  P   LIG    1       30.378 -18.008   9.000  0.00  0.00    +0.342 P 
ATOM     13  O   LIG    1       30.006 -16.612   9.374  0.00  0.00    -0.258 OA
BRANCH  12  14
ATOM     14  O   LIG    1       30.686 -18.860  10.329  0.00  0.00    -0.323 OA
ATOM     15  H   LIG    1       30.262 -19.738  10.336  0.00  0.00    +0.220 HD
ENDBRANCH  12  14
BRANCH  12  16
ATOM     16  O   LIG    1       31.793 -18.070   8.252  0.00  0.00    -0.323 OA
ATOM     17  H   LIG    1       32.149 -17.187   8.040  0.00  0.00    +0.220 HD
ENDBRANCH  12  16
ENDBRANCH  11  12
ENDBRANCH   3  11
ENDBRANCH   2   3
ENDBRANCH   1   2
BRANCH   1  18
ATOM     18  N   LIG    1       25.741 -21.168   6.607  0.00  0.00    -0.280 NA
BRANCH  18  19
ATOM     19  C   LIG    1       25.422 -20.826   5.188  0.00  0.00    +0.212 C 
BRANCH  19  20
ATOM     20  P   LIG    1       23.718 -20.304   4.909  0.00  0.00    +0.342 P 
ATOM     21  O   LIG    1       23.564 -19.041   4.119  0.00  0.00    -0.258 OA
BRANCH  20  22
ATOM     22  O   LIG    1       23.052 -20.180   6.363  0.00  0.00    -0.323 OA
ATOM     23  H   LIG    1       22.235 -20.720   6.391  0.00  0.00    +0.220 HD
ENDBRANCH  20  22
BRANCH  20  24
ATOM     24  O   LIG    1       22.912 -21.548   4.300  0.00  0.00    -0.323 OA
ATOM     25  H   LIG    1       23.269 -22.423   4.556  0.00  0.00    +0.220 HD
ENDBRANCH  20  24
ENDBRANCH  19  20
ENDBRANCH  18  19
BRANCH  18  26
ATOM     26  C   LIG    1       26.238 -22.586   6.652  0.00  0.00    +0.212 C 
BRANCH  26  28
ATOM     27  O   LIG    1       25.191 -25.200   6.817  0.00  0.00    -0.258 OA
ATOM     28  P   LIG    1       24.962 -23.813   6.310  0.00  0.00    +0.342 P 
BRANCH  28  29
ATOM     29  O   LIG    1       24.758 -23.812   4.717  0.00  0.00    -0.323 OA
ATOM     30  H   LIG    1       23.894 -23.449   4.445  0.00  0.00    +0.220 HD
ENDBRANCH  28  29
BRANCH  28  31
ATOM     31  O   LIG    1       23.560 -23.220   6.806  0.00  0.00    -0.323 OA
ATOM     32  H   LIG    1       22.806 -23.462   6.236  0.00  0.00    +0.220 HD
ENDBRANCH  28  31
ENDBRANCH  26  28
ENDBRANCH  18  26
ENDBRANCH   1  18
TORSDOF 19
ENDMDL
MODEL 7
REMARK VINA RESULT:      -6.6      0.837      7.848
REMARK  Name = *****
REMARK                            x       y       z     vdW  Elec       q    Type
REMARK                         _______ _______ _______ _____ _____    ______ ____
ROOT
ATOM      1  C   LIG    1       27.635 -20.415   7.857  0.00  0.00    +0.101 C 
ENDROOT
BRANCH   1   2
ATOM      2  C   LIG    1       27.366 -21.817   7.245  0.00  0.00    +0.101 C 
BRANCH   2   3
ATOM      3  N   LIG    1       25.973 -22.280   7.178  0.00  0.00    -0.280 NA
BRANCH   3   4
ATOM      4  C   LIG    1       25.246 -21.874   5.950  0.00  0.00    +0.212 C 
BRANCH   4   5
ATOM      5  P   LIG    1       23.713 -20.980   6.242  0.00  0.00    +0.342 P 
ATOM      6  O   LIG    1       23.392 -20.589   7.630  0.00  0.00    -0.258 OA
BRANCH   5   7
ATOM      7  O   LIG    1       22.508 -21.864   5.651  0.00  0.00    -0.323 OA
ATOM      8  H   LIG    1       21.654 -21.432   5.797  0.00  0.00    +0.220 HD
ENDBRANCH   5   7
BRANCH   5   9
ATOM      9  O   LIG    1       23.601 -19.752   5.198  0.00  0.00    -0.323 OA
ATOM     10  H   LIG    1       24.276 -19.087   5.343  0.00  0.00    +0.220 HD
ENDBRANCH   5   9
ENDBRANCH   4   5
ENDBRANCH   3   4
BRANCH   3  11
ATOM     11  C   LIG    1       25.816 -23.728   7.480  0.00  0.00    +0.212 C 
BRANCH  11  12
ATOM     12  P   LIG    1       24.871 -24.645   6.238  0.00  0.00    +0.342 P 
ATOM     13  O   LIG    1       25.129 -24.320   4.804  0.00  0.00    -0.258 OA
BRANCH  12  14
ATOM     14  O   LIG    1       25.137 -26.210   6.494  0.00  0.00    -0.323 OA
ATOM     15  H   LIG    1       25.050 -26.757   5.692  0.00  0.00    +0.220 HD
ENDBRANCH  12  14
BRANCH  12  16
ATOM     16  O   LIG    1       23.317 -24.524   6.607  0.00  0.00    -0.323 OA
ATOM     17  H   LIG    1       22.772 -24.218   5.860  0.00  0.00    +0.220 HD
ENDBRANCH  12  16
ENDBRANCH  11  12
ENDBRANCH   3  11
ENDBRANCH   2   3
ENDBRANCH   1   2
BRANCH   1  18
ATOM     18  N   LIG    1       29.006 -20.238   8.411  0.00  0.00    -0.280 NA
BRANCH  18  19
ATOM     19  C   LIG    1       29.922 -21.300   7.899  0.00  0.00    +0.212 C 
BRANCH  19  20
ATOM     20  P   LIG    1       31.087 -21.937   9.119  0.00  0.00    +0.342 P 
ATOM     21  O   LIG    1       30.489 -22.279  10.448  0.00  0.00    -0.258 OA
BRANCH  20  22
ATOM     22  O   LIG    1       32.236 -20.825   9.254  0.00  0.00    -0.323 OA
ATOM     23  H   LIG    1       32.832 -21.064   9.994  0.00  0.00    +0.220 HD
ENDBRANCH  20  22
BRANCH  20  24
ATOM     24  O   LIG    1       31.899 -23.144   8.446  0.00  0.00    -0.323 OA
ATOM     25  H   LIG    1       31.413 -23.609   7.736  0.00  0.00    +0.220 HD
ENDBRANCH  20  24
ENDBRANCH  19  20
ENDBRANCH  18  19
BRANCH  18  26
ATOM     26  C   LIG    1       29.537 -18.901   7.972  0.00  0.00    +0.212 C 
BRANCH  26  28
ATOM     27  O   LIG    1       30.657 -18.735  10.555  0.00  0.00    -0.258 OA
ATOM     28  P   LIG    1       30.534 -18.070   9.222  0.00  0.00    +0.342 P 
BRANCH  28  29
ATOM     29  O   LIG    1       29.920 -16.594   9.373  0.00  0.00    -0.323 OA
ATOM     30  H   LIG    1       30.605 -15.908   9.492  0.00  0.00    +0.220 HD
ENDBRANCH  28  29
BRANCH  28  31
ATOM     31  O   LIG    1       31.966 -17.749   8.580  0.00  0.00    -0.323 OA
ATOM     32  H   LIG    1       32.424 -16.994   8.994  0.00  0.00    +0.220 HD
ENDBRANCH  28  31
ENDBRANCH  26  28
ENDBRANCH  18  26
ENDBRANCH   1  18
TORSDOF 19
ENDMDL
MODEL 8
REMARK VINA RESULT:      -6.4      1.989      7.077
REMARK  Name = *****
REMARK                            x       y       z     vdW  Elec       q    Type
REMARK                         _______ _______ _______ _____ _____    ______ ____
ROOT
ATOM      1  C   LIG    1       27.295 -21.044   8.118  0.00  0.00    +0.101 C 
ENDROOT
BRANCH   1   2
ATOM      2  C   LIG    1       26.090 -20.424   7.357  0.00  0.00    +0.101 C 
BRANCH   2   3
ATOM      3  N   LIG    1       25.201 -21.336   6.623  0.00  0.00    -0.280 NA
BRANCH   3   4
ATOM      4  C   LIG    1       24.770 -22.530   7.391  0.00  0.00    +0.212 C 
BRANCH   4   5
ATOM      5  P   LIG    1       24.616 -24.035   6.419  0.00  0.00    +0.342 P 
ATOM      6  O   LIG    1       25.424 -25.205   6.820  0.00  0.00    -0.258 OA
BRANCH   5   7
ATOM      7  O   LIG    1       24.944 -23.667   4.889  0.00  0.00    -0.323 OA
ATOM      8  H   LIG    1       25.289 -24.435   4.411  0.00  0.00    +0.220 HD
ENDBRANCH   5   7
BRANCH   5   9
ATOM      9  O   LIG    1       23.052 -24.386   6.217  0.00  0.00    -0.323 OA
ATOM     10  H   LIG    1       22.498 -23.983   6.888  0.00  0.00    +0.220 HD
ENDBRANCH   5   9
ENDBRANCH   4   5
ENDBRANCH   3   4
BRANCH   3  11
ATOM     11  C   LIG    1       24.062 -20.643   5.960  0.00  0.00    +0.212 C 
BRANCH  11  12
ATOM     12  P   LIG    1       24.359 -20.231   4.223  0.00  0.00    +0.342 P 
ATOM     13  O   LIG    1       23.751 -18.971   3.704  0.00  0.00    -0.258 OA
BRANCH  12  14
ATOM     14  O   LIG    1       25.952 -20.193   4.007  0.00  0.00    -0.323 OA
ATOM     15  H   LIG    1       26.425 -20.916   4.459  0.00  0.00    +0.220 HD
ENDBRANCH  12  14
BRANCH  12  16
ATOM     16  O   LIG    1       23.951 -21.501   3.335  0.00  0.00    -0.323 OA
ATOM     17  H   LIG    1       24.722 -22.015   3.031  0.00  0.00    +0.220 HD
ENDBRANCH  12  16
ENDBRANCH  11  12
ENDBRANCH   3  11
ENDBRANCH   2   3
ENDBRANCH   1   2
BRANCH   1  18
ATOM     18  N   LIG    1       28.610 -20.422   7.801  0.00  0.00    -0.280 NA
BRANCH  18  19
ATOM     19  C   LIG    1       29.730 -21.288   8.278  0.00  0.00    +0.212 C 
BRANCH  19  20
ATOM     20  P   LIG    1       31.242 -20.396   8.692  0.00  0.00    +0.342 P 
ATOM     21  O   LIG    1       31.938 -19.756   7.531  0.00  0.00    -0.258 OA
BRANCH  20  22
ATOM     22  O   LIG    1       32.187 -21.455   9.440  0.00  0.00    -0.323 OA
ATOM     23  H   LIG    1       31.834 -21.627  10.337  0.00  0.00    +0.220 HD
ENDBRANCH  20  22
BRANCH  20  24
ATOM     24  O   LIG    1       30.907 -19.379   9.884  0.00  0.00    -0.323 OA
ATOM     25  H   LIG    1       29.970 -19.383  10.164  0.00  0.00    +0.220 HD
ENDBRANCH  20  24
ENDBRANCH  19  20
ENDBRANCH  18  19
BRANCH  18  26
ATOM     26  C   LIG    1       28.729 -20.273   6.310  0.00  0.00    +0.212 C 
BRANCH  26  28
ATOM     27  O   LIG    1       29.545 -17.628   6.849  0.00  0.00    -0.258 OA
ATOM     28  P   LIG    1       29.342 -18.661   5.788  0.00  0.00    +0.342 P 
BRANCH  28  29
ATOM     29  O   LIG    1       28.320 -18.136   4.666  0.00  0.00    -0.323 OA
ATOM     30  H   LIG    1       27.475 -18.625   4.664  0.00  0.00    +0.220 HD
ENDBRANCH  28  29
BRANCH  28  31
ATOM     31  O   LIG    1       30.668 -18.893   4.920  0.00  0.00    -0.323 OA
ATOM     32  H   LIG    1       30.667 -18.421   4.066  0.00  0.00    +0.220 HD
ENDBRANCH  28  31
ENDBRANCH  26  28
ENDBRANCH  18  26
ENDBRANCH   1  18
TORSDOF 19
ENDMDL
MODEL 9
REMARK VINA RESULT:      -6.1      0.943      7.721
REMARK  Name = *****
REMARK                            x       y       z     vdW  Elec       q    Type
REMARK                         _______ _______ _______ _____ _____    ______ ____
ROOT
ATOM      1  C   LIG    1       27.960 -19.904   7.642  0.00  0.00    +0.101 C 
ENDROOT
BRANCH   1   2
ATOM      2  C   LIG    1       27.585 -20.530   6.271  0.00  0.00    +0.101 C 
BRANCH   2   3
ATOM      3  N   LIG    1       26.349 -21.321   6.194  0.00  0.00    -0.280 NA
BRANCH   3   4
ATOM      4  C   LIG    1       26.236 -22.392   7.214  0.00  0.00    +0.212 C 
BRANCH   4   5
ATOM      5  P   LIG    1       25.363 -23.866   6.667  0.00  0.00    +0.342 P 
ATOM      6  O   LIG    1       25.906 -25.181   7.064  0.00  0.00    -0.258 OA
BRANCH   5   7
ATOM      7  O   LIG    1       25.252 -23.804   5.064  0.00  0.00    -0.323 OA
ATOM      8  H   LIG    1       24.349 -23.990   4.769  0.00  0.00    +0.220 HD
ENDBRANCH   5   7
BRANCH   5   9
ATOM      9  O   LIG    1       23.788 -23.708   6.990  0.00  0.00    -0.323 OA
ATOM     10  H   LIG    1       23.623 -23.091   7.705  0.00  0.00    +0.220 HD
ENDBRANCH   5   9
ENDBRANCH   4   5
ENDBRANCH   3   4
BRANCH   3  11
ATOM     11  C   LIG    1       25.119 -20.488   6.104  0.00  0.00    +0.212 C 
BRANCH  11  12
ATOM     12  P   LIG    1       24.487 -20.282   4.421  0.00  0.00    +0.342 P 
ATOM     13  O   LIG    1       23.502 -19.185   4.188  0.00  0.00    -0.258 OA
BRANCH  12  14
ATOM     14  O   LIG    1       25.758 -20.082   3.455  0.00  0.00    -0.323 OA
ATOM     15  H   LIG    1       26.063 -20.908   3.036  0.00  0.00    +0.220 HD
ENDBRANCH  12  14
BRANCH  12  16
ATOM     16  O   LIG    1       23.932 -21.700   3.922  0.00  0.00    -0.323 OA
ATOM     17  H   LIG    1       24.164 -22.431   4.524  0.00  0.00    +0.220 HD
ENDBRANCH  12  16
ENDBRANCH  11  12
ENDBRANCH   3  11
ENDBRANCH   2   3
ENDBRANCH   1   2
BRANCH   1  18
ATOM     18  N   LIG    1       29.400 -20.028   8.004  0.00  0.00    -0.280 NA
BRANCH  18  19
ATOM     19  C   LIG    1       29.679 -19.333   9.296  0.00  0.00    +0.212 C 
BRANCH  19  20
ATOM     20  P   LIG    1       30.811 -17.935   9.164  0.00  0.00    +0.342 P 
ATOM     21  O   LIG    1       31.444 -17.757   7.819  0.00  0.00    -0.258 OA
BRANCH  20  22
ATOM     22  O   LIG    1       31.911 -18.148  10.313  0.00  0.00    -0.323 OA
ATOM     23  H   LIG    1       32.762 -17.762  10.022  0.00  0.00    +0.220 HD
ENDBRANCH  20  22
BRANCH  20  24
ATOM     24  O   LIG    1       30.051 -16.629   9.698  0.00  0.00    -0.323 OA
ATOM     25  H   LIG    1       30.640 -15.874   9.897  0.00  0.00    +0.220 HD
ENDBRANCH  20  24
ENDBRANCH  19  20
ENDBRANCH  18  19
BRANCH  18  26
ATOM     26  C   LIG    1       29.733 -21.485   8.168  0.00  0.00    +0.212 C 
BRANCH  26  28
ATOM     27  O   LIG    1       32.284 -20.740   9.114  0.00  0.00    -0.258 OA
ATOM     28  P   LIG    1       31.215 -21.784   9.151  0.00  0.00    +0.342 P 
BRANCH  28  29
ATOM     29  O   LIG    1       31.787 -23.206   8.674  0.00  0.00    -0.323 OA
ATOM     30  H   LIG    1       32.010 -23.795   9.420  0.00  0.00    +0.220 HD
ENDBRANCH  28  29
BRANCH  28  31
ATOM     31  O   LIG    1       30.756 -22.116  10.649  0.00  0.00    -0.323 OA
ATOM     32  H   LIG    1       31.022 -23.004  10.954  0.00  0.00    +0.220 HD
ENDBRANCH  28  31
ENDBRANCH  26  28
ENDBRANCH  18  26
ENDBRANCH   1  18
TORSDOF 19
ENDMDL
