MODEL 1
REMARK VINA RESULT:      -7.8      0.000      0.000
REMARK  Name = *****
REMARK                            x       y       z     vdW  Elec       q    Type
REMARK                         _______ _______ _______ _____ _____    ______ ____
ROOT
ATOM      1  C   LIG    1       26.645 -22.139   7.038  0.00  0.00    +0.027 C 
ATOM      2  C   LIG    1       25.266 -22.778   7.251  0.00  0.00    +0.086 C 
ATOM      3  N   LIG    1       25.008 -23.950   6.366  0.00  0.00    -0.298 NA
ATOM      4  C   LIG    1       26.005 -25.009   6.520  0.00  0.00    +0.105 C 
ATOM      5  C   LIG    1       23.660 -24.482   6.671  0.00  0.00    +0.112 C 
ATOM      6  C   LIG    1       22.574 -23.403   6.575  0.00  0.00    +0.176 C 
ATOM      7  O   LIG    1       22.839 -22.304   7.454  0.00  0.00    -0.369 OA
ATOM      8  C   LIG    1       24.123 -21.701   7.182  0.00  0.00    +0.165 C 
ENDROOT
BRANCH   8   9
ATOM      9  C   LIG    1       24.010 -20.780   5.974  0.00  0.00    -0.017 A 
ATOM     10  C   LIG    1       22.832 -20.028   5.809  0.00  0.00    +0.006 A 
ATOM     11  C   LIG    1       22.667 -19.175   4.716  0.00  0.00    +0.000 A 
ATOM     12  C   LIG    1       23.673 -19.067   3.761  0.00  0.00    +0.000 A 
ATOM     13  C   LIG    1       24.838 -19.817   3.895  0.00  0.00    +0.000 A 
ATOM     14  C   LIG    1       25.003 -20.670   4.990  0.00  0.00    +0.006 A 
ENDBRANCH   8   9
TORSDOF 1
ENDMDL
MODEL 2
REMARK VINA RESULT:      -7.3      2.012      4.392
REMARK  Name = *****
REMARK                            x       y       z     vdW  Elec       q    Type
REMARK                         _______ _______ _______ _____ _____    ______ ____
ROOT
ATOM      1  C   LIG    1       25.518 -20.468   4.517  0.00  0.00    +0.027 C 
ATOM      2  C   LIG    1       25.825 -20.230   6.002  0.00  0.00    +0.086 C 
ATOM      3  N   LIG    1       27.248 -20.488   6.366  0.00  0.00    -0.298 NA
ATOM      4  C   LIG    1       28.188 -19.676   5.594  0.00  0.00    +0.105 C 
ATOM      5  C   LIG    1       27.420 -20.215   7.811  0.00  0.00    +0.112 C 
ATOM      6  C   LIG    1       26.424 -21.002   8.673  0.00  0.00    +0.176 C 
ATOM      7  O   LIG    1       25.069 -20.715   8.314  0.00  0.00    -0.369 OA
ATOM      8  C   LIG    1       24.812 -21.003   6.923  0.00  0.00    +0.165 C 
ENDROOT
BRANCH   8   9
ATOM      9  C   LIG    1       24.601 -22.501   6.742  0.00  0.00    -0.017 A 
ATOM     10  C   LIG    1       23.286 -23.000   6.746  0.00  0.00    +0.006 A 
ATOM     11  C   LIG    1       23.031 -24.365   6.595  0.00  0.00    +0.000 A 
ATOM     12  C   LIG    1       24.089 -25.257   6.448  0.00  0.00    +0.000 A 
ATOM     13  C   LIG    1       25.399 -24.785   6.460  0.00  0.00    +0.000 A 
ATOM     14  C   LIG    1       25.653 -23.419   6.611  0.00  0.00    +0.006 A 
ENDBRANCH   8   9
TORSDOF 1
ENDMDL
MODEL 3
REMARK VINA RESULT:      -7.1      1.971      4.588
REMARK  Name = *****
REMARK                            x       y       z     vdW  Elec       q    Type
REMARK                         _______ _______ _______ _____ _____    ______ ____
ROOT
ATOM      1  C   LIG    1       25.446 -20.597   4.536  0.00  0.00    +0.027 C 
ATOM      2  C   LIG    1       25.738 -20.330   6.018  0.00  0.00    +0.086 C 
ATOM      3  N   LIG    1       27.165 -20.543   6.393  0.00  0.00    -0.298 NA
ATOM      4  C   LIG    1       28.087 -19.715   5.615  0.00  0.00    +0.105 C 
ATOM      5  C   LIG    1       27.322 -20.246   7.835  0.00  0.00    +0.112 C 
ATOM      6  C   LIG    1       26.344 -21.048   8.703  0.00  0.00    +0.176 C 
ATOM      7  O   LIG    1       24.983 -20.804   8.334  0.00  0.00    -0.369 OA
ATOM      8  C   LIG    1       24.742 -21.118   6.945  0.00  0.00    +0.165 C 
ENDROOT
BRANCH   8   9
ATOM      9  C   LIG    1       24.574 -22.624   6.783  0.00  0.00    -0.017 A 
ATOM     10  C   LIG    1       25.728 -23.420   6.658  0.00  0.00    +0.006 A 
ATOM     11  C   LIG    1       25.636 -24.804   6.497  0.00  0.00    +0.000 A 
ATOM     12  C   LIG    1       24.387 -25.416   6.447  0.00  0.00    +0.000 A 
ATOM     13  C   LIG    1       23.233 -24.644   6.550  0.00  0.00    +0.000 A 
ATOM     14  C   LIG    1       23.326 -23.258   6.711  0.00  0.00    +0.006 A 
ENDBRANCH   8   9
TORSDOF 1
ENDMDL
MODEL 4
REMARK VINA RESULT:      -7.0      6.148      8.034
REMARK  Name = *****
REMARK                            x       y       z     vdW  Elec       q    Type
REMARK                         _______ _______ _______ _____ _____    ______ ____
ROOT
ATOM      1  C   LIG    1       29.539 -18.256   5.973  0.00  0.00    +0.027 C 
ATOM      2  C   LIG    1       29.920 -19.586   6.637  0.00  0.00    +0.086 C 
ATOM      3  N   LIG    1       28.784 -20.251   7.337  0.00  0.00    -0.298 NA
ATOM      4  C   LIG    1       27.650 -20.518   6.452  0.00  0.00    +0.105 C 
ATOM      5  C   LIG    1       29.271 -21.520   7.923  0.00  0.00    +0.112 C 
ATOM      6  C   LIG    1       30.496 -21.311   8.824  0.00  0.00    +0.176 C 
ATOM      7  O   LIG    1       31.575 -20.693   8.116  0.00  0.00    -0.369 OA
ATOM      8  C   LIG    1       31.186 -19.421   7.553  0.00  0.00    +0.165 C 
ENDROOT
BRANCH   8   9
ATOM      9  C   LIG    1       31.212 -18.353   8.639  0.00  0.00    -0.017 A 
ATOM     10  C   LIG    1       32.351 -17.535   8.752  0.00  0.00    +0.006 A 
ATOM     11  C   LIG    1       32.437 -16.547   9.734  0.00  0.00    +0.000 A 
ATOM     12  C   LIG    1       31.387 -16.364  10.630  0.00  0.00    +0.000 A 
ATOM     13  C   LIG    1       30.259 -17.176  10.548  0.00  0.00    +0.000 A 
ATOM     14  C   LIG    1       30.175 -18.165   9.564  0.00  0.00    +0.006 A 
ENDBRANCH   8   9
TORSDOF 1
ENDMDL
MODEL 5
REMARK VINA RESULT:      -6.9      2.361      4.584
REMARK  Name = *****
REMARK                            x       y       z     vdW  Elec       q    Type
REMARK                         _______ _______ _______ _____ _____    ______ ____
ROOT
ATOM      1  C   LIG    1       25.072 -18.670   3.664  0.00  0.00    +0.027 C 
ATOM      2  C   LIG    1       24.214 -19.860   4.114  0.00  0.00    +0.086 C 
ATOM      3  N   LIG    1       23.057 -19.472   4.970  0.00  0.00    -0.298 NA
ATOM      4  C   LIG    1       22.162 -18.516   4.318  0.00  0.00    +0.105 C 
ATOM      5  C   LIG    1       22.305 -20.696   5.328  0.00  0.00    +0.112 C 
ATOM      6  C   LIG    1       23.202 -21.761   5.973  0.00  0.00    +0.176 C 
ATOM      7  O   LIG    1       24.288 -22.128   5.116  0.00  0.00    -0.369 OA
ATOM      8  C   LIG    1       25.098 -20.986   4.762  0.00  0.00    +0.165 C 
ENDROOT
BRANCH   8   9
ATOM      9  C   LIG    1       26.043 -20.653   5.910  0.00  0.00    -0.017 A 
ATOM     10  C   LIG    1       27.355 -20.247   5.606  0.00  0.00    +0.006 A 
ATOM     11  C   LIG    1       28.268 -19.939   6.616  0.00  0.00    +0.000 A 
ATOM     12  C   LIG    1       27.888 -20.042   7.951  0.00  0.00    +0.000 A 
ATOM     13  C   LIG    1       26.601 -20.461   8.273  0.00  0.00    +0.000 A 
ATOM     14  C   LIG    1       25.687 -20.769   7.261  0.00  0.00    +0.006 A 
ENDBRANCH   8   9
TORSDOF 1
ENDMDL
MODEL 6
REMARK VINA RESULT:      -6.7      1.690      5.022
REMARK  Name = *****
REMARK                            x       y       z     vdW  Elec       q    Type
REMARK                         _______ _______ _______ _____ _____    ______ ____
ROOT
ATOM      1  C   LIG    1       22.386 -23.089   6.736  0.00  0.00    +0.027 C 
ATOM      2  C   LIG    1       23.685 -22.300   6.952  0.00  0.00    +0.086 C 
ATOM      3  N   LIG    1       24.038 -21.408   5.810  0.00  0.00    -0.298 NA
ATOM      4  C   LIG    1       22.988 -20.438   5.502  0.00  0.00    +0.105 C 
ATOM      5  C   LIG    1       25.294 -20.698   6.139  0.00  0.00    +0.112 C 
ATOM      6  C   LIG    1       26.423 -21.664   6.522  0.00  0.00    +0.176 C 
ATOM      7  O   LIG    1       26.062 -22.488   7.635  0.00  0.00    -0.369 OA
ATOM      8  C   LIG    1       24.865 -23.251   7.368  0.00  0.00    +0.165 C 
ENDROOT
BRANCH   8   9
ATOM      9  C   LIG    1       25.212 -24.462   6.511  0.00  0.00    -0.017 A 
ATOM     10  C   LIG    1       25.887 -25.540   7.112  0.00  0.00    +0.006 A 
ATOM     11  C   LIG    1       26.240 -26.672   6.375  0.00  0.00    +0.000 A 
ATOM     12  C   LIG    1       25.934 -26.742   5.019  0.00  0.00    +0.000 A 
ATOM     13  C   LIG    1       25.283 -25.678   4.401  0.00  0.00    +0.000 A 
ATOM     14  C   LIG    1       24.929 -24.545   5.140  0.00  0.00    +0.006 A 
ENDBRANCH   8   9
TORSDOF 1
ENDMDL
MODEL 7
REMARK VINA RESULT:      -6.6      1.683      4.858
REMARK  Name = *****
REMARK                            x       y       z     vdW  Elec       q    Type
REMARK                         _______ _______ _______ _____ _____    ______ ____
ROOT
ATOM      1  C   LIG    1       22.584 -20.837   5.389  0.00  0.00    +0.027 C 
ATOM      2  C   LIG    1       23.997 -20.394   5.793  0.00  0.00    +0.086 C 
ATOM      3  N   LIG    1       24.938 -20.279   4.642  0.00  0.00    -0.298 NA
ATOM      4  C   LIG    1       24.470 -19.348   3.616  0.00  0.00    +0.105 C 
ATOM      5  C   LIG    1       26.255 -19.837   5.155  0.00  0.00    +0.112 C 
ATOM      6  C   LIG    1       26.778 -20.748   6.273  0.00  0.00    +0.176 C 
ATOM      7  O   LIG    1       25.863 -20.818   7.372  0.00  0.00    -0.369 OA
ATOM      8  C   LIG    1       24.563 -21.289   6.954  0.00  0.00    +0.165 C 
ENDROOT
BRANCH   8   9
ATOM      9  C   LIG    1       24.592 -22.806   6.809  0.00  0.00    -0.017 A 
ATOM     10  C   LIG    1       25.836 -23.461   6.844  0.00  0.00    +0.006 A 
ATOM     11  C   LIG    1       25.926 -24.848   6.705  0.00  0.00    +0.000 A 
ATOM     12  C   LIG    1       24.773 -25.604   6.517  0.00  0.00    +0.000 A 
ATOM     13  C   LIG    1       23.533 -24.972   6.460  0.00  0.00    +0.000 A 
ATOM     14  C   LIG    1       23.444 -23.583   6.599  0.00  0.00    +0.006 A 
ENDBRANCH   8   9
TORSDOF 1
ENDMDL
MODEL 8
REMARK VINA RESULT:      -6.6      1.268      1.720
REMARK  Name = *****
REMARK                            x       y       z     vdW  Elec       q    Type
REMARK                         _______ _______ _______ _____ _____    ______ ____
ROOT
ATOM      1  C   LIG    1       25.542 -20.264   8.408  0.00  0.00    +0.027 C 
ATOM      2  C   LIG    1       25.287 -21.661   7.828  0.00  0.00    +0.086 C 
ATOM      3  N   LIG    1       26.469 -22.242   7.130  0.00  0.00    -0.298 NA
ATOM      4  C   LIG    1       27.647 -22.340   7.992  0.00  0.00    +0.105 C 
ATOM      5  C   LIG    1       26.104 -23.586   6.627  0.00  0.00    +0.112 C 
ATOM      6  C   LIG    1       24.843 -23.557   5.755  0.00  0.00    +0.176 C 
ATOM      7  O   LIG    1       23.722 -23.016   6.461  0.00  0.00    -0.369 OA
ATOM      8  C   LIG    1       23.988 -21.681   6.944  0.00  0.00    +0.165 C 
ENDROOT
BRANCH   8   9
ATOM      9  C   LIG    1       23.822 -20.684   5.804  0.00  0.00    -0.017 A 
ATOM     10  C   LIG    1       22.608 -19.980   5.697  0.00  0.00    +0.006 A 
ATOM     11  C   LIG    1       22.395 -19.061   4.668  0.00  0.00    +0.000 A 
ATOM     12  C   LIG    1       23.388 -18.837   3.719  0.00  0.00    +0.000 A 
ATOM     13  C   LIG    1       24.588 -19.538   3.795  0.00  0.00    +0.000 A 
ATOM     14  C   LIG    1       24.801 -20.457   4.826  0.00  0.00    +0.006 A 
ENDBRANCH   8   9
TORSDOF 1
ENDMDL
MODEL 9
REMARK VINA RESULT:      -6.4      4.157      6.161
REMARK  Name = *****
REMARK                            x       y       z     vdW  Elec       q    Type
REMARK                         _______ _______ _______ _____ _____    ______ ____
ROOT
ATOM      1  C   LIG    1       30.416 -21.679   9.108  0.00  0.00    +0.027 C 
ATOM      2  C   LIG    1       30.336 -20.745   7.893  0.00  0.00    +0.086 C 
ATOM      3  N   LIG    1       30.291 -19.299   8.254  0.00  0.00    -0.298 NA
ATOM      4  C   LIG    1       31.443 -18.876   9.050  0.00  0.00    +0.105 C 
ATOM      5  C   LIG    1       30.226 -18.505   7.006  0.00  0.00    +0.112 C 
ATOM      6  C   LIG    1       29.064 -18.938   6.103  0.00  0.00    +0.176 C 
ATOM      7  O   LIG    1       29.149 -20.324   5.756  0.00  0.00    -0.369 OA
ATOM      8  C   LIG    1       29.170 -21.167   6.928  0.00  0.00    +0.165 C 
ENDROOT
BRANCH   8   9
ATOM      9  C   LIG    1       27.753 -21.331   7.464  0.00  0.00    -0.017 A 
ATOM     10  C   LIG    1       27.040 -22.499   7.135  0.00  0.00    +0.006 A 
ATOM     11  C   LIG    1       25.735 -22.700   7.588  0.00  0.00    +0.000 A 
ATOM     12  C   LIG    1       25.114 -21.731   8.371  0.00  0.00    +0.000 A 
ATOM     13  C   LIG    1       25.795 -20.560   8.691  0.00  0.00    +0.000 A 
ATOM     14  C   LIG    1       27.102 -20.359   8.237  0.00  0.00    +0.006 A 
ENDBRANCH   8   9
TORSDOF 1
ENDMDL
