MODEL 1
REMARK VINA RESULT:       3.2      0.000      0.000
REMARK  Name = *****
REMARK                            x       y       z     vdW  Elec       q    Type
REMARK                         _______ _______ _______ _____ _____    ______ ____
ROOT
ATOM      1  C   LIG    1       23.726 -13.689   3.318  0.00  0.00    +0.121 A 
ATOM      2  C   LIG    1       25.076 -13.782   2.963  0.00  0.00    +0.056 A 
ATOM      3  C   LIG    1       25.827 -14.933   3.305  0.00  0.00    +0.008 A 
ATOM      4  C   LIG    1       27.210 -15.270   3.203  0.00  0.00    -0.008 C 
ATOM      5  C   LIG    1       27.362 -16.535   3.764  0.00  0.00    +0.028 C 
ATOM      6  N   LIG    1       26.091 -17.051   4.062  0.00  0.00    -0.280 N 
ATOM      7  C   LIG    1       25.784 -18.393   4.434  0.00  0.00    +0.263 C 
ATOM      8  O   LIG    1       26.686 -19.052   4.955  0.00  0.00    -0.267 OA
ATOM      9  C   LIG    1       28.630 -17.315   3.942  0.00  0.00    +0.064 C 
ATOM     10  C   LIG    1       25.188 -15.989   3.958  0.00  0.00    +0.057 A 
ATOM     11  C   LIG    1       23.870 -15.853   4.421  0.00  0.00    +0.030 A 
ATOM     12  C   LIG    1       23.144 -14.712   4.059  0.00  0.00    +0.048 A 
ENDROOT
BRANCH   7  13
ATOM     13  C   LIG    1       24.493 -19.121   4.219  0.00  0.00    +0.040 A 
ATOM     14  C   LIG    1       24.440 -20.441   3.752  0.00  0.00    +0.015 A 
ATOM     15  C   LIG    1       23.211 -21.122   3.695  0.00  0.00    +0.021 A 
ATOM     16  C   LIG    1       22.040 -20.501   4.131  0.00  0.00    +0.041 A 
ATOM     17 CL   LIG    1       20.543 -21.349   4.082  0.00  0.00    -0.084 Cl
ATOM     18  C   LIG    1       22.081 -19.198   4.619  0.00  0.00    +0.021 A 
ATOM     19  C   LIG    1       23.303 -18.513   4.661  0.00  0.00    +0.015 A 
ENDBRANCH   7  13
BRANCH   1  21
ATOM     20  C   LIG    1       23.933 -11.447   2.564  0.00  0.00    +0.277 C 
ATOM     21  O   LIG    1       23.093 -12.541   2.918  0.00  0.00    -0.495 OA
ENDBRANCH   1  21
BRANCH   4  22
ATOM     22  C   LIG    1       28.286 -14.355   2.692  0.00  0.00    +0.158 C 
BRANCH  22  23
ATOM     23  C   LIG    1       28.263 -12.965   3.292  0.00  0.00    +0.312 C 
ATOM     24  O   LIG    1       27.621 -12.008   2.885  0.00  0.00    -0.251 OA
BRANCH  23  25
ATOM     25  O   LIG    1       29.031 -12.930   4.419  0.00  0.00    -0.453 OA
BRANCH  25  26
ATOM     26  C   LIG    1       28.376 -12.345   5.539  0.00  0.00    +0.352 C 
BRANCH  26  27
ATOM     27  C   LIG    1       27.053 -12.971   5.932  0.00  0.00    +0.343 C 
ATOM     28  O   LIG    1       26.962 -14.058   6.526  0.00  0.00    -0.247 OA
BRANCH  27  29
ATOM     29  O   LIG    1       25.960 -12.256   5.588  0.00  0.00    -0.478 OA
ATOM     30  H   LIG    1       26.077 -11.293   5.786  0.00  0.00    +0.295 HD
ENDBRANCH  27  29
ENDBRANCH  26  27
ENDBRANCH  25  26
ENDBRANCH  23  25
ENDBRANCH  22  23
ENDBRANCH   4  22
TORSDOF 8
ENDMDL
MODEL 2
REMARK VINA RESULT:       4.3      3.532      6.838
REMARK  Name = *****
REMARK                            x       y       z     vdW  Elec       q    Type
REMARK                         _______ _______ _______ _____ _____    ______ ____
ROOT
ATOM      1  C   LIG    1       21.756 -15.434   6.065  0.00  0.00    +0.121 A 
ATOM      2  C   LIG    1       22.025 -16.785   5.816  0.00  0.00    +0.056 A 
ATOM      3  C   LIG    1       23.081 -17.155   4.949  0.00  0.00    +0.008 A 
ATOM      4  C   LIG    1       23.518 -18.401   4.407  0.00  0.00    -0.008 C 
ATOM      5  C   LIG    1       24.587 -18.125   3.560  0.00  0.00    +0.028 C 
ATOM      6  N   LIG    1       24.922 -16.768   3.689  0.00  0.00    -0.280 N 
ATOM      7  C   LIG    1       26.090 -16.129   3.175  0.00  0.00    +0.263 C 
ATOM      8  O   LIG    1       26.634 -16.651   2.202  0.00  0.00    -0.267 OA
ATOM      9  C   LIG    1       25.364 -19.089   2.716  0.00  0.00    +0.064 C 
ATOM     10  C   LIG    1       23.877 -16.155   4.385  0.00  0.00    +0.057 A 
ATOM     11  C   LIG    1       23.539 -14.801   4.535  0.00  0.00    +0.030 A 
ATOM     12  C   LIG    1       22.499 -14.459   5.407  0.00  0.00    +0.048 A 
ENDROOT
BRANCH   7  13
ATOM     13  C   LIG    1       26.769 -14.909   3.718  0.00  0.00    +0.040 A 
ATOM     14  C   LIG    1       26.534 -14.428   5.013  0.00  0.00    +0.015 A 
ATOM     15  C   LIG    1       27.295 -13.360   5.519  0.00  0.00    +0.021 A 
ATOM     16  C   LIG    1       28.310 -12.789   4.749  0.00  0.00    +0.041 A 
ATOM     17 CL   LIG    1       29.254 -11.498   5.384  0.00  0.00    -0.084 Cl
ATOM     18  C   LIG    1       28.569 -13.272   3.470  0.00  0.00    +0.021 A 
ATOM     19  C   LIG    1       27.800 -14.326   2.958  0.00  0.00    +0.015 A 
ENDBRANCH   7  13
BRANCH   1  21
ATOM     20  C   LIG    1       20.309 -13.837   7.060  0.00  0.00    +0.277 C 
ATOM     21  O   LIG    1       20.725 -15.193   6.935  0.00  0.00    -0.495 OA
ENDBRANCH   1  21
BRANCH   4  22
ATOM     22  C   LIG    1       22.844 -19.725   4.638  0.00  0.00    +0.158 C 
BRANCH  22  23
ATOM     23  C   LIG    1       23.433 -20.538   5.771  0.00  0.00    +0.312 C 
ATOM     24  O   LIG    1       22.907 -20.768   6.850  0.00  0.00    -0.251 OA
BRANCH  23  25
ATOM     25  O   LIG    1       24.643 -21.048   5.401  0.00  0.00    -0.453 OA
BRANCH  25  26
ATOM     26  C   LIG    1       25.592 -21.094   6.461  0.00  0.00    +0.352 C 
BRANCH  26  27
ATOM     27  C   LIG    1       26.998 -20.650   6.109  0.00  0.00    +0.343 C 
ATOM     28  O   LIG    1       27.246 -19.607   5.481  0.00  0.00    -0.247 OA
BRANCH  27  29
ATOM     29  O   LIG    1       27.979 -21.476   6.532  0.00  0.00    -0.478 OA
ATOM     30  H   LIG    1       28.341 -22.021   5.789  0.00  0.00    +0.295 HD
ENDBRANCH  27  29
ENDBRANCH  26  27
ENDBRANCH  25  26
ENDBRANCH  23  25
ENDBRANCH  22  23
ENDBRANCH   4  22
TORSDOF 8
ENDMDL
MODEL 3
REMARK VINA RESULT:       5.6      1.980      4.380
REMARK  Name = *****
REMARK                            x       y       z     vdW  Elec       q    Type
REMARK                         _______ _______ _______ _____ _____    ______ ____
ROOT
ATOM      1  C   LIG    1       28.552 -19.412   5.922  0.00  0.00    +0.121 A 
ATOM      2  C   LIG    1       28.629 -18.036   5.683  0.00  0.00    +0.056 A 
ATOM      3  C   LIG    1       27.714 -17.412   4.801  0.00  0.00    +0.008 A 
ATOM      4  C   LIG    1       27.609 -16.093   4.264  0.00  0.00    -0.008 C 
ATOM      5  C   LIG    1       26.522 -16.093   3.395  0.00  0.00    +0.028 C 
ATOM      6  N   LIG    1       25.861 -17.326   3.503  0.00  0.00    -0.280 N 
ATOM      7  C   LIG    1       24.582 -17.655   2.961  0.00  0.00    +0.263 C 
ATOM      8  O   LIG    1       24.204 -17.009   1.983  0.00  0.00    -0.267 OA
ATOM      9  C   LIG    1       26.024 -14.962   2.547  0.00  0.00    +0.064 C 
ATOM     10  C   LIG    1       26.709 -18.182   4.211  0.00  0.00    +0.057 A 
ATOM     11  C   LIG    1       26.700 -19.578   4.353  0.00  0.00    +0.030 A 
ATOM     12  C   LIG    1       27.606 -20.171   5.240  0.00  0.00    +0.048 A 
ENDROOT
BRANCH   7  13
ATOM     13  C   LIG    1       23.613 -18.674   3.478  0.00  0.00    +0.040 A 
ATOM     14  C   LIG    1       23.909 -20.043   3.520  0.00  0.00    +0.015 A 
ATOM     15  C   LIG    1       23.018 -20.939   4.137  0.00  0.00    +0.021 A 
ATOM     16  C   LIG    1       21.849 -20.470   4.737  0.00  0.00    +0.041 A 
ATOM     17 CL   LIG    1       20.776 -21.570   5.512  0.00  0.00    -0.084 Cl
ATOM     18  C   LIG    1       21.554 -19.111   4.723  0.00  0.00    +0.021 A 
ATOM     19  C   LIG    1       22.433 -18.218   4.094  0.00  0.00    +0.015 A 
ENDBRANCH   7  13
BRANCH   1  21
ATOM     20  C   LIG    1       29.423 -21.307   7.058  0.00  0.00    +0.277 C 
ATOM     21  O   LIG    1       29.474 -19.906   6.808  0.00  0.00    -0.495 OA
ENDBRANCH   1  21
BRANCH   4  22
ATOM     22  C   LIG    1       28.583 -14.977   4.521  0.00  0.00    +0.158 C 
BRANCH  22  23
ATOM     23  C   LIG    1       27.965 -13.595   4.518  0.00  0.00    +0.312 C 
ATOM     24  O   LIG    1       28.405 -12.603   3.955  0.00  0.00    -0.251 OA
BRANCH  23  25
ATOM     25  O   LIG    1       26.782 -13.610   5.198  0.00  0.00    -0.453 OA
BRANCH  25  26
ATOM     26  C   LIG    1       25.980 -12.456   4.975  0.00  0.00    +0.352 C 
BRANCH  26  27
ATOM     27  C   LIG    1       24.841 -12.622   3.989  0.00  0.00    +0.343 C 
ATOM     28  O   LIG    1       24.790 -12.029   2.899  0.00  0.00    -0.247 OA
BRANCH  27  29
ATOM     29  O   LIG    1       23.868 -13.473   4.381  0.00  0.00    -0.478 OA
ATOM     30  H   LIG    1       23.679 -13.390   5.349  0.00  0.00    +0.295 HD
ENDBRANCH  27  29
ENDBRANCH  26  27
ENDBRANCH  25  26
ENDBRANCH  23  25
ENDBRANCH  22  23
ENDBRANCH   4  22
TORSDOF 8
ENDMDL
