MODEL 1
REMARK VINA RESULT:      -9.3      0.000      0.000
REMARK  Name = *****
REMARK                            x       y       z     vdW  Elec       q    Type
REMARK                         _______ _______ _______ _____ _____    ______ ____
ROOT
ATOM      1  C   LIG    1       29.294 -18.485   5.601  0.00  0.00    +0.027 C 
ATOM      2  C   LIG    1       29.612 -19.313   6.856  0.00  0.00    +0.083 C 
ENDROOT
BRANCH   2   3
ATOM      3  N   LIG    1       29.289 -20.756   6.624  0.00  0.00    -0.310 NA
ATOM      4  H   LIG    1       28.845 -20.825   5.704  0.00  0.00    +0.122 HD
BRANCH   3   5
ATOM      5  C   LIG    1       28.386 -21.316   7.635  0.00  0.00    +0.086 C 
BRANCH   5   6
ATOM      6  C   LIG    1       27.058 -20.554   7.799  0.00  0.00    +0.050 C 
BRANCH   6   7
ATOM      7  C   LIG    1       25.883 -21.477   7.518  0.00  0.00    -0.046 A 
ATOM      8  C   LIG    1       26.089 -22.836   7.243  0.00  0.00    +0.007 A 
ATOM      9  C   LIG    1       25.006 -23.666   6.933  0.00  0.00    +0.045 A 
ATOM     10  C   LIG    1       23.719 -23.142   6.898  0.00  0.00    +0.117 A 
ATOM     11  C   LIG    1       23.490 -21.802   7.178  0.00  0.00    +0.045 A 
ATOM     12  C   LIG    1       24.570 -20.976   7.499  0.00  0.00    +0.007 A 
BRANCH  10  13
ATOM     13  O   LIG    1       22.695 -23.984   6.574  0.00  0.00    -0.507 OA
ATOM     14  H   LIG    1       23.055 -24.878   6.466  0.00  0.00    +0.292 HD
ENDBRANCH  10  13
ENDBRANCH   6   7
ENDBRANCH   5   6
ENDBRANCH   3   5
ENDBRANCH   2   3
BRANCH   2  15
ATOM     15  C   LIG    1       31.061 -19.028   7.393  0.00  0.00    +0.161 C 
BRANCH  15  16
ATOM     16  C   LIG    1       31.107 -18.126   8.619  0.00  0.00    -0.018 A 
ATOM     17  C   LIG    1       32.233 -17.334   8.907  0.00  0.00    +0.010 A 
ATOM     18  C   LIG    1       32.293 -16.600  10.096  0.00  0.00    +0.046 A 
ATOM     19  C   LIG    1       31.235 -16.634  10.989  0.00  0.00    +0.117 A 
ATOM     20  C   LIG    1       30.088 -17.370  10.705  0.00  0.00    +0.046 A 
ATOM     21  C   LIG    1       30.030 -18.111   9.520  0.00  0.00    +0.010 A 
BRANCH  19  22
ATOM     22  O   LIG    1       31.355 -15.934  12.155  0.00  0.00    -0.507 OA
ATOM     23  H   LIG    1       31.187 -14.997  11.978  0.00  0.00    +0.292 HD
ENDBRANCH  19  22
ENDBRANCH  15  16
BRANCH  15  24
ATOM     24  O   LIG    1       31.718 -20.266   7.690  0.00  0.00    -0.386 OA
ATOM     25  H   LIG    1       32.438 -20.064   8.313  0.00  0.00    +0.210 HD
ENDBRANCH  15  24
ENDBRANCH   2  15
TORSDOF 9
ENDMDL
MODEL 2
REMARK VINA RESULT:      -9.3      0.064      1.055
REMARK  Name = *****
REMARK                            x       y       z     vdW  Elec       q    Type
REMARK                         _______ _______ _______ _____ _____    ______ ____
ROOT
ATOM      1  C   LIG    1       29.288 -18.460   5.627  0.00  0.00    +0.027 C 
ATOM      2  C   LIG    1       29.617 -19.319   6.858  0.00  0.00    +0.083 C 
ENDROOT
BRANCH   2   3
ATOM      3  N   LIG    1       29.302 -20.758   6.589  0.00  0.00    -0.310 NA
ATOM      4  H   LIG    1       28.871 -20.808   5.662  0.00  0.00    +0.122 HD
BRANCH   3   5
ATOM      5  C   LIG    1       28.389 -21.345   7.576  0.00  0.00    +0.086 C 
BRANCH   5   6
ATOM      6  C   LIG    1       27.065 -20.581   7.754  0.00  0.00    +0.050 C 
BRANCH   6   7
ATOM      7  C   LIG    1       25.888 -21.479   7.407  0.00  0.00    -0.046 A 
ATOM      8  C   LIG    1       24.587 -20.963   7.343  0.00  0.00    +0.007 A 
ATOM      9  C   LIG    1       23.504 -21.807   7.075  0.00  0.00    +0.045 A 
ATOM     10  C   LIG    1       23.718 -23.165   6.871  0.00  0.00    +0.117 A 
ATOM     11  C   LIG    1       24.999 -23.697   6.918  0.00  0.00    +0.045 A 
ATOM     12  C   LIG    1       26.081 -22.851   7.173  0.00  0.00    +0.007 A 
BRANCH  10  13
ATOM     13  O   LIG    1       22.630 -23.953   6.630  0.00  0.00    -0.507 OA
ATOM     14  H   LIG    1       22.924 -24.744   6.152  0.00  0.00    +0.292 HD
ENDBRANCH  10  13
ENDBRANCH   6   7
ENDBRANCH   5   6
ENDBRANCH   3   5
ENDBRANCH   2   3
BRANCH   2  15
ATOM     15  C   LIG    1       31.065 -19.038   7.397  0.00  0.00    +0.161 C 
BRANCH  15  16
ATOM     16  C   LIG    1       31.113 -18.135   8.622  0.00  0.00    -0.018 A 
ATOM     17  C   LIG    1       32.220 -17.306   8.881  0.00  0.00    +0.010 A 
ATOM     18  C   LIG    1       32.285 -16.570  10.069  0.00  0.00    +0.046 A 
ATOM     19  C   LIG    1       31.251 -16.638  10.988  0.00  0.00    +0.117 A 
ATOM     20  C   LIG    1       30.121 -17.410  10.732  0.00  0.00    +0.046 A 
ATOM     21  C   LIG    1       30.058 -18.153   9.549  0.00  0.00    +0.010 A 
BRANCH  19  22
ATOM     22  O   LIG    1       31.377 -15.934  12.151  0.00  0.00    -0.507 OA
ATOM     23  H   LIG    1       31.086 -15.022  12.000  0.00  0.00    +0.292 HD
ENDBRANCH  19  22
ENDBRANCH  15  16
BRANCH  15  24
ATOM     24  O   LIG    1       31.718 -20.278   7.696  0.00  0.00    -0.386 OA
ATOM     25  H   LIG    1       31.164 -20.741   8.350  0.00  0.00    +0.210 HD
ENDBRANCH  15  24
ENDBRANCH   2  15
TORSDOF 9
ENDMDL
MODEL 3
REMARK VINA RESULT:      -9.1      1.153      1.756
REMARK  Name = *****
REMARK                            x       y       z     vdW  Elec       q    Type
REMARK                         _______ _______ _______ _____ _____    ______ ____
ROOT
ATOM      1  C   LIG    1       29.369 -18.452   5.620  0.00  0.00    +0.027 C 
ATOM      2  C   LIG    1       29.635 -19.348   6.839  0.00  0.00    +0.083 C 
ENDROOT
BRANCH   2   3
ATOM      3  N   LIG    1       29.262 -20.766   6.536  0.00  0.00    -0.310 NA
ATOM      4  H   LIG    1       28.897 -20.788   5.580  0.00  0.00    +0.122 HD
BRANCH   3   5
ATOM      5  C   LIG    1       28.248 -21.306   7.449  0.00  0.00    +0.086 C 
BRANCH   5   6
ATOM      6  C   LIG    1       27.168 -20.295   7.873  0.00  0.00    +0.050 C 
BRANCH   6   7
ATOM      7  C   LIG    1       25.871 -20.566   7.128  0.00  0.00    -0.046 A 
ATOM      8  C   LIG    1       24.700 -20.897   7.825  0.00  0.00    +0.007 A 
ATOM      9  C   LIG    1       23.525 -21.197   7.128  0.00  0.00    +0.045 A 
ATOM     10  C   LIG    1       23.516 -21.167   5.739  0.00  0.00    +0.117 A 
ATOM     11  C   LIG    1       24.659 -20.830   5.028  0.00  0.00    +0.045 A 
ATOM     12  C   LIG    1       25.830 -20.519   5.724  0.00  0.00    +0.007 A 
BRANCH  10  13
ATOM     13  O   LIG    1       22.351 -21.484   5.101  0.00  0.00    -0.507 OA
ATOM     14  H   LIG    1       21.630 -20.981   5.509  0.00  0.00    +0.292 HD
ENDBRANCH  10  13
ENDBRANCH   6   7
ENDBRANCH   5   6
ENDBRANCH   3   5
ENDBRANCH   2   3
BRANCH   2  15
ATOM     15  C   LIG    1       31.084 -19.143   7.412  0.00  0.00    +0.161 C 
BRANCH  15  16
ATOM     16  C   LIG    1       31.140 -18.324   8.693  0.00  0.00    -0.018 A 
ATOM     17  C   LIG    1       30.104 -18.374   9.644  0.00  0.00    +0.010 A 
ATOM     18  C   LIG    1       30.129 -17.529  10.758  0.00  0.00    +0.046 A 
ATOM     19  C   LIG    1       31.184 -16.652  10.943  0.00  0.00    +0.117 A 
ATOM     20  C   LIG    1       32.247 -16.618  10.044  0.00  0.00    +0.046 A 
ATOM     21  C   LIG    1       32.219 -17.456   8.925  0.00  0.00    +0.010 A 
BRANCH  19  22
ATOM     22  O   LIG    1       31.145 -15.817  12.023  0.00  0.00    -0.507 OA
ATOM     23  H   LIG    1       30.556 -15.074  11.825  0.00  0.00    +0.292 HD
ENDBRANCH  19  22
ENDBRANCH  15  16
BRANCH  15  24
ATOM     24  O   LIG    1       31.699 -20.418   7.635  0.00  0.00    -0.386 OA
ATOM     25  H   LIG    1       31.083 -21.094   7.301  0.00  0.00    +0.210 HD
ENDBRANCH  15  24
ENDBRANCH   2  15
TORSDOF 9
ENDMDL
MODEL 4
REMARK VINA RESULT:      -9.0      3.610      5.661
REMARK  Name = *****
REMARK                            x       y       z     vdW  Elec       q    Type
REMARK                         _______ _______ _______ _____ _____    ______ ____
ROOT
ATOM      1  C   LIG    1       22.563 -19.236   4.923  0.00  0.00    +0.027 C 
ATOM      2  C   LIG    1       23.390 -20.345   5.591  0.00  0.00    +0.083 C 
ENDROOT
BRANCH   2   3
ATOM      3  N   LIG    1       22.585 -21.602   5.702  0.00  0.00    -0.310 NA
ATOM      4  H   LIG    1       21.597 -21.332   5.715  0.00  0.00    +0.122 HD
BRANCH   3   5
ATOM      5  C   LIG    1       22.886 -22.378   6.910  0.00  0.00    +0.086 C 
BRANCH   5   6
ATOM      6  C   LIG    1       22.616 -23.888   6.782  0.00  0.00    +0.050 C 
BRANCH   6   7
ATOM      7  C   LIG    1       23.902 -24.627   6.448  0.00  0.00    -0.046 A 
ATOM      8  C   LIG    1       23.869 -25.848   5.761  0.00  0.00    +0.007 A 
ATOM      9  C   LIG    1       25.054 -26.547   5.505  0.00  0.00    +0.045 A 
ATOM     10  C   LIG    1       26.270 -26.029   5.933  0.00  0.00    +0.117 A 
ATOM     11  C   LIG    1       26.328 -24.816   6.605  0.00  0.00    +0.045 A 
ATOM     12  C   LIG    1       25.146 -24.113   6.850  0.00  0.00    +0.007 A 
BRANCH  10  13
ATOM     13  O   LIG    1       27.398 -26.753   5.676  0.00  0.00    -0.507 OA
ATOM     14  H   LIG    1       27.648 -26.615   4.750  0.00  0.00    +0.292 HD
ENDBRANCH  10  13
ENDBRANCH   6   7
ENDBRANCH   5   6
ENDBRANCH   3   5
ENDBRANCH   2   3
BRANCH   2  15
ATOM     15  C   LIG    1       24.800 -20.509   4.917  0.00  0.00    +0.161 C 
BRANCH  15  16
ATOM     16  C   LIG    1       25.973 -20.345   5.874  0.00  0.00    -0.018 A 
ATOM     17  C   LIG    1       27.262 -20.026   5.408  0.00  0.00    +0.010 A 
ATOM     18  C   LIG    1       28.342 -19.989   6.296  0.00  0.00    +0.046 A 
ATOM     19  C   LIG    1       28.146 -20.247   7.642  0.00  0.00    +0.117 A 
ATOM     20  C   LIG    1       26.873 -20.516   8.137  0.00  0.00    +0.046 A 
ATOM     21  C   LIG    1       25.793 -20.561   7.249  0.00  0.00    +0.010 A 
BRANCH  19  22
ATOM     22  O   LIG    1       29.237 -20.240   8.464  0.00  0.00    -0.507 OA
ATOM     23  H   LIG    1       30.038 -20.190   7.922  0.00  0.00    +0.292 HD
ENDBRANCH  19  22
ENDBRANCH  15  16
BRANCH  15  24
ATOM     24  O   LIG    1       24.884 -21.789   4.278  0.00  0.00    -0.386 OA
ATOM     25  H   LIG    1       25.635 -22.260   4.682  0.00  0.00    +0.210 HD
ENDBRANCH  15  24
ENDBRANCH   2  15
TORSDOF 9
ENDMDL
MODEL 5
REMARK VINA RESULT:      -8.9      1.713      8.542
REMARK  Name = *****
REMARK                            x       y       z     vdW  Elec       q    Type
REMARK                         _______ _______ _______ _____ _____    ______ ____
ROOT
ATOM      1  C   LIG    1       27.537 -20.042   6.083  0.00  0.00    +0.027 C 
ATOM      2  C   LIG    1       27.434 -20.578   7.519  0.00  0.00    +0.083 C 
ENDROOT
BRANCH   2   3
ATOM      3  N   LIG    1       28.318 -19.790   8.435  0.00  0.00    -0.310 NA
ATOM      4  H   LIG    1       27.966 -18.830   8.448  0.00  0.00    +0.122 HD
BRANCH   3   5
ATOM      5  C   LIG    1       29.724 -19.780   8.014  0.00  0.00    +0.086 C 
BRANCH   5   6
ATOM      6  C   LIG    1       30.266 -18.391   7.633  0.00  0.00    +0.050 C 
BRANCH   6   7
ATOM      7  C   LIG    1       30.865 -17.707   8.851  0.00  0.00    -0.046 A 
ATOM      8  C   LIG    1       30.092 -17.476   9.997  0.00  0.00    +0.007 A 
ATOM      9  C   LIG    1       30.636 -16.798  11.093  0.00  0.00    +0.045 A 
ATOM     10  C   LIG    1       31.951 -16.351  11.047  0.00  0.00    +0.117 A 
ATOM     11  C   LIG    1       32.740 -16.578   9.928  0.00  0.00    +0.045 A 
ATOM     12  C   LIG    1       32.200 -17.266   8.839  0.00  0.00    +0.007 A 
BRANCH  10  13
ATOM     13  O   LIG    1       32.435 -15.679  12.132  0.00  0.00    -0.507 OA
ATOM     14  H   LIG    1       31.685 -15.347  12.648  0.00  0.00    +0.292 HD
ENDBRANCH  10  13
ENDBRANCH   6   7
ENDBRANCH   5   6
ENDBRANCH   3   5
ENDBRANCH   2   3
BRANCH   2  15
ATOM     15  C   LIG    1       25.940 -20.719   7.985  0.00  0.00    +0.161 C 
BRANCH  15  16
ATOM     16  C   LIG    1       25.267 -22.011   7.546  0.00  0.00    -0.018 A 
ATOM     17  C   LIG    1       26.009 -23.182   7.304  0.00  0.00    +0.010 A 
ATOM     18  C   LIG    1       25.379 -24.322   6.795  0.00  0.00    +0.046 A 
ATOM     19  C   LIG    1       24.017 -24.312   6.544  0.00  0.00    +0.117 A 
ATOM     20  C   LIG    1       23.251 -23.184   6.822  0.00  0.00    +0.046 A 
ATOM     21  C   LIG    1       23.880 -22.040   7.323  0.00  0.00    +0.010 A 
BRANCH  19  22
ATOM     22  O   LIG    1       23.454 -25.435   6.010  0.00  0.00    -0.507 OA
ATOM     23  H   LIG    1       23.353 -26.099   6.708  0.00  0.00    +0.292 HD
ENDBRANCH  19  22
ENDBRANCH  15  16
BRANCH  15  24
ATOM     24  O   LIG    1       25.867 -20.607   9.413  0.00  0.00    -0.386 OA
ATOM     25  H   LIG    1       26.778 -20.671   9.750  0.00  0.00    +0.210 HD
ENDBRANCH  15  24
ENDBRANCH   2  15
TORSDOF 9
ENDMDL
MODEL 6
REMARK VINA RESULT:      -8.6      2.680      4.319
REMARK  Name = *****
REMARK                            x       y       z     vdW  Elec       q    Type
REMARK                         _______ _______ _______ _____ _____    ______ ____
ROOT
ATOM      1  C   LIG    1       26.023 -20.515   8.486  0.00  0.00    +0.027 C 
ATOM      2  C   LIG    1       26.245 -20.836   7.000  0.00  0.00    +0.083 C 
ENDROOT
BRANCH   2   3
ATOM      3  N   LIG    1       24.948 -20.778   6.255  0.00  0.00    -0.310 NA
ATOM      4  H   LIG    1       24.237 -20.431   6.905  0.00  0.00    +0.122 HD
BRANCH   3   5
ATOM      5  C   LIG    1       24.524 -22.080   5.729  0.00  0.00    +0.086 C 
BRANCH   5   6
ATOM      6  C   LIG    1       24.064 -23.082   6.802  0.00  0.00    +0.050 C 
BRANCH   6   7
ATOM      7  C   LIG    1       24.612 -24.468   6.499  0.00  0.00    -0.046 A 
ATOM      8  C   LIG    1       25.984 -24.735   6.605  0.00  0.00    +0.007 A 
ATOM      9  C   LIG    1       26.485 -25.997   6.272  0.00  0.00    +0.045 A 
ATOM     10  C   LIG    1       25.621 -26.993   5.835  0.00  0.00    +0.117 A 
ATOM     11  C   LIG    1       24.257 -26.756   5.733  0.00  0.00    +0.045 A 
ATOM     12  C   LIG    1       23.755 -25.498   6.077  0.00  0.00    +0.007 A 
BRANCH  10  13
ATOM     13  O   LIG    1       26.157 -28.205   5.505  0.00  0.00    -0.507 OA
ATOM     14  H   LIG    1       25.534 -28.668   4.924  0.00  0.00    +0.292 HD
ENDBRANCH  10  13
ENDBRANCH   6   7
ENDBRANCH   5   6
ENDBRANCH   3   5
ENDBRANCH   2   3
BRANCH   2  15
ATOM     15  C   LIG    1       27.412 -19.982   6.385  0.00  0.00    +0.161 C 
BRANCH  15  16
ATOM     16  C   LIG    1       28.748 -20.145   7.096  0.00  0.00    -0.018 A 
ATOM     17  C   LIG    1       29.129 -21.370   7.674  0.00  0.00    +0.010 A 
ATOM     18  C   LIG    1       30.312 -21.461   8.415  0.00  0.00    +0.046 A 
ATOM     19  C   LIG    1       31.124 -20.351   8.570  0.00  0.00    +0.117 A 
ATOM     20  C   LIG    1       30.796 -19.139   7.967  0.00  0.00    +0.046 A 
ATOM     21  C   LIG    1       29.610 -19.044   7.232  0.00  0.00    +0.010 A 
BRANCH  19  22
ATOM     22  O   LIG    1       32.247 -20.477   9.336  0.00  0.00    -0.507 OA
ATOM     23  H   LIG    1       32.111 -20.008  10.173  0.00  0.00    +0.292 HD
ENDBRANCH  19  22
ENDBRANCH  15  16
BRANCH  15  24
ATOM     24  O   LIG    1       27.569 -20.307   4.998  0.00  0.00    -0.386 OA
ATOM     25  H   LIG    1       26.858 -20.932   4.771  0.00  0.00    +0.210 HD
ENDBRANCH  15  24
ENDBRANCH   2  15
TORSDOF 9
ENDMDL
MODEL 7
REMARK VINA RESULT:      -8.5      2.610      8.259
REMARK  Name = *****
REMARK                            x       y       z     vdW  Elec       q    Type
REMARK                         _______ _______ _______ _____ _____    ______ ____
ROOT
ATOM      1  C   LIG    1       23.389 -20.245   5.947  0.00  0.00    +0.027 C 
ATOM      2  C   LIG    1       24.072 -21.602   5.715  0.00  0.00    +0.083 C 
ENDROOT
BRANCH   2   3
ATOM      3  N   LIG    1       25.488 -21.405   5.272  0.00  0.00    -0.310 NA
ATOM      4  H   LIG    1       25.929 -22.328   5.238  0.00  0.00    +0.122 HD
BRANCH   3   5
ATOM      5  C   LIG    1       26.259 -20.538   6.170  0.00  0.00    +0.086 C 
BRANCH   5   6
ATOM      6  C   LIG    1       27.489 -19.878   5.520  0.00  0.00    +0.050 C 
BRANCH   6   7
ATOM      7  C   LIG    1       28.703 -20.024   6.423  0.00  0.00    -0.046 A 
ATOM      8  C   LIG    1       28.800 -21.089   7.329  0.00  0.00    +0.007 A 
ATOM      9  C   LIG    1       29.896 -21.185   8.192  0.00  0.00    +0.045 A 
ATOM     10  C   LIG    1       30.896 -20.220   8.153  0.00  0.00    +0.117 A 
ATOM     11  C   LIG    1       30.828 -19.163   7.256  0.00  0.00    +0.045 A 
ATOM     12  C   LIG    1       29.739 -19.074   6.385  0.00  0.00    +0.007 A 
BRANCH  10  13
ATOM     13  O   LIG    1       31.938 -20.344   9.026  0.00  0.00    -0.507 OA
ATOM     14  H   LIG    1       32.498 -21.080   8.734  0.00  0.00    +0.292 HD
ENDBRANCH  10  13
ENDBRANCH   6   7
ENDBRANCH   5   6
ENDBRANCH   3   5
ENDBRANCH   2   3
BRANCH   2  15
ATOM     15  C   LIG    1       23.879 -22.571   6.937  0.00  0.00    +0.161 C 
BRANCH  15  16
ATOM     16  C   LIG    1       24.459 -23.963   6.729  0.00  0.00    -0.018 A 
ATOM     17  C   LIG    1       25.825 -24.228   6.939  0.00  0.00    +0.010 A 
ATOM     18  C   LIG    1       26.352 -25.488   6.636  0.00  0.00    +0.046 A 
ATOM     19  C   LIG    1       25.529 -26.487   6.145  0.00  0.00    +0.117 A 
ATOM     20  C   LIG    1       24.165 -26.266   5.976  0.00  0.00    +0.046 A 
ATOM     21  C   LIG    1       23.638 -25.005   6.271  0.00  0.00    +0.010 A 
BRANCH  19  22
ATOM     22  O   LIG    1       26.096 -27.687   5.824  0.00  0.00    -0.507 OA
ATOM     23  H   LIG    1       25.628 -28.392   6.296  0.00  0.00    +0.292 HD
ENDBRANCH  19  22
ENDBRANCH  15  16
BRANCH  15  24
ATOM     24  O   LIG    1       24.454 -21.986   8.112  0.00  0.00    -0.386 OA
ATOM     25  H   LIG    1       24.459 -22.676   8.799  0.00  0.00    +0.210 HD
ENDBRANCH  15  24
ENDBRANCH   2  15
TORSDOF 9
ENDMDL
MODEL 8
REMARK VINA RESULT:      -8.4      2.956      7.693
REMARK  Name = *****
REMARK                            x       y       z     vdW  Elec       q    Type
REMARK                         _______ _______ _______ _____ _____    ______ ____
ROOT
ATOM      1  C   LIG    1       25.693 -25.119   5.911  0.00  0.00    +0.027 C 
ATOM      2  C   LIG    1       25.329 -24.114   7.015  0.00  0.00    +0.083 C 
ENDROOT
BRANCH   2   3
ATOM      3  N   LIG    1       26.401 -23.078   7.151  0.00  0.00    -0.310 NA
ATOM      4  H   LIG    1       27.300 -23.549   7.015  0.00  0.00    +0.122 HD
BRANCH   3   5
ATOM      5  C   LIG    1       26.400 -22.413   8.459  0.00  0.00    +0.086 C 
BRANCH   5   6
ATOM      6  C   LIG    1       26.211 -20.887   8.399  0.00  0.00    +0.050 C 
BRANCH   6   7
ATOM      7  C   LIG    1       27.287 -20.257   7.529  0.00  0.00    -0.046 A 
ATOM      8  C   LIG    1       28.507 -19.847   8.083  0.00  0.00    +0.007 A 
ATOM      9  C   LIG    1       29.470 -19.220   7.286  0.00  0.00    +0.045 A 
ATOM     10  C   LIG    1       29.217 -19.001   5.937  0.00  0.00    +0.117 A 
ATOM     11  C   LIG    1       28.021 -19.409   5.363  0.00  0.00    +0.045 A 
ATOM     12  C   LIG    1       27.065 -20.047   6.157  0.00  0.00    +0.007 A 
BRANCH  10  13
ATOM     13  O   LIG    1       30.178 -18.370   5.201  0.00  0.00    -0.507 OA
ATOM     14  H   LIG    1       30.686 -17.791   5.790  0.00  0.00    +0.292 HD
ENDBRANCH  10  13
ENDBRANCH   6   7
ENDBRANCH   5   6
ENDBRANCH   3   5
ENDBRANCH   2   3
BRANCH   2  15
ATOM     15  C   LIG    1       23.872 -23.554   6.838  0.00  0.00    +0.161 C 
BRANCH  15  16
ATOM     16  C   LIG    1       23.793 -22.256   6.046  0.00  0.00    -0.018 A 
ATOM     17  C   LIG    1       23.100 -21.135   6.540  0.00  0.00    +0.010 A 
ATOM     18  C   LIG    1       22.950 -19.994   5.744  0.00  0.00    +0.046 A 
ATOM     19  C   LIG    1       23.499 -19.954   4.474  0.00  0.00    +0.117 A 
ATOM     20  C   LIG    1       24.232 -21.030   3.981  0.00  0.00    +0.046 A 
ATOM     21  C   LIG    1       24.376 -22.175   4.771  0.00  0.00    +0.010 A 
BRANCH  19  22
ATOM     22  O   LIG    1       23.292 -18.835   3.719  0.00  0.00    -0.507 OA
ATOM     23  H   LIG    1       22.338 -18.690   3.627  0.00  0.00    +0.292 HD
ENDBRANCH  19  22
ENDBRANCH  15  16
BRANCH  15  24
ATOM     24  O   LIG    1       23.046 -24.544   6.212  0.00  0.00    -0.386 OA
ATOM     25  H   LIG    1       22.125 -24.339   6.452  0.00  0.00    +0.210 HD
ENDBRANCH  15  24
ENDBRANCH   2  15
TORSDOF 9
ENDMDL
MODEL 9
REMARK VINA RESULT:      -8.3      2.600      8.508
REMARK  Name = *****
REMARK                            x       y       z     vdW  Elec       q    Type
REMARK                         _______ _______ _______ _____ _____    ______ ____
ROOT
ATOM      1  C   LIG    1       23.575 -20.692   6.204  0.00  0.00    +0.027 C 
ATOM      2  C   LIG    1       24.393 -21.932   5.812  0.00  0.00    +0.083 C 
ENDROOT
BRANCH   2   3
ATOM      3  N   LIG    1       25.733 -21.526   5.281  0.00  0.00    -0.310 NA
ATOM      4  H   LIG    1       26.333 -22.355   5.298  0.00  0.00    +0.122 HD
BRANCH   3   5
ATOM      5  C   LIG    1       26.367 -20.459   6.064  0.00  0.00    +0.086 C 
BRANCH   5   6
ATOM      6  C   LIG    1       27.664 -19.902   5.451  0.00  0.00    +0.050 C 
BRANCH   6   7
ATOM      7  C   LIG    1       28.802 -19.989   6.455  0.00  0.00    -0.046 A 
ATOM      8  C   LIG    1       29.819 -19.025   6.472  0.00  0.00    +0.007 A 
ATOM      9  C   LIG    1       30.889 -19.143   7.365  0.00  0.00    +0.045 A 
ATOM     10  C   LIG    1       30.946 -20.221   8.240  0.00  0.00    +0.117 A 
ATOM     11  C   LIG    1       29.945 -21.182   8.250  0.00  0.00    +0.045 A 
ATOM     12  C   LIG    1       28.869 -21.057   7.367  0.00  0.00    +0.007 A 
BRANCH  10  13
ATOM     13  O   LIG    1       32.018 -20.305   9.081  0.00  0.00    -0.507 OA
ATOM     14  H   LIG    1       32.216 -21.242   9.234  0.00  0.00    +0.292 HD
ENDBRANCH  10  13
ENDBRANCH   6   7
ENDBRANCH   5   6
ENDBRANCH   3   5
ENDBRANCH   2   3
BRANCH   2  15
ATOM     15  C   LIG    1       24.423 -23.001   6.962  0.00  0.00    +0.161 C 
BRANCH  15  16
ATOM     16  C   LIG    1       24.802 -24.402   6.505  0.00  0.00    -0.018 A 
ATOM     17  C   LIG    1       23.833 -25.311   6.042  0.00  0.00    +0.010 A 
ATOM     18  C   LIG    1       24.194 -26.627   5.732  0.00  0.00    +0.046 A 
ATOM     19  C   LIG    1       25.510 -27.037   5.861  0.00  0.00    +0.117 A 
ATOM     20  C   LIG    1       26.497 -26.144   6.268  0.00  0.00    +0.046 A 
ATOM     21  C   LIG    1       26.137 -24.830   6.586  0.00  0.00    +0.010 A 
BRANCH  19  22
ATOM     22  O   LIG    1       25.807 -28.341   5.586  0.00  0.00    -0.507 OA
ATOM     23  H   LIG    1       26.769 -28.439   5.530  0.00  0.00    +0.292 HD
ENDBRANCH  19  22
ENDBRANCH  15  16
BRANCH  15  24
ATOM     24  O   LIG    1       25.326 -22.577   7.992  0.00  0.00    -0.386 OA
ATOM     25  H   LIG    1       26.162 -22.336   7.556  0.00  0.00    +0.210 HD
ENDBRANCH  15  24
ENDBRANCH   2  15
TORSDOF 9
ENDMDL
