MODEL 1
REMARK VINA RESULT:      -2.1      0.000      0.000
REMARK  Name = *****
REMARK                            x       y       z     vdW  Elec       q    Type
REMARK                         _______ _______ _______ _____ _____    ______ ____
ROOT
ATOM      1  C   LIG    1       26.679 -16.065   4.078  0.00  0.00    -0.017 C 
ATOM      2  C   LIG    1       25.413 -15.836   3.670  0.00  0.00    -0.014 C 
ATOM      3  C   LIG    1       24.437 -16.952   3.779  0.00  0.00    -0.014 A 
ATOM      4  C   LIG    1       23.223 -16.827   4.487  0.00  0.00    -0.039 A 
ATOM      5  C   LIG    1       22.350 -17.938   4.523  0.00  0.00    +0.004 A 
ATOM      6  C   LIG    1       22.668 -19.137   3.886  0.00  0.00    +0.000 A 
ATOM      7  C   LIG    1       23.858 -19.250   3.183  0.00  0.00    +0.001 A 
ATOM      8  C   LIG    1       22.729 -15.571   5.188  0.00  0.00    +0.040 C 
ATOM      9  C   LIG    1       23.706 -14.423   5.476  0.00  0.00    +0.040 C 
ATOM     10  C   LIG    1       24.181 -13.752   4.210  0.00  0.00    -0.039 A 
ATOM     11  C   LIG    1       23.812 -12.433   3.909  0.00  0.00    +0.004 A 
ATOM     12  C   LIG    1       24.230 -11.841   2.716  0.00  0.00    +0.000 A 
ATOM     13  C   LIG    1       25.010 -12.559   1.812  0.00  0.00    +0.001 A 
ATOM     14  C   LIG    1       25.386 -13.870   2.107  0.00  0.00    +0.009 A 
ATOM     15  C   LIG    1       24.731 -18.165   3.125  0.00  0.00    +0.009 A 
ATOM     16  C   LIG    1       24.988 -14.465   3.311  0.00  0.00    -0.014 A 
ENDROOT
BRANCH   1  17
ATOM     17  C   LIG    1       27.802 -15.060   4.184  0.00  0.00    +0.043 C 
BRANCH  17  18
ATOM     18  C   LIG    1       27.407 -13.848   5.051  0.00  0.00    +0.088 C 
BRANCH  18  20
ATOM     19  C   LIG    1       28.910 -11.994   5.564  0.00  0.00    +0.104 C 
ATOM     20  N   LIG    1       27.988 -12.572   4.584  0.00  0.00    -0.308 NA
ATOM     21  C   LIG    1       28.691 -12.781   3.314  0.00  0.00    +0.104 C 
ENDBRANCH  18  20
ENDBRANCH  17  18
ENDBRANCH   1  17
TORSDOF 3
ENDMDL
MODEL 2
REMARK VINA RESULT:       0.2      3.165      5.797
REMARK  Name = *****
REMARK                            x       y       z     vdW  Elec       q    Type
REMARK                         _______ _______ _______ _____ _____    ______ ____
ROOT
ATOM      1  C   LIG    1       25.935 -17.662   4.337  0.00  0.00    -0.017 C 
ATOM      2  C   LIG    1       25.955 -19.005   4.477  0.00  0.00    -0.014 C 
ATOM      3  C   LIG    1       27.063 -19.602   5.269  0.00  0.00    -0.014 A 
ATOM      4  C   LIG    1       26.830 -20.442   6.379  0.00  0.00    -0.039 A 
ATOM      5  C   LIG    1       27.946 -20.976   7.061  0.00  0.00    +0.004 A 
ATOM      6  C   LIG    1       29.251 -20.687   6.664  0.00  0.00    +0.000 A 
ATOM      7  C   LIG    1       29.474 -19.869   5.566  0.00  0.00    +0.001 A 
ATOM      8  C   LIG    1       25.466 -20.876   6.892  0.00  0.00    +0.040 C 
ATOM      9  C   LIG    1       24.205 -20.129   6.437  0.00  0.00    +0.040 C 
ATOM     10  C   LIG    1       23.923 -20.338   4.969  0.00  0.00    -0.039 A 
ATOM     11  C   LIG    1       22.800 -21.064   4.545  0.00  0.00    +0.004 A 
ATOM     12  C   LIG    1       22.574 -21.278   3.185  0.00  0.00    +0.000 A 
ATOM     13  C   LIG    1       23.467 -20.779   2.238  0.00  0.00    +0.001 A 
ATOM     14  C   LIG    1       24.584 -20.051   2.652  0.00  0.00    +0.009 A 
ATOM     15  C   LIG    1       28.389 -19.338   4.871  0.00  0.00    +0.009 A 
ATOM     16  C   LIG    1       24.807 -19.814   4.015  0.00  0.00    -0.014 A 
ENDROOT
BRANCH   1  17
ATOM     17  C   LIG    1       24.853 -16.825   3.696  0.00  0.00    +0.043 C 
BRANCH  17  18
ATOM     18  C   LIG    1       25.359 -15.415   3.333  0.00  0.00    +0.088 C 
BRANCH  18  20
ATOM     19  C   LIG    1       26.165 -13.622   4.782  0.00  0.00    +0.104 C 
ATOM     20  N   LIG    1       24.998 -14.383   4.328  0.00  0.00    -0.308 NA
ATOM     21  C   LIG    1       24.008 -13.465   3.753  0.00  0.00    +0.104 C 
ENDBRANCH  18  20
ENDBRANCH  17  18
ENDBRANCH   1  17
TORSDOF 3
ENDMDL
