MODEL 1
REMARK VINA RESULT:      -7.3      0.000      0.000
REMARK  Name = *****
REMARK                            x       y       z     vdW  Elec       q    Type
REMARK                         _______ _______ _______ _____ _____    ______ ____
ROOT
ATOM      1  C   LIG    1       25.163 -22.917   5.766  0.00  0.00    +0.042 C 
ATOM      2  C   LIG    1       24.909 -21.662   6.609  0.00  0.00    +0.069 C 
ATOM      3  C   LIG    1       26.135 -21.078   7.412  0.00  0.00    -0.000 C 
ATOM      4  C   LIG    1       25.576 -20.246   8.609  0.00  0.00    +0.014 C 
ATOM      5  C   LIG    1       26.821 -20.081   6.407  0.00  0.00    +0.001 C 
ATOM      6  C   LIG    1       28.238 -20.422   5.896  0.00  0.00    -0.003 C 
ATOM      7  C   LIG    1       29.140 -21.128   6.925  0.00  0.00    +0.002 C 
ATOM      8  C   LIG    1       28.398 -22.386   7.394  0.00  0.00    +0.005 C 
ATOM      9  C   LIG    1       29.915 -20.225   7.963  0.00  0.00    -0.007 C 
ATOM     10  C   LIG    1       30.915 -21.144   8.723  0.00  0.00    +0.016 C 
ATOM     11  C   LIG    1       30.583 -19.102   7.149  0.00  0.00    -0.060 C 
ATOM     12  C   LIG    1       31.637 -18.454   7.676  0.00  0.00    +0.046 C 
ATOM     13  C   LIG    1       31.037 -17.600   8.785  0.00  0.00    +0.156 C 
ATOM     14  O   LIG    1       31.425 -16.453   8.944  0.00  0.00    -0.293 OA
ATOM     15  C   LIG    1       30.058 -18.318   9.727  0.00  0.00    +0.080 C 
ATOM     16  C   LIG    1       29.636 -18.314   6.252  0.00  0.00    +0.032 C 
ATOM     17  C   LIG    1       29.163 -19.407   9.056  0.00  0.00    +0.019 C 
ATOM     18  C   LIG    1       28.953 -19.224   5.244  0.00  0.00    +0.008 C 
ATOM     19  C   LIG    1       25.842 -19.955   5.209  0.00  0.00    +0.007 C 
ATOM     20  C   LIG    1       27.060 -22.137   8.063  0.00  0.00    +0.010 C 
ATOM     21  C   LIG    1       24.512 -20.490   5.702  0.00  0.00    +0.035 C 
ENDROOT
BRANCH   2  22
ATOM     22  O   LIG    1       23.803 -21.962   7.460  0.00  0.00    -0.388 OA
ATOM     23  H   LIG    1       23.079 -21.354   7.236  0.00  0.00    +0.210 HD
ENDBRANCH   2  22
TORSDOF 1
ENDMDL
MODEL 2
REMARK VINA RESULT:      -5.6      9.329     12.028
REMARK  Name = *****
REMARK                            x       y       z     vdW  Elec       q    Type
REMARK                         _______ _______ _______ _____ _____    ______ ____
ROOT
ATOM      1  C   LIG    1       28.205 -29.717  12.845  0.00  0.00    +0.042 C 
ATOM      2  C   LIG    1       27.194 -29.537  11.707  0.00  0.00    +0.069 C 
ATOM      3  C   LIG    1       25.670 -29.452  12.109  0.00  0.00    -0.000 C 
ATOM      4  C   LIG    1       24.821 -29.874  10.868  0.00  0.00    +0.014 C 
ATOM      5  C   LIG    1       25.420 -27.922  12.371  0.00  0.00    +0.001 C 
ATOM      6  C   LIG    1       25.084 -27.476  13.812  0.00  0.00    -0.003 C 
ATOM      7  C   LIG    1       24.243 -28.483  14.617  0.00  0.00    +0.002 C 
ATOM      8  C   LIG    1       24.999 -29.818  14.608  0.00  0.00    +0.005 C 
ATOM      9  C   LIG    1       22.676 -28.453  14.422  0.00  0.00    -0.007 C 
ATOM     10  C   LIG    1       22.056 -29.389  15.499  0.00  0.00    +0.016 C 
ATOM     11  C   LIG    1       22.252 -26.979  14.547  0.00  0.00    -0.060 C 
ATOM     12  C   LIG    1       20.974 -26.692  14.856  0.00  0.00    +0.046 C 
ATOM     13  C   LIG    1       20.194 -27.045  13.597  0.00  0.00    +0.156 C 
ATOM     14  O   LIG    1       19.297 -26.309  13.214  0.00  0.00    -0.293 OA
ATOM     15  C   LIG    1       20.519 -28.409  12.968  0.00  0.00    +0.080 C 
ATOM     16  C   LIG    1       22.993 -26.020  13.623  0.00  0.00    +0.032 C 
ATOM     17  C   LIG    1       22.013 -28.851  13.069  0.00  0.00    +0.019 C 
ATOM     18  C   LIG    1       24.490 -26.057  13.885  0.00  0.00    +0.008 C 
ATOM     19  C   LIG    1       26.700 -27.197  11.878  0.00  0.00    +0.007 C 
ATOM     20  C   LIG    1       25.233 -30.421  13.237  0.00  0.00    +0.010 C 
ATOM     21  C   LIG    1       27.430 -28.196  11.000  0.00  0.00    +0.035 C 
ENDROOT
BRANCH   2  22
ATOM     22  O   LIG    1       27.446 -30.584  10.771  0.00  0.00    -0.388 OA
ATOM     23  H   LIG    1       28.097 -30.260  10.127  0.00  0.00    +0.210 HD
ENDBRANCH   2  22
TORSDOF 1
ENDMDL
MODEL 3
REMARK VINA RESULT:      -5.6      1.507      6.065
REMARK  Name = *****
REMARK                            x       y       z     vdW  Elec       q    Type
REMARK                         _______ _______ _______ _____ _____    ______ ____
ROOT
ATOM      1  C   LIG    1       30.911 -21.171   8.616  0.00  0.00    +0.042 C 
ATOM      2  C   LIG    1       30.385 -20.038   7.727  0.00  0.00    +0.069 C 
ATOM      3  C   LIG    1       29.065 -20.322   6.912  0.00  0.00    -0.000 C 
ATOM      4  C   LIG    1       29.042 -19.360   5.682  0.00  0.00    +0.014 C 
ATOM      5  C   LIG    1       27.905 -19.894   7.885  0.00  0.00    +0.001 C 
ATOM      6  C   LIG    1       26.958 -20.993   8.416  0.00  0.00    -0.003 C 
ATOM      7  C   LIG    1       26.668 -22.129   7.419  0.00  0.00    +0.002 C 
ATOM      8  C   LIG    1       28.019 -22.716   6.990  0.00  0.00    +0.005 C 
ATOM      9  C   LIG    1       25.525 -21.895   6.354  0.00  0.00    -0.007 C 
ATOM     10  C   LIG    1       25.278 -23.252   5.633  0.00  0.00    +0.016 C 
ATOM     11  C   LIG    1       24.309 -21.363   7.132  0.00  0.00    -0.060 C 
ATOM     12  C   LIG    1       23.084 -21.483   6.588  0.00  0.00    +0.046 C 
ATOM     13  C   LIG    1       23.079 -20.476   5.445  0.00  0.00    +0.156 C 
ATOM     14  O   LIG    1       22.089 -19.789   5.248  0.00  0.00    -0.293 OA
ATOM     15  C   LIG    1       24.308 -20.503   4.523  0.00  0.00    +0.080 C 
ATOM     16  C   LIG    1       24.588 -20.138   7.994  0.00  0.00    +0.032 C 
ATOM     17  C   LIG    1       25.663 -20.827   5.228  0.00  0.00    +0.019 C 
ATOM     18  C   LIG    1       25.662 -20.432   9.029  0.00  0.00    +0.008 C 
ATOM     19  C   LIG    1       28.599 -19.173   9.071  0.00  0.00    +0.007 C 
ATOM     20  C   LIG    1       28.959 -21.744   6.305  0.00  0.00    +0.010 C 
ATOM     21  C   LIG    1       29.995 -18.831   8.589  0.00  0.00    +0.035 C 
ENDROOT
BRANCH   2  22
ATOM     22  O   LIG    1       31.467 -19.651   6.881  0.00  0.00    -0.388 OA
ATOM     23  H   LIG    1       31.384 -18.699   6.704  0.00  0.00    +0.210 HD
ENDBRANCH   2  22
TORSDOF 1
ENDMDL
MODEL 4
REMARK VINA RESULT:      -5.4      8.899     10.911
REMARK  Name = *****
REMARK                            x       y       z     vdW  Elec       q    Type
REMARK                         _______ _______ _______ _____ _____    ______ ____
ROOT
ATOM      1  C   LIG    1       24.454 -33.306   9.844  0.00  0.00    +0.042 C 
ATOM      2  C   LIG    1       23.609 -32.047   9.621  0.00  0.00    +0.069 C 
ATOM      3  C   LIG    1       23.733 -30.900  10.698  0.00  0.00    -0.000 C 
ATOM      4  C   LIG    1       22.430 -30.043  10.642  0.00  0.00    +0.014 C 
ATOM      5  C   LIG    1       24.923 -30.010  10.185  0.00  0.00    +0.001 C 
ATOM      6  C   LIG    1       26.214 -29.961  11.032  0.00  0.00    -0.003 C 
ATOM      7  C   LIG    1       25.989 -30.040  12.553  0.00  0.00    +0.002 C 
ATOM      8  C   LIG    1       25.188 -31.319  12.829  0.00  0.00    +0.005 C 
ATOM      9  C   LIG    1       25.640 -28.700  13.313  0.00  0.00    -0.007 C 
ATOM     10  C   LIG    1       25.690 -29.006  14.839  0.00  0.00    +0.016 C 
ATOM     11  C   LIG    1       26.668 -27.655  12.844  0.00  0.00    -0.060 C 
ATOM     12  C   LIG    1       26.898 -26.577  13.615  0.00  0.00    +0.046 C 
ATOM     13  C   LIG    1       25.638 -25.734  13.470  0.00  0.00    +0.156 C 
ATOM     14  O   LIG    1       25.730 -24.522  13.352  0.00  0.00    -0.293 OA
ATOM     15  C   LIG    1       24.308 -26.487  13.624  0.00  0.00    +0.080 C 
ATOM     16  C   LIG    1       26.761 -27.484  11.333  0.00  0.00    +0.032 C 
ATOM     17  C   LIG    1       24.299 -27.946  13.067  0.00  0.00    +0.019 C 
ATOM     18  C   LIG    1       27.143 -28.791  10.657  0.00  0.00    +0.008 C 
ATOM     19  C   LIG    1       25.246 -30.525   8.757  0.00  0.00    +0.007 C 
ATOM     20  C   LIG    1       23.825 -31.385  12.167  0.00  0.00    +0.010 C 
ATOM     21  C   LIG    1       24.043 -31.343   8.329  0.00  0.00    +0.035 C 
ENDROOT
BRANCH   2  22
ATOM     22  O   LIG    1       22.262 -32.487   9.458  0.00  0.00    -0.388 OA
ATOM     23  H   LIG    1       22.282 -33.371   9.054  0.00  0.00    +0.210 HD
ENDBRANCH   2  22
TORSDOF 1
ENDMDL
MODEL 5
REMARK VINA RESULT:      -5.3      9.401     12.265
REMARK  Name = *****
REMARK                            x       y       z     vdW  Elec       q    Type
REMARK                         _______ _______ _______ _____ _____    ______ ____
ROOT
ATOM      1  C   LIG    1       25.848 -28.244  15.374  0.00  0.00    +0.042 C 
ATOM      2  C   LIG    1       26.060 -27.540  14.028  0.00  0.00    +0.069 C 
ATOM      3  C   LIG    1       26.066 -28.448  12.738  0.00  0.00    -0.000 C 
ATOM      4  C   LIG    1       26.864 -27.698  11.624  0.00  0.00    +0.014 C 
ATOM      5  C   LIG    1       24.557 -28.509  12.297  0.00  0.00    +0.001 C 
ATOM      6  C   LIG    1       23.830 -29.869  12.376  0.00  0.00    -0.003 C 
ATOM      7  C   LIG    1       24.714 -31.090  12.061  0.00  0.00    +0.002 C 
ATOM      8  C   LIG    1       25.914 -31.043  13.016  0.00  0.00    +0.005 C 
ATOM      9  C   LIG    1       24.916 -31.478  10.543  0.00  0.00    -0.007 C 
ATOM     10  C   LIG    1       25.642 -32.854  10.508  0.00  0.00    +0.016 C 
ATOM     11  C   LIG    1       23.515 -31.486   9.907  0.00  0.00    -0.060 C 
ATOM     12  C   LIG    1       23.318 -32.184   8.774  0.00  0.00    +0.046 C 
ATOM     13  C   LIG    1       24.045 -31.380   7.705  0.00  0.00    +0.156 C 
ATOM     14  O   LIG    1       23.532 -31.226   6.608  0.00  0.00    -0.293 OA
ATOM     15  C   LIG    1       25.470 -30.927   8.062  0.00  0.00    +0.080 C 
ATOM     16  C   LIG    1       22.718 -30.202  10.101  0.00  0.00    +0.032 C 
ATOM     17  C   LIG    1       25.695 -30.553   9.561  0.00  0.00    +0.019 C 
ATOM     18  C   LIG    1       22.514 -29.902  11.577  0.00  0.00    +0.008 C 
ATOM     19  C   LIG    1       23.822 -27.463  13.175  0.00  0.00    +0.007 C 
ATOM     20  C   LIG    1       26.788 -29.809  12.895  0.00  0.00    +0.010 C 
ATOM     21  C   LIG    1       24.903 -26.571  13.752  0.00  0.00    +0.035 C 
ENDROOT
BRANCH   2  22
ATOM     22  O   LIG    1       27.260 -26.778  14.155  0.00  0.00    -0.388 OA
ATOM     23  H   LIG    1       27.525 -26.790  15.090  0.00  0.00    +0.210 HD
ENDBRANCH   2  22
TORSDOF 1
ENDMDL
MODEL 6
REMARK VINA RESULT:      -5.2      9.393     11.708
REMARK  Name = *****
REMARK                            x       y       z     vdW  Elec       q    Type
REMARK                         _______ _______ _______ _____ _____    ______ ____
ROOT
ATOM      1  C   LIG    1       20.323 -27.317  15.499  0.00  0.00    +0.042 C 
ATOM      2  C   LIG    1       20.558 -28.287  14.335  0.00  0.00    +0.069 C 
ATOM      3  C   LIG    1       21.928 -28.162  13.563  0.00  0.00    -0.000 C 
ATOM      4  C   LIG    1       21.730 -28.755  12.132  0.00  0.00    +0.014 C 
ATOM      5  C   LIG    1       22.907 -29.107  14.350  0.00  0.00    +0.001 C 
ATOM      6  C   LIG    1       24.095 -28.463  15.100  0.00  0.00    -0.003 C 
ATOM      7  C   LIG    1       24.700 -27.229  14.406  0.00  0.00    +0.002 C 
ATOM      8  C   LIG    1       23.562 -26.222  14.193  0.00  0.00    +0.005 C 
ATOM      9  C   LIG    1       25.770 -27.476  13.270  0.00  0.00    -0.007 C 
ATOM     10  C   LIG    1       26.383 -26.094  12.902  0.00  0.00    +0.016 C 
ATOM     11  C   LIG    1       26.782 -28.485  13.841  0.00  0.00    -0.060 C 
ATOM     12  C   LIG    1       28.010 -28.555  13.295  0.00  0.00    +0.046 C 
ATOM     13  C   LIG    1       27.782 -29.208  11.938  0.00  0.00    +0.156 C 
ATOM     14  O   LIG    1       28.562 -30.056  11.535  0.00  0.00    -0.293 OA
ATOM     15  C   LIG    1       26.628 -28.630  11.103  0.00  0.00    +0.080 C 
ATOM     16  C   LIG    1       26.168 -29.770  14.381  0.00  0.00    +0.032 C 
ATOM     17  C   LIG    1       25.386 -28.153  11.921  0.00  0.00    +0.019 C 
ATOM     18  C   LIG    1       25.182 -29.477  15.500  0.00  0.00    +0.008 C 
ATOM     19  C   LIG    1       22.018 -29.896  15.346  0.00  0.00    +0.007 C 
ATOM     20  C   LIG    1       22.419 -26.711  13.326  0.00  0.00    +0.010 C 
ATOM     21  C   LIG    1       20.594 -29.731  14.852  0.00  0.00    +0.035 C 
ENDROOT
BRANCH   2  22
ATOM     22  O   LIG    1       19.435 -28.153  13.464  0.00  0.00    -0.388 OA
ATOM     23  H   LIG    1       19.770 -28.013  12.563  0.00  0.00    +0.210 HD
ENDBRANCH   2  22
TORSDOF 1
ENDMDL
MODEL 7
REMARK VINA RESULT:      -5.2      8.769     11.492
REMARK  Name = *****
REMARK                            x       y       z     vdW  Elec       q    Type
REMARK                         _______ _______ _______ _____ _____    ______ ____
ROOT
ATOM      1  C   LIG    1       26.324 -28.451  15.500  0.00  0.00    +0.042 C 
ATOM      2  C   LIG    1       25.978 -27.378  14.461  0.00  0.00    +0.069 C 
ATOM      3  C   LIG    1       26.076 -27.793  12.942  0.00  0.00    -0.000 C 
ATOM      4  C   LIG    1       26.286 -26.495  12.100  0.00  0.00    +0.014 C 
ATOM      5  C   LIG    1       24.651 -28.367  12.602  0.00  0.00    +0.001 C 
ATOM      6  C   LIG    1       24.534 -29.870  12.262  0.00  0.00    -0.003 C 
ATOM      7  C   LIG    1       25.737 -30.452  11.499  0.00  0.00    +0.002 C 
ATOM      8  C   LIG    1       26.991 -30.166  12.336  0.00  0.00    +0.005 C 
ATOM      9  C   LIG    1       25.767 -30.273   9.930  0.00  0.00    -0.007 C 
ATOM     10  C   LIG    1       26.943 -31.135   9.386  0.00  0.00    +0.016 C 
ATOM     11  C   LIG    1       24.381 -30.701   9.417  0.00  0.00    -0.060 C 
ATOM     12  C   LIG    1       24.246 -31.067   8.130  0.00  0.00    +0.046 C 
ATOM     13  C   LIG    1       24.381 -29.765   7.352  0.00  0.00    +0.156 C 
ATOM     14  O   LIG    1       23.641 -29.545   6.406  0.00  0.00    -0.293 OA
ATOM     15  C   LIG    1       25.562 -28.866   7.751  0.00  0.00    +0.080 C 
ATOM     16  C   LIG    1       23.207 -29.993  10.083  0.00  0.00    +0.032 C 
ATOM     17  C   LIG    1       25.919 -28.869   9.271  0.00  0.00    +0.019 C 
ATOM     18  C   LIG    1       23.201 -30.237  11.584  0.00  0.00    +0.008 C 
ATOM     19  C   LIG    1       23.760 -28.030  13.827  0.00  0.00    +0.007 C 
ATOM     20  C   LIG    1       27.281 -28.698  12.584  0.00  0.00    +0.010 C 
ATOM     21  C   LIG    1       24.508 -26.963  14.602  0.00  0.00    +0.035 C 
ENDROOT
BRANCH   2  22
ATOM     22  O   LIG    1       26.792 -26.245  14.762  0.00  0.00    -0.388 OA
ATOM     23  H   LIG    1       26.231 -25.453  14.720  0.00  0.00    +0.210 HD
ENDBRANCH   2  22
TORSDOF 1
ENDMDL
MODEL 8
REMARK VINA RESULT:      -5.2      1.591      6.081
REMARK  Name = *****
REMARK                            x       y       z     vdW  Elec       q    Type
REMARK                         _______ _______ _______ _____ _____    ______ ____
ROOT
ATOM      1  C   LIG    1       29.653 -17.858   8.162  0.00  0.00    +0.042 C 
ATOM      2  C   LIG    1       30.121 -19.174   7.530  0.00  0.00    +0.069 C 
ATOM      3  C   LIG    1       29.096 -20.374   7.530  0.00  0.00    -0.000 C 
ATOM      4  C   LIG    1       29.909 -21.702   7.426  0.00  0.00    +0.014 C 
ATOM      5  C   LIG    1       28.286 -20.194   6.194  0.00  0.00    +0.001 C 
ATOM      6  C   LIG    1       26.783 -19.851   6.295  0.00  0.00    -0.003 C 
ATOM      7  C   LIG    1       26.055 -20.495   7.488  0.00  0.00    +0.002 C 
ATOM      8  C   LIG    1       26.808 -20.082   8.759  0.00  0.00    +0.005 C 
ATOM      9  C   LIG    1       25.532 -21.976   7.317  0.00  0.00    -0.007 C 
ATOM     10  C   LIG    1       24.647 -22.303   8.555  0.00  0.00    +0.016 C 
ATOM     11  C   LIG    1       24.780 -22.018   5.974  0.00  0.00    -0.060 C 
ATOM     12  C   LIG    1       23.876 -22.992   5.764  0.00  0.00    +0.046 C 
ATOM     13  C   LIG    1       24.714 -24.252   5.592  0.00  0.00    +0.156 C 
ATOM     14  O   LIG    1       24.419 -25.062   4.728  0.00  0.00    -0.293 OA
ATOM     15  C   LIG    1       25.814 -24.473   6.642  0.00  0.00    +0.080 C 
ATOM     16  C   LIG    1       25.581 -21.518   4.778  0.00  0.00    +0.032 C 
ATOM     17  C   LIG    1       26.514 -23.175   7.158  0.00  0.00    +0.019 C 
ATOM     18  C   LIG    1       26.019 -20.076   4.977  0.00  0.00    +0.008 C 
ATOM     19  C   LIG    1       29.029 -19.089   5.398  0.00  0.00    +0.007 C 
ATOM     20  C   LIG    1       28.258 -20.522   8.825  0.00  0.00    +0.010 C 
ATOM     21  C   LIG    1       30.400 -18.970   6.035  0.00  0.00    +0.035 C 
ENDROOT
BRANCH   2  22
ATOM     22  O   LIG    1       31.350 -19.516   8.170  0.00  0.00    -0.388 OA
ATOM     23  H   LIG    1       32.000 -18.824   7.962  0.00  0.00    +0.210 HD
ENDBRANCH   2  22
TORSDOF 1
ENDMDL
MODEL 9
REMARK VINA RESULT:      -5.1      9.475     11.551
REMARK  Name = *****
REMARK                            x       y       z     vdW  Elec       q    Type
REMARK                         _______ _______ _______ _____ _____    ______ ____
ROOT
ATOM      1  C   LIG    1       20.545 -32.249  12.597  0.00  0.00    +0.042 C 
ATOM      2  C   LIG    1       20.377 -30.795  12.140  0.00  0.00    +0.069 C 
ATOM      3  C   LIG    1       21.395 -29.739  12.721  0.00  0.00    -0.000 C 
ATOM      4  C   LIG    1       20.726 -28.331  12.644  0.00  0.00    +0.014 C 
ATOM      5  C   LIG    1       22.599 -29.760  11.710  0.00  0.00    +0.001 C 
ATOM      6  C   LIG    1       23.963 -30.284  12.212  0.00  0.00    -0.003 C 
ATOM      7  C   LIG    1       24.275 -29.955  13.684  0.00  0.00    +0.002 C 
ATOM      8  C   LIG    1       23.120 -30.507  14.529  0.00  0.00    +0.005 C 
ATOM      9  C   LIG    1       24.892 -28.537  14.004  0.00  0.00    -0.007 C 
ATOM     10  C   LIG    1       25.321 -28.544  15.500  0.00  0.00    +0.016 C 
ATOM     11  C   LIG    1       26.053 -28.334  13.015  0.00  0.00    -0.060 C 
ATOM     12  C   LIG    1       27.018 -27.447  13.315  0.00  0.00    +0.046 C 
ATOM     13  C   LIG    1       26.345 -26.090  13.153  0.00  0.00    +0.156 C 
ATOM     14  O   LIG    1       26.950 -25.173  12.619  0.00  0.00    -0.293 OA
ATOM     15  C   LIG    1       24.966 -25.943  13.816  0.00  0.00    +0.080 C 
ATOM     16  C   LIG    1       25.680 -28.512  11.548  0.00  0.00    +0.032 C 
ATOM     17  C   LIG    1       24.076 -27.226  13.795  0.00  0.00    +0.019 C 
ATOM     18  C   LIG    1       25.136 -29.908  11.288  0.00  0.00    +0.008 C 
ATOM     19  C   LIG    1       22.119 -30.610  10.504  0.00  0.00    +0.007 C 
ATOM     20  C   LIG    1       21.755 -29.926  14.217  0.00  0.00    +0.010 C 
ATOM     21  C   LIG    1       20.609 -30.689  10.627  0.00  0.00    +0.035 C 
ENDROOT
BRANCH   2  22
ATOM     22  O   LIG    1       19.022 -30.440  12.409  0.00  0.00    -0.388 OA
ATOM     23  H   LIG    1       18.979 -29.474  12.509  0.00  0.00    +0.210 HD
ENDBRANCH   2  22
TORSDOF 1
ENDMDL
