MODEL 1
REMARK VINA RESULT:      -7.4      0.000      0.000
REMARK  Name = *****
REMARK                            x       y       z     vdW  Elec       q    Type
REMARK                         _______ _______ _______ _____ _____    ______ ____
ROOT
ATOM      1  C   LIG    1       28.972 -20.557   6.909  0.00  0.00    +0.162 A 
ATOM      2  C   LIG    1       27.750 -21.198   7.008  0.00  0.00    +0.167 A 
ATOM      3  O   LIG    1       27.473 -22.367   7.671  0.00  0.00    -0.481 OA
ATOM      4  C   LIG    1       26.079 -22.700   7.378  0.00  0.00    +0.217 C 
ATOM      5  C   LIG    1       25.468 -21.583   6.510  0.00  0.00    +0.048 C 
ATOM      6  C   LIG    1       25.070 -21.969   5.077  0.00  0.00    +0.043 C 
ATOM      7  C   LIG    1       24.472 -20.679   4.436  0.00  0.00    +0.069 C 
ATOM      8  N   LIG    1       23.286 -20.136   5.133  0.00  0.00    -0.301 NA
ATOM      9  C   LIG    1       22.072 -20.241   4.326  0.00  0.00    +0.105 C 
ATOM     10  C   LIG    1       23.067 -20.686   6.470  0.00  0.00    +0.085 C 
ATOM     11  C   LIG    1       25.575 -19.533   4.396  0.00  0.00    +0.055 C 
ATOM     12  C   LIG    1       26.737 -19.719   5.354  0.00  0.00    -0.038 A 
ATOM     13  C   LIG    1       27.946 -19.034   5.264  0.00  0.00    +0.008 A 
ATOM     14  C   LIG    1       24.302 -23.263   5.088  0.00  0.00    -0.023 C 
ATOM     15  C   LIG    1       24.759 -24.270   5.858  0.00  0.00    +0.004 C 
ATOM     16  C   LIG    1       24.361 -20.808   7.272  0.00  0.00    +0.031 C 
ATOM     17  C   LIG    1       25.980 -24.102   6.728  0.00  0.00    +0.178 C 
ATOM     18  C   LIG    1       26.663 -20.730   6.303  0.00  0.00    +0.012 A 
ATOM     19  C   LIG    1       29.046 -19.443   6.050  0.00  0.00    +0.050 A 
ENDROOT
BRANCH  17  20
ATOM     20  O   LIG    1       25.903 -25.084   7.763  0.00  0.00    -0.384 OA
ATOM     21  H   LIG    1       25.588 -24.629   8.561  0.00  0.00    +0.210 HD
ENDBRANCH  17  20
BRANCH   1  22
ATOM     22  O   LIG    1       30.145 -20.897   7.526  0.00  0.00    -0.489 OA
BRANCH  22  24
ATOM     23  C   LIG    1       31.132 -19.349   9.068  0.00  0.00    +0.048 C 
ATOM     24  C   LIG    1       31.124 -19.863   7.640  0.00  0.00    +0.226 C 
ENDBRANCH  22  24
ENDBRANCH   1  22
TORSDOF 3
ENDMDL
MODEL 2
REMARK VINA RESULT:      -6.7      6.346      9.187
REMARK  Name = *****
REMARK                            x       y       z     vdW  Elec       q    Type
REMARK                         _______ _______ _______ _____ _____    ______ ____
ROOT
ATOM      1  C   LIG    1       25.699 -27.048   6.424  0.00  0.00    +0.162 A 
ATOM      2  C   LIG    1       25.644 -27.946   7.475  0.00  0.00    +0.167 A 
ATOM      3  O   LIG    1       26.327 -27.883   8.663  0.00  0.00    -0.481 OA
ATOM      4  C   LIG    1       26.035 -29.120   9.387  0.00  0.00    +0.217 C 
ATOM      5  C   LIG    1       25.034 -29.956   8.567  0.00  0.00    +0.048 C 
ATOM      6  C   LIG    1       25.550 -31.294   8.014  0.00  0.00    +0.043 C 
ATOM      7  C   LIG    1       24.349 -31.934   7.251  0.00  0.00    +0.069 C 
ATOM      8  N   LIG    1       23.154 -32.189   8.084  0.00  0.00    -0.301 NA
ATOM      9  C   LIG    1       22.887 -33.616   8.250  0.00  0.00    +0.105 C 
ATOM     10  C   LIG    1       23.165 -31.512   9.380  0.00  0.00    +0.085 C 
ATOM     11  C   LIG    1       23.906 -30.991   6.048  0.00  0.00    +0.055 C 
ATOM     12  C   LIG    1       24.355 -29.546   6.159  0.00  0.00    -0.038 A 
ATOM     13  C   LIG    1       24.365 -28.643   5.100  0.00  0.00    +0.008 A 
ATOM     14  C   LIG    1       26.281 -32.048   9.091  0.00  0.00    -0.023 C 
ATOM     15  C   LIG    1       27.142 -31.368   9.873  0.00  0.00    +0.004 C 
ATOM     16  C   LIG    1       23.662 -30.071   9.283  0.00  0.00    +0.031 C 
ATOM     17  C   LIG    1       27.342 -29.881   9.714  0.00  0.00    +0.178 C 
ATOM     18  C   LIG    1       24.925 -29.116   7.350  0.00  0.00    +0.012 A 
ATOM     19  C   LIG    1       25.018 -27.399   5.242  0.00  0.00    +0.050 A 
ENDROOT
BRANCH  17  20
ATOM     20  O   LIG    1       27.865 -29.388  10.949  0.00  0.00    -0.384 OA
ATOM     21  H   LIG    1       28.406 -30.098  11.330  0.00  0.00    +0.210 HD
ENDBRANCH  17  20
BRANCH   1  22
ATOM     22  O   LIG    1       26.372 -25.858   6.379  0.00  0.00    -0.489 OA
BRANCH  22  24
ATOM     23  C   LIG    1       25.985 -23.626   7.165  0.00  0.00    +0.048 C 
ATOM     24  C   LIG    1       25.579 -24.689   6.161  0.00  0.00    +0.226 C 
ENDBRANCH  22  24
ENDBRANCH   1  22
TORSDOF 3
ENDMDL
MODEL 3
REMARK VINA RESULT:      -6.6      2.188      3.648
REMARK  Name = *****
REMARK                            x       y       z     vdW  Elec       q    Type
REMARK                         _______ _______ _______ _____ _____    ______ ____
ROOT
ATOM      1  C   LIG    1       28.485 -19.810   6.611  0.00  0.00    +0.162 A 
ATOM      2  C   LIG    1       27.331 -20.088   5.900  0.00  0.00    +0.167 A 
ATOM      3  O   LIG    1       26.913 -19.508   4.730  0.00  0.00    -0.481 OA
ATOM      4  C   LIG    1       25.581 -20.041   4.445  0.00  0.00    +0.217 C 
ATOM      5  C   LIG    1       25.216 -21.081   5.522  0.00  0.00    +0.048 C 
ATOM      6  C   LIG    1       24.045 -20.722   6.450  0.00  0.00    +0.043 C 
ATOM      7  C   LIG    1       23.879 -21.934   7.419  0.00  0.00    +0.069 C 
ATOM      8  N   LIG    1       23.585 -23.221   6.752  0.00  0.00    -0.301 NA
ATOM      9  C   LIG    1       22.242 -23.709   7.056  0.00  0.00    +0.105 C 
ATOM     10  C   LIG    1       23.822 -23.222   5.309  0.00  0.00    +0.085 C 
ATOM     11  C   LIG    1       25.205 -22.126   8.278  0.00  0.00    +0.055 C 
ATOM     12  C   LIG    1       26.450 -21.480   7.700  0.00  0.00    -0.038 A 
ATOM     13  C   LIG    1       27.619 -21.246   8.419  0.00  0.00    +0.008 A 
ATOM     14  C   LIG    1       22.886 -20.206   5.641  0.00  0.00    -0.023 C 
ATOM     15  C   LIG    1       23.140 -19.325   4.654  0.00  0.00    +0.004 C 
ATOM     16  C   LIG    1       25.119 -22.510   4.929  0.00  0.00    +0.031 C 
ATOM     17  C   LIG    1       24.548 -18.894   4.328  0.00  0.00    +0.178 C 
ATOM     18  C   LIG    1       26.394 -20.958   6.414  0.00  0.00    +0.012 A 
ATOM     19  C   LIG    1       28.632 -20.431   7.867  0.00  0.00    +0.050 A 
ENDROOT
BRANCH  17  20
ATOM     20  O   LIG    1       24.545 -18.413   2.982  0.00  0.00    -0.384 OA
ATOM     21  H   LIG    1       25.447 -18.106   2.791  0.00  0.00    +0.210 HD
ENDBRANCH  17  20
BRANCH   1  22
ATOM     22  O   LIG    1       29.502 -18.967   6.254  0.00  0.00    -0.489 OA
BRANCH  22  24
ATOM     23  C   LIG    1       31.064 -18.270   7.935  0.00  0.00    +0.048 C 
ATOM     24  C   LIG    1       30.787 -19.251   6.811  0.00  0.00    +0.226 C 
ENDBRANCH  22  24
ENDBRANCH   1  22
TORSDOF 3
ENDMDL
MODEL 4
REMARK VINA RESULT:      -6.2      2.153      5.155
REMARK  Name = *****
REMARK                            x       y       z     vdW  Elec       q    Type
REMARK                         _______ _______ _______ _____ _____    ______ ____
ROOT
ATOM      1  C   LIG    1       25.644 -25.811   6.674  0.00  0.00    +0.162 A 
ATOM      2  C   LIG    1       25.913 -24.454   6.647  0.00  0.00    +0.167 A 
ATOM      3  O   LIG    1       27.075 -23.827   7.016  0.00  0.00    -0.481 OA
ATOM      4  C   LIG    1       26.827 -22.388   6.932  0.00  0.00    +0.217 C 
ATOM      5  C   LIG    1       25.399 -22.157   6.401  0.00  0.00    +0.048 C 
ATOM      6  C   LIG    1       24.404 -21.504   7.373  0.00  0.00    +0.043 C 
ATOM      7  C   LIG    1       23.062 -21.372   6.588  0.00  0.00    +0.069 C 
ATOM      8  N   LIG    1       23.143 -20.549   5.362  0.00  0.00    -0.301 NA
ATOM      9  C   LIG    1       22.375 -19.311   5.473  0.00  0.00    +0.105 C 
ATOM     10  C   LIG    1       24.505 -20.273   4.908  0.00  0.00    +0.085 C 
ATOM     11  C   LIG    1       22.535 -22.814   6.169  0.00  0.00    +0.055 C 
ATOM     12  C   LIG    1       23.584 -23.910   6.165  0.00  0.00    -0.038 A 
ATOM     13  C   LIG    1       23.296 -25.272   6.149  0.00  0.00    +0.008 A 
ATOM     14  C   LIG    1       25.040 -20.313   8.037  0.00  0.00    -0.023 C 
ATOM     15  C   LIG    1       26.304 -20.435   8.489  0.00  0.00    +0.004 C 
ATOM     16  C   LIG    1       25.410 -21.500   4.995  0.00  0.00    +0.031 C 
ATOM     17  C   LIG    1       27.088 -21.709   8.298  0.00  0.00    +0.178 C 
ATOM     18  C   LIG    1       24.917 -23.557   6.326  0.00  0.00    +0.012 A 
ATOM     19  C   LIG    1       24.324 -26.211   6.385  0.00  0.00    +0.050 A 
ENDROOT
BRANCH  17  20
ATOM     20  O   LIG    1       28.474 -21.373   8.387  0.00  0.00    -0.384 OA
ATOM     21  H   LIG    1       28.793 -21.249   7.478  0.00  0.00    +0.210 HD
ENDBRANCH  17  20
BRANCH   1  22
ATOM     22  O   LIG    1       26.506 -26.826   6.984  0.00  0.00    -0.489 OA
BRANCH  22  24
ATOM     23  C   LIG    1       25.346 -28.887   7.380  0.00  0.00    +0.048 C 
ATOM     24  C   LIG    1       26.086 -27.724   8.014  0.00  0.00    +0.226 C 
ENDBRANCH  22  24
ENDBRANCH   1  22
TORSDOF 3
ENDMDL
MODEL 5
REMARK VINA RESULT:      -5.9      8.965     10.053
REMARK  Name = *****
REMARK                            x       y       z     vdW  Elec       q    Type
REMARK                         _______ _______ _______ _____ _____    ______ ____
ROOT
ATOM      1  C   LIG    1       26.174 -25.726  13.424  0.00  0.00    +0.162 A 
ATOM      2  C   LIG    1       26.129 -27.065  13.081  0.00  0.00    +0.167 A 
ATOM      3  O   LIG    1       27.149 -27.832  12.578  0.00  0.00    -0.481 OA
ATOM      4  C   LIG    1       26.578 -29.140  12.257  0.00  0.00    +0.217 C 
ATOM      5  C   LIG    1       25.095 -29.155  12.673  0.00  0.00    +0.048 C 
ATOM      6  C   LIG    1       24.066 -29.272  11.537  0.00  0.00    +0.043 C 
ATOM      7  C   LIG    1       22.666 -29.281  12.225  0.00  0.00    +0.069 C 
ATOM      8  N   LIG    1       22.455 -30.392  13.179  0.00  0.00    -0.301 NA
ATOM      9  C   LIG    1       21.442 -31.337  12.714  0.00  0.00    +0.105 C 
ATOM     10  C   LIG    1       23.677 -31.095  13.568  0.00  0.00    +0.085 C 
ATOM     11  C   LIG    1       22.442 -27.918  13.015  0.00  0.00    +0.055 C 
ATOM     12  C   LIG    1       23.705 -27.145  13.344  0.00  0.00    -0.038 A 
ATOM     13  C   LIG    1       23.728 -25.807  13.729  0.00  0.00    +0.008 A 
ATOM     14  C   LIG    1       24.475 -30.362  10.584  0.00  0.00    -0.023 C 
ATOM     15  C   LIG    1       25.768 -30.431  10.210  0.00  0.00    +0.004 C 
ATOM     16  C   LIG    1       24.838 -30.141  13.842  0.00  0.00    +0.031 C 
ATOM     17  C   LIG    1       26.798 -29.478  10.763  0.00  0.00    +0.178 C 
ATOM     18  C   LIG    1       24.934 -27.751  13.121  0.00  0.00    +0.012 A 
ATOM     19  C   LIG    1       24.957 -25.113  13.783  0.00  0.00    +0.050 A 
ENDROOT
BRANCH  17  20
ATOM     20  O   LIG    1       28.076 -30.099  10.615  0.00  0.00    -0.384 OA
ATOM     21  H   LIG    1       28.085 -30.520   9.739  0.00  0.00    +0.210 HD
ENDBRANCH  17  20
BRANCH   1  22
ATOM     22  O   LIG    1       27.265 -24.901  13.425  0.00  0.00    -0.489 OA
BRANCH  22  24
ATOM     23  C   LIG    1       28.697 -25.403  15.282  0.00  0.00    +0.048 C 
ATOM     24  C   LIG    1       27.697 -24.421  14.700  0.00  0.00    +0.226 C 
ENDBRANCH  22  24
ENDBRANCH   1  22
TORSDOF 3
ENDMDL
MODEL 6
REMARK VINA RESULT:      -5.7      9.187     10.537
REMARK  Name = *****
REMARK                            x       y       z     vdW  Elec       q    Type
REMARK                         _______ _______ _______ _____ _____    ______ ____
ROOT
ATOM      1  C   LIG    1       24.382 -27.004  13.306  0.00  0.00    +0.162 A 
ATOM      2  C   LIG    1       24.692 -28.108  12.532  0.00  0.00    +0.167 A 
ATOM      3  O   LIG    1       25.886 -28.389  11.920  0.00  0.00    -0.481 OA
ATOM      4  C   LIG    1       25.679 -29.596  11.119  0.00  0.00    +0.217 C 
ATOM      5  C   LIG    1       24.240 -30.101  11.337  0.00  0.00    +0.048 C 
ATOM      6  C   LIG    1       23.304 -30.047  10.119  0.00  0.00    +0.043 C 
ATOM      7  C   LIG    1       21.938 -30.624  10.604  0.00  0.00    +0.069 C 
ATOM      8  N   LIG    1       21.997 -32.016  11.101  0.00  0.00    -0.301 NA
ATOM      9  C   LIG    1       21.273 -32.945  10.237  0.00  0.00    +0.105 C 
ATOM     10  C   LIG    1       23.349 -32.505  11.368  0.00  0.00    +0.085 C 
ATOM     11  C   LIG    1       21.351 -29.718  11.773  0.00  0.00    +0.055 C 
ATOM     12  C   LIG    1       22.364 -28.838  12.481  0.00  0.00    -0.038 A 
ATOM     13  C   LIG    1       22.033 -27.755  13.290  0.00  0.00    +0.008 A 
ATOM     14  C   LIG    1       24.002 -30.606   8.909  0.00  0.00    -0.023 C 
ATOM     15  C   LIG    1       25.277 -30.236   8.681  0.00  0.00    +0.004 C 
ATOM     16  C   LIG    1       24.218 -31.466  12.073  0.00  0.00    +0.031 C 
ATOM     17  C   LIG    1       26.014 -29.326   9.632  0.00  0.00    +0.178 C 
ATOM     18  C   LIG    1       23.713 -29.023  12.207  0.00  0.00    +0.012 A 
ATOM     19  C   LIG    1       23.040 -26.858  13.710  0.00  0.00    +0.050 A 
ENDROOT
BRANCH  17  20
ATOM     20  O   LIG    1       27.412 -29.539   9.428  0.00  0.00    -0.384 OA
ATOM     21  H   LIG    1       27.875 -29.077  10.146  0.00  0.00    +0.210 HD
ENDBRANCH  17  20
BRANCH   1  22
ATOM     22  O   LIG    1       25.224 -26.002  13.704  0.00  0.00    -0.489 OA
BRANCH  22  24
ATOM     23  C   LIG    1       25.469 -23.867  14.768  0.00  0.00    +0.048 C 
ATOM     24  C   LIG    1       24.803 -25.229  14.830  0.00  0.00    +0.226 C 
ENDBRANCH  22  24
ENDBRANCH   1  22
TORSDOF 3
ENDMDL
MODEL 7
REMARK VINA RESULT:      -5.7      9.342     10.923
REMARK  Name = *****
REMARK                            x       y       z     vdW  Elec       q    Type
REMARK                         _______ _______ _______ _____ _____    ______ ____
ROOT
ATOM      1  C   LIG    1       24.326 -30.103   9.197  0.00  0.00    +0.162 A 
ATOM      2  C   LIG    1       23.894 -29.828  10.482  0.00  0.00    +0.167 A 
ATOM      3  O   LIG    1       22.633 -30.000  10.992  0.00  0.00    -0.481 OA
ATOM      4  C   LIG    1       22.645 -29.449  12.347  0.00  0.00    +0.217 C 
ATOM      5  C   LIG    1       24.070 -28.965  12.679  0.00  0.00    +0.048 C 
ATOM      6  C   LIG    1       24.251 -27.452  12.877  0.00  0.00    +0.043 C 
ATOM      7  C   LIG    1       25.760 -27.242  13.214  0.00  0.00    +0.069 C 
ATOM      8  N   LIG    1       26.223 -27.943  14.431  0.00  0.00    -0.301 NA
ATOM      9  C   LIG    1       26.589 -27.016  15.500  0.00  0.00    +0.105 C 
ATOM     10  C   LIG    1       25.303 -28.966  14.927  0.00  0.00    +0.085 C 
ATOM     11  C   LIG    1       26.660 -27.736  11.999  0.00  0.00    +0.055 C 
ATOM     12  C   LIG    1       25.982 -28.695  11.039  0.00  0.00    -0.038 A 
ATOM     13  C   LIG    1       26.454 -28.992   9.763  0.00  0.00    +0.008 A 
ATOM     14  C   LIG    1       23.168 -26.918  13.775  0.00  0.00    -0.023 C 
ATOM     15  C   LIG    1       21.903 -27.332  13.566  0.00  0.00    +0.004 C 
ATOM     16  C   LIG    1       24.715 -29.817  13.804  0.00  0.00    +0.031 C 
ATOM     17  C   LIG    1       21.574 -28.341  12.494  0.00  0.00    +0.178 C 
ATOM     18  C   LIG    1       24.739 -29.211  11.380  0.00  0.00    +0.012 A 
ATOM     19  C   LIG    1       25.635 -29.706   8.859  0.00  0.00    +0.050 A 
ENDROOT
BRANCH  17  20
ATOM     20  O   LIG    1       20.330 -28.947  12.848  0.00  0.00    -0.384 OA
ATOM     21  H   LIG    1       19.952 -29.314  12.032  0.00  0.00    +0.210 HD
ENDBRANCH  17  20
BRANCH   1  22
ATOM     22  O   LIG    1       23.617 -30.692   8.187  0.00  0.00    -0.489 OA
BRANCH  22  24
ATOM     23  C   LIG    1       23.722 -31.989   6.172  0.00  0.00    +0.048 C 
ATOM     24  C   LIG    1       24.276 -30.792   6.922  0.00  0.00    +0.226 C 
ENDBRANCH  22  24
ENDBRANCH   1  22
TORSDOF 3
ENDMDL
MODEL 8
REMARK VINA RESULT:      -5.6      9.231     11.225
REMARK  Name = *****
REMARK                            x       y       z     vdW  Elec       q    Type
REMARK                         _______ _______ _______ _____ _____    ______ ____
ROOT
ATOM      1  C   LIG    1       24.192 -29.990   8.227  0.00  0.00    +0.162 A 
ATOM      2  C   LIG    1       23.654 -30.150   9.491  0.00  0.00    +0.167 A 
ATOM      3  O   LIG    1       22.378 -30.537   9.812  0.00  0.00    -0.481 OA
ATOM      4  C   LIG    1       22.256 -30.433  11.266  0.00  0.00    +0.217 C 
ATOM      5  C   LIG    1       23.615 -30.005  11.854  0.00  0.00    +0.048 C 
ATOM      6  C   LIG    1       23.667 -28.621  12.519  0.00  0.00    +0.043 C 
ATOM      7  C   LIG    1       25.129 -28.448  13.036  0.00  0.00    +0.069 C 
ATOM      8  N   LIG    1       25.561 -29.468  14.016  0.00  0.00    -0.301 NA
ATOM      9  C   LIG    1       25.783 -28.901  15.344  0.00  0.00    +0.105 C 
ATOM     10  C   LIG    1       24.690 -30.640  14.093  0.00  0.00    +0.085 C 
ATOM     11  C   LIG    1       26.145 -28.494  11.811  0.00  0.00    +0.055 C 
ATOM     12  C   LIG    1       25.608 -29.141  10.549  0.00  0.00    -0.038 A 
ATOM     13  C   LIG    1       26.186 -29.003   9.289  0.00  0.00    +0.008 A 
ATOM     14  C   LIG    1       22.489 -28.448  13.439  0.00  0.00    -0.023 C 
ATOM     15  C   LIG    1       21.276 -28.840  13.003  0.00  0.00    +0.004 C 
ATOM     16  C   LIG    1       24.246 -31.129  12.716  0.00  0.00    +0.031 C 
ATOM     17  C   LIG    1       21.097 -29.482  11.650  0.00  0.00    +0.178 C 
ATOM     18  C   LIG    1       24.387 -29.800  10.605  0.00  0.00    +0.012 A 
ATOM     19  C   LIG    1       25.487 -29.442   8.143  0.00  0.00    +0.050 A 
ENDROOT
BRANCH  17  20
ATOM     20  O   LIG    1       19.881 -30.231  11.691  0.00  0.00    -0.384 OA
ATOM     21  H   LIG    1       19.256 -29.788  11.094  0.00  0.00    +0.210 HD
ENDBRANCH  17  20
BRANCH   1  22
ATOM     22  O   LIG    1       23.599 -30.272   7.027  0.00  0.00    -0.489 OA
BRANCH  22  24
ATOM     23  C   LIG    1       23.546 -32.424   5.970  0.00  0.00    +0.048 C 
ATOM     24  C   LIG    1       24.325 -31.134   6.147  0.00  0.00    +0.226 C 
ENDBRANCH  22  24
ENDBRANCH   1  22
TORSDOF 3
ENDMDL
MODEL 9
REMARK VINA RESULT:      -5.5      7.773     10.781
REMARK  Name = *****
REMARK                            x       y       z     vdW  Elec       q    Type
REMARK                         _______ _______ _______ _____ _____    ______ ____
ROOT
ATOM      1  C   LIG    1       24.944 -29.007   7.756  0.00  0.00    +0.162 A 
ATOM      2  C   LIG    1       24.344 -29.780   8.733  0.00  0.00    +0.167 A 
ATOM      3  O   LIG    1       23.138 -30.430   8.658  0.00  0.00    -0.481 OA
ATOM      4  C   LIG    1       22.881 -31.001   9.980  0.00  0.00    +0.217 C 
ATOM      5  C   LIG    1       24.085 -30.708  10.895  0.00  0.00    +0.048 C 
ATOM      6  C   LIG    1       23.829 -29.771  12.086  0.00  0.00    +0.043 C 
ATOM      7  C   LIG    1       25.187 -29.661  12.844  0.00  0.00    +0.069 C 
ATOM      8  N   LIG    1       25.717 -30.945  13.351  0.00  0.00    -0.301 NA
ATOM      9  C   LIG    1       25.722 -31.005  14.811  0.00  0.00    +0.105 C 
ATOM     10  C   LIG    1       25.072 -32.130  12.787  0.00  0.00    +0.085 C 
ATOM     11  C   LIG    1       26.291 -29.026  11.889  0.00  0.00    +0.055 C 
ATOM     12  C   LIG    1       25.986 -29.105  10.406  0.00  0.00    -0.038 A 
ATOM     13  C   LIG    1       26.630 -28.348   9.430  0.00  0.00    +0.008 A 
ATOM     14  C   LIG    1       22.568 -30.179  12.798  0.00  0.00    -0.023 C 
ATOM     15  C   LIG    1       21.487 -30.489  12.055  0.00  0.00    +0.004 C 
ATOM     16  C   LIG    1       24.839 -32.008  11.283  0.00  0.00    +0.031 C 
ATOM     17  C   LIG    1       21.540 -30.478  10.548  0.00  0.00    +0.178 C 
ATOM     18  C   LIG    1       24.907 -29.872   9.987  0.00  0.00    +0.012 A 
ATOM     19  C   LIG    1       26.119 -28.316   8.114  0.00  0.00    +0.050 A 
ENDROOT
BRANCH  17  20
ATOM     20  O   LIG    1       20.483 -31.317  10.079  0.00  0.00    -0.384 OA
ATOM     21  H   LIG    1       19.652 -30.837  10.233  0.00  0.00    +0.210 HD
ENDBRANCH  17  20
BRANCH   1  22
ATOM     22  O   LIG    1       24.513 -28.798   6.475  0.00  0.00    -0.489 OA
BRANCH  22  24
ATOM     23  C   LIG    1       24.275 -26.547   5.685  0.00  0.00    +0.048 C 
ATOM     24  C   LIG    1       25.176 -27.766   5.742  0.00  0.00    +0.226 C 
ENDBRANCH  22  24
ENDBRANCH   1  22
TORSDOF 3
ENDMDL
