MODEL 1
REMARK VINA RESULT:      -7.5      0.000      0.000
REMARK  Name = *****
REMARK                            x       y       z     vdW  Elec       q    Type
REMARK                         _______ _______ _______ _____ _____    ______ ____
ROOT
ATOM      1  N   LIG    1       25.284 -21.023   6.780  0.00  0.00    -0.297 N 
ATOM      2  C   LIG    1       24.418 -20.409   5.840  0.00  0.00    +0.048 A 
ATOM      3  C   LIG    1       24.910 -19.754   4.687  0.00  0.00    +0.034 A 
ATOM      4  C   LIG    1       24.031 -19.197   3.749  0.00  0.00    +0.017 A 
ATOM      5  C   LIG    1       22.661 -19.183   3.966  0.00  0.00    +0.001 A 
ATOM      6  C   LIG    1       22.161 -19.733   5.146  0.00  0.00    +0.002 A 
ATOM      7  S   LIG    1       26.641 -19.574   4.337  0.00  0.00    -0.086 S 
ATOM      8  C   LIG    1       27.387 -20.128   5.850  0.00  0.00    +0.034 A 
ATOM      9  C   LIG    1       28.783 -20.057   5.911  0.00  0.00    +0.017 A 
ATOM     10  C   LIG    1       29.478 -20.528   7.008  0.00  0.00    +0.001 A 
ATOM     11  C   LIG    1       28.762 -20.963   8.129  0.00  0.00    +0.002 A 
ATOM     12  C   LIG    1       27.368 -21.003   8.085  0.00  0.00    +0.024 A 
ATOM     13  C   LIG    1       23.028 -20.341   6.054  0.00  0.00    +0.024 A 
ATOM     14  C   LIG    1       26.658 -20.715   6.915  0.00  0.00    +0.048 A 
ENDROOT
BRANCH   1  15
ATOM     15  C   LIG    1       24.831 -22.365   7.304  0.00  0.00    +0.129 C 
BRANCH  15  16
ATOM     16  C   LIG    1       24.261 -23.406   6.257  0.00  0.00    +0.071 C 
ATOM     17  C   LIG    1       22.891 -23.977   6.663  0.00  0.00    +0.026 C 
BRANCH  16  18
ATOM     18  N   LIG    1       25.172 -24.529   5.850  0.00  0.00    -0.299 NA
BRANCH  18  20
ATOM     19  C   LIG    1       25.957 -26.562   7.227  0.00  0.00    +0.020 C 
ATOM     20  C   LIG    1       26.057 -25.081   6.883  0.00  0.00    +0.081 C 
ENDBRANCH  18  20
BRANCH  18  21
ATOM     21  C   LIG    1       24.592 -25.620   5.032  0.00  0.00    +0.081 C 
ATOM     22  C   LIG    1       25.557 -26.432   4.168  0.00  0.00    +0.020 C 
ENDBRANCH  18  21
ENDBRANCH  16  18
ENDBRANCH  15  16
ENDBRANCH   1  15
TORSDOF 5
ENDMDL
MODEL 2
REMARK VINA RESULT:      -7.4      1.733      4.845
REMARK  Name = *****
REMARK                            x       y       z     vdW  Elec       q    Type
REMARK                         _______ _______ _______ _____ _____    ______ ____
ROOT
ATOM      1  N   LIG    1       25.501 -21.484   5.475  0.00  0.00    -0.297 N 
ATOM      2  C   LIG    1       24.620 -20.474   5.014  0.00  0.00    +0.048 A 
ATOM      3  C   LIG    1       23.225 -20.536   5.245  0.00  0.00    +0.034 A 
ATOM      4  C   LIG    1       22.382 -19.500   4.822  0.00  0.00    +0.017 A 
ATOM      5  C   LIG    1       22.868 -18.434   4.079  0.00  0.00    +0.001 A 
ATOM      6  C   LIG    1       24.224 -18.404   3.752  0.00  0.00    +0.002 A 
ATOM      7  S   LIG    1       22.436 -21.899   6.064  0.00  0.00    -0.086 S 
ATOM      8  C   LIG    1       23.755 -23.083   6.171  0.00  0.00    +0.034 A 
ATOM      9  C   LIG    1       23.428 -24.320   6.737  0.00  0.00    +0.017 A 
ATOM     10  C   LIG    1       24.389 -25.293   6.939  0.00  0.00    +0.001 A 
ATOM     11  C   LIG    1       25.682 -25.082   6.448  0.00  0.00    +0.002 A 
ATOM     12  C   LIG    1       26.003 -23.862   5.853  0.00  0.00    +0.024 A 
ATOM     13  C   LIG    1       25.076 -19.403   4.223  0.00  0.00    +0.024 A 
ATOM     14  C   LIG    1       25.097 -22.796   5.816  0.00  0.00    +0.048 A 
ENDROOT
BRANCH   1  15
ATOM     15  C   LIG    1       26.801 -20.995   6.066  0.00  0.00    +0.129 C 
BRANCH  15  16
ATOM     16  C   LIG    1       27.015 -21.185   7.622  0.00  0.00    +0.071 C 
ATOM     17  C   LIG    1       25.880 -20.572   8.464  0.00  0.00    +0.026 C 
BRANCH  16  18
ATOM     18  N   LIG    1       28.341 -20.760   8.184  0.00  0.00    -0.299 NA
BRANCH  18  20
ATOM     19  C   LIG    1       30.597 -21.733   8.968  0.00  0.00    +0.020 C 
ATOM     20  C   LIG    1       29.490 -21.637   7.924  0.00  0.00    +0.081 C 
ENDBRANCH  18  20
BRANCH  18  21
ATOM     21  C   LIG    1       28.731 -19.339   8.025  0.00  0.00    +0.081 C 
ATOM     22  C   LIG    1       29.649 -18.996   6.851  0.00  0.00    +0.020 C 
ENDBRANCH  18  21
ENDBRANCH  16  18
ENDBRANCH  15  16
ENDBRANCH   1  15
TORSDOF 5
ENDMDL
MODEL 3
REMARK VINA RESULT:      -6.6      1.912      5.086
REMARK  Name = *****
REMARK                            x       y       z     vdW  Elec       q    Type
REMARK                         _______ _______ _______ _____ _____    ______ ____
ROOT
ATOM      1  N   LIG    1       27.341 -20.345   6.668  0.00  0.00    -0.297 N 
ATOM      2  C   LIG    1       28.676 -20.316   7.146  0.00  0.00    +0.048 A 
ATOM      3  C   LIG    1       29.614 -19.363   6.685  0.00  0.00    +0.034 A 
ATOM      4  C   LIG    1       30.913 -19.326   7.209  0.00  0.00    +0.017 A 
ATOM      5  C   LIG    1       31.351 -20.278   8.118  0.00  0.00    +0.001 A 
ATOM      6  C   LIG    1       30.473 -21.289   8.509  0.00  0.00    +0.002 A 
ATOM      7  S   LIG    1       29.244 -18.164   5.430  0.00  0.00    -0.086 S 
ATOM      8  C   LIG    1       27.661 -18.715   4.843  0.00  0.00    +0.034 A 
ATOM      9  C   LIG    1       27.109 -17.986   3.784  0.00  0.00    +0.017 A 
ATOM     10  C   LIG    1       25.850 -18.276   3.294  0.00  0.00    +0.001 A 
ATOM     11  C   LIG    1       25.175 -19.402   3.780  0.00  0.00    +0.002 A 
ATOM     12  C   LIG    1       25.739 -20.151   4.813  0.00  0.00    +0.024 A 
ATOM     13  C   LIG    1       29.160 -21.294   8.035  0.00  0.00    +0.024 A 
ATOM     14  C   LIG    1       26.919 -19.758   5.452  0.00  0.00    +0.048 A 
ENDROOT
BRANCH   1  15
ATOM     15  C   LIG    1       26.279 -20.584   7.714  0.00  0.00    +0.129 C 
BRANCH  15  16
ATOM     16  C   LIG    1       25.628 -22.025   7.780  0.00  0.00    +0.071 C 
ATOM     17  C   LIG    1       26.445 -23.089   7.023  0.00  0.00    +0.026 C 
BRANCH  16  18
ATOM     18  N   LIG    1       24.181 -22.137   7.394  0.00  0.00    -0.299 NA
BRANCH  18  20
ATOM     19  C   LIG    1       22.664 -20.587   5.999  0.00  0.00    +0.020 C 
ATOM     20  C   LIG    1       23.418 -20.886   7.289  0.00  0.00    +0.081 C 
ENDBRANCH  18  20
BRANCH  18  21
ATOM     21  C   LIG    1       23.836 -23.045   6.275  0.00  0.00    +0.081 C 
ATOM     22  C   LIG    1       23.183 -24.379   6.636  0.00  0.00    +0.020 C 
ENDBRANCH  18  21
ENDBRANCH  16  18
ENDBRANCH  15  16
ENDBRANCH   1  15
TORSDOF 5
ENDMDL
MODEL 4
REMARK VINA RESULT:      -6.3      1.882      5.364
REMARK  Name = *****
REMARK                            x       y       z     vdW  Elec       q    Type
REMARK                         _______ _______ _______ _____ _____    ______ ____
ROOT
ATOM      1  N   LIG    1       25.866 -21.358   6.017  0.00  0.00    -0.297 N 
ATOM      2  C   LIG    1       25.282 -20.392   5.159  0.00  0.00    +0.048 A 
ATOM      3  C   LIG    1       23.938 -20.488   4.729  0.00  0.00    +0.034 A 
ATOM      4  C   LIG    1       23.372 -19.494   3.921  0.00  0.00    +0.017 A 
ATOM      5  C   LIG    1       24.132 -18.440   3.437  0.00  0.00    +0.001 A 
ATOM      6  C   LIG    1       25.486 -18.380   3.765  0.00  0.00    +0.002 A 
ATOM      7  S   LIG    1       22.877 -21.846   5.156  0.00  0.00    -0.086 S 
ATOM      8  C   LIG    1       24.013 -22.985   5.907  0.00  0.00    +0.034 A 
ATOM      9  C   LIG    1       23.477 -24.211   6.315  0.00  0.00    +0.017 A 
ATOM     10  C   LIG    1       24.248 -25.146   6.978  0.00  0.00    +0.001 A 
ATOM     11  C   LIG    1       25.620 -24.914   7.124  0.00  0.00    +0.002 A 
ATOM     12  C   LIG    1       26.165 -23.706   6.688  0.00  0.00    +0.024 A 
ATOM     13  C   LIG    1       26.039 -19.336   4.618  0.00  0.00    +0.024 A 
ATOM     14  C   LIG    1       25.365 -22.670   6.193  0.00  0.00    +0.048 A 
ENDROOT
BRANCH   1  15
ATOM     15  C   LIG    1       26.745 -20.811   7.115  0.00  0.00    +0.129 C 
BRANCH  15  16
ATOM     16  C   LIG    1       28.302 -20.742   6.841  0.00  0.00    +0.071 C 
ATOM     17  C   LIG    1       29.089 -21.848   7.567  0.00  0.00    +0.026 C 
BRANCH  16  18
ATOM     18  N   LIG    1       28.975 -19.418   7.065  0.00  0.00    -0.299 NA
BRANCH  18  20
ATOM     19  C   LIG    1       30.259 -17.859   8.668  0.00  0.00    +0.020 C 
ATOM     20  C   LIG    1       29.657 -19.223   8.351  0.00  0.00    +0.081 C 
ENDBRANCH  18  20
BRANCH  18  21
ATOM     21  C   LIG    1       29.794 -18.869   5.959  0.00  0.00    +0.081 C 
ATOM     22  C   LIG    1       29.118 -17.870   5.021  0.00  0.00    +0.020 C 
ENDBRANCH  18  21
ENDBRANCH  16  18
ENDBRANCH  15  16
ENDBRANCH   1  15
TORSDOF 5
ENDMDL
MODEL 5
REMARK VINA RESULT:      -6.0      1.989      4.890
REMARK  Name = *****
REMARK                            x       y       z     vdW  Elec       q    Type
REMARK                         _______ _______ _______ _____ _____    ______ ____
ROOT
ATOM      1  N   LIG    1       26.736 -20.595   5.465  0.00  0.00    -0.297 N 
ATOM      2  C   LIG    1       26.130 -21.789   5.930  0.00  0.00    +0.048 A 
ATOM      3  C   LIG    1       26.373 -22.294   7.229  0.00  0.00    +0.034 A 
ATOM      4  C   LIG    1       25.724 -23.450   7.681  0.00  0.00    +0.017 A 
ATOM      5  C   LIG    1       24.903 -24.190   6.843  0.00  0.00    +0.001 A 
ATOM      6  C   LIG    1       24.730 -23.765   5.525  0.00  0.00    +0.002 A 
ATOM      7  S   LIG    1       27.500 -21.534   8.372  0.00  0.00    -0.086 S 
ATOM      8  C   LIG    1       28.303 -20.322   7.352  0.00  0.00    +0.034 A 
ATOM      9  C   LIG    1       29.312 -19.572   7.966  0.00  0.00    +0.017 A 
ATOM     10  C   LIG    1       29.956 -18.551   7.295  0.00  0.00    +0.001 A 
ATOM     11  C   LIG    1       29.683 -18.354   5.936  0.00  0.00    +0.002 A 
ATOM     12  C   LIG    1       28.702 -19.124   5.311  0.00  0.00    +0.024 A 
ATOM     13  C   LIG    1       25.327 -22.582   5.090  0.00  0.00    +0.024 A 
ATOM     14  C   LIG    1       27.905 -20.026   6.024  0.00  0.00    +0.048 A 
ENDROOT
BRANCH   1  15
ATOM     15  C   LIG    1       25.838 -19.671   4.679  0.00  0.00    +0.129 C 
BRANCH  15  16
ATOM     16  C   LIG    1       24.398 -20.202   4.294  0.00  0.00    +0.071 C 
ATOM     17  C   LIG    1       24.084 -20.055   2.794  0.00  0.00    +0.026 C 
BRANCH  16  18
ATOM     18  N   LIG    1       23.242 -19.682   5.102  0.00  0.00    -0.299 NA
BRANCH  18  20
ATOM     19  C   LIG    1       22.185 -17.384   4.604  0.00  0.00    +0.020 C 
ATOM     20  C   LIG    1       22.230 -18.892   4.389  0.00  0.00    +0.081 C 
ENDBRANCH  18  20
BRANCH  18  21
ATOM     21  C   LIG    1       22.593 -20.616   6.050  0.00  0.00    +0.081 C 
ATOM     22  C   LIG    1       23.215 -20.743   7.440  0.00  0.00    +0.020 C 
ENDBRANCH  18  21
ENDBRANCH  16  18
ENDBRANCH  15  16
ENDBRANCH   1  15
TORSDOF 5
ENDMDL
MODEL 6
REMARK VINA RESULT:      -5.9      1.693      5.698
REMARK  Name = *****
REMARK                            x       y       z     vdW  Elec       q    Type
REMARK                         _______ _______ _______ _____ _____    ______ ____
ROOT
ATOM      1  N   LIG    1       25.094 -22.719   7.126  0.00  0.00    -0.297 N 
ATOM      2  C   LIG    1       25.348 -23.995   6.564  0.00  0.00    +0.048 A 
ATOM      3  C   LIG    1       25.041 -24.293   5.216  0.00  0.00    +0.034 A 
ATOM      4  C   LIG    1       25.346 -25.548   4.672  0.00  0.00    +0.017 A 
ATOM      5  C   LIG    1       25.866 -26.566   5.457  0.00  0.00    +0.001 A 
ATOM      6  C   LIG    1       26.082 -26.325   6.815  0.00  0.00    +0.002 A 
ATOM      7  S   LIG    1       24.253 -23.139   4.121  0.00  0.00    -0.086 S 
ATOM      8  C   LIG    1       23.784 -21.834   5.231  0.00  0.00    +0.034 A 
ATOM      9  C   LIG    1       23.077 -20.768   4.664  0.00  0.00    +0.017 A 
ATOM     10  C   LIG    1       22.724 -19.662   5.414  0.00  0.00    +0.001 A 
ATOM     11  C   LIG    1       22.966 -19.672   6.792  0.00  0.00    +0.002 A 
ATOM     12  C   LIG    1       23.642 -20.748   7.367  0.00  0.00    +0.024 A 
ATOM     13  C   LIG    1       25.835 -25.060   7.346  0.00  0.00    +0.024 A 
ATOM     14  C   LIG    1       24.177 -21.783   6.592  0.00  0.00    +0.048 A 
ENDROOT
BRANCH   1  15
ATOM     15  C   LIG    1       26.179 -22.173   8.023  0.00  0.00    +0.129 C 
BRANCH  15  16
ATOM     16  C   LIG    1       26.942 -20.873   7.543  0.00  0.00    +0.071 C 
ATOM     17  C   LIG    1       27.043 -20.767   6.010  0.00  0.00    +0.026 C 
BRANCH  16  18
ATOM     18  N   LIG    1       28.290 -20.610   8.153  0.00  0.00    -0.299 NA
BRANCH  18  20
ATOM     19  C   LIG    1       30.513 -21.699   8.872  0.00  0.00    +0.020 C 
ATOM     20  C   LIG    1       29.344 -21.601   7.900  0.00  0.00    +0.081 C 
ENDBRANCH  18  20
BRANCH  18  21
ATOM     21  C   LIG    1       28.836 -19.237   8.044  0.00  0.00    +0.081 C 
ATOM     22  C   LIG    1       29.727 -18.936   6.839  0.00  0.00    +0.020 C 
ENDBRANCH  18  21
ENDBRANCH  16  18
ENDBRANCH  15  16
ENDBRANCH   1  15
TORSDOF 5
ENDMDL
MODEL 7
REMARK VINA RESULT:      -5.6      2.580      6.307
REMARK  Name = *****
REMARK                            x       y       z     vdW  Elec       q    Type
REMARK                         _______ _______ _______ _____ _____    ______ ____
ROOT
ATOM      1  N   LIG    1       26.580 -20.087   5.803  0.00  0.00    -0.297 N 
ATOM      2  C   LIG    1       27.917 -19.981   6.261  0.00  0.00    +0.048 A 
ATOM      3  C   LIG    1       28.438 -20.844   7.253  0.00  0.00    +0.034 A 
ATOM      4  C   LIG    1       29.777 -20.749   7.654  0.00  0.00    +0.017 A 
ATOM      5  C   LIG    1       30.606 -19.748   7.167  0.00  0.00    +0.001 A 
ATOM      6  C   LIG    1       30.083 -18.823   6.263  0.00  0.00    +0.002 A 
ATOM      7  S   LIG    1       27.467 -22.088   8.066  0.00  0.00    -0.086 S 
ATOM      8  C   LIG    1       25.825 -21.700   7.512  0.00  0.00    +0.034 A 
ATOM      9  C   LIG    1       24.796 -22.491   8.033  0.00  0.00    +0.017 A 
ATOM     10  C   LIG    1       23.488 -22.330   7.618  0.00  0.00    +0.001 A 
ATOM     11  C   LIG    1       23.173 -21.269   6.761  0.00  0.00    +0.002 A 
ATOM     12  C   LIG    1       24.193 -20.457   6.266  0.00  0.00    +0.024 A 
ATOM     13  C   LIG    1       28.768 -18.950   5.817  0.00  0.00    +0.024 A 
ATOM     14  C   LIG    1       25.542 -20.727   6.521  0.00  0.00    +0.048 A 
ENDROOT
BRANCH   1  15
ATOM     15  C   LIG    1       26.387 -19.939   4.313  0.00  0.00    +0.129 C 
BRANCH  15  16
ATOM     16  C   LIG    1       24.944 -19.545   3.797  0.00  0.00    +0.071 C 
ATOM     17  C   LIG    1       24.425 -20.481   2.690  0.00  0.00    +0.026 C 
BRANCH  16  18
ATOM     18  N   LIG    1       24.735 -18.116   3.383  0.00  0.00    -0.299 NA
BRANCH  18  20
ATOM     19  C   LIG    1       22.342 -18.107   4.343  0.00  0.00    +0.020 C 
ATOM     20  C   LIG    1       23.648 -17.381   4.042  0.00  0.00    +0.081 C 
ENDBRANCH  18  20
BRANCH  18  21
ATOM     21  C   LIG    1       25.935 -17.256   3.257  0.00  0.00    +0.081 C 
ATOM     22  C   LIG    1       25.736 -15.751   3.433  0.00  0.00    +0.020 C 
ENDBRANCH  18  21
ENDBRANCH  16  18
ENDBRANCH  15  16
ENDBRANCH   1  15
TORSDOF 5
ENDMDL
MODEL 8
REMARK VINA RESULT:      -5.6      8.887     10.117
REMARK  Name = *****
REMARK                            x       y       z     vdW  Elec       q    Type
REMARK                         _______ _______ _______ _____ _____    ______ ____
ROOT
ATOM      1  N   LIG    1       24.310 -29.619  13.050  0.00  0.00    -0.297 N 
ATOM      2  C   LIG    1       23.266 -28.660  13.073  0.00  0.00    +0.048 A 
ATOM      3  C   LIG    1       23.514 -27.291  13.327  0.00  0.00    +0.034 A 
ATOM      4  C   LIG    1       22.471 -26.356  13.296  0.00  0.00    +0.017 A 
ATOM      5  C   LIG    1       21.154 -26.752  13.115  0.00  0.00    +0.001 A 
ATOM      6  C   LIG    1       20.875 -28.110  12.965  0.00  0.00    +0.002 A 
ATOM      7  S   LIG    1       25.126 -26.650  13.706  0.00  0.00    -0.086 S 
ATOM      8  C   LIG    1       26.074 -28.135  13.930  0.00  0.00    +0.034 A 
ATOM      9  C   LIG    1       27.412 -27.961  14.299  0.00  0.00    +0.017 A 
ATOM     10  C   LIG    1       28.266 -29.040  14.430  0.00  0.00    +0.001 A 
ATOM     11  C   LIG    1       27.745 -30.334  14.319  0.00  0.00    +0.002 A 
ATOM     12  C   LIG    1       26.403 -30.512  13.984  0.00  0.00    +0.024 A 
ATOM     13  C   LIG    1       21.917 -29.037  12.936  0.00  0.00    +0.024 A 
ATOM     14  C   LIG    1       25.574 -29.433  13.657  0.00  0.00    +0.048 A 
ENDROOT
BRANCH   1  15
ATOM     15  C   LIG    1       24.228 -30.646  11.947  0.00  0.00    +0.129 C 
BRANCH  15  16
ATOM     16  C   LIG    1       24.578 -30.172  10.478  0.00  0.00    +0.071 C 
ATOM     17  C   LIG    1       23.416 -30.374   9.488  0.00  0.00    +0.026 C 
BRANCH  16  18
ATOM     18  N   LIG    1       25.848 -30.702   9.876  0.00  0.00    -0.299 NA
BRANCH  18  20
ATOM     19  C   LIG    1       26.741 -32.039   7.860  0.00  0.00    +0.020 C 
ATOM     20  C   LIG    1       25.854 -30.937   8.426  0.00  0.00    +0.081 C 
ENDBRANCH  18  20
BRANCH  18  21
ATOM     21  C   LIG    1       27.122 -30.079  10.302  0.00  0.00    +0.081 C 
ATOM     22  C   LIG    1       27.141 -28.557  10.443  0.00  0.00    +0.020 C 
ENDBRANCH  18  21
ENDBRANCH  16  18
ENDBRANCH  15  16
ENDBRANCH   1  15
TORSDOF 5
ENDMDL
MODEL 9
REMARK VINA RESULT:      -5.5      5.694     10.251
REMARK  Name = *****
REMARK                            x       y       z     vdW  Elec       q    Type
REMARK                         _______ _______ _______ _____ _____    ______ ____
ROOT
ATOM      1  N   LIG    1       24.508 -30.684   7.756  0.00  0.00    -0.297 N 
ATOM      2  C   LIG    1       24.277 -30.957   9.128  0.00  0.00    +0.048 A 
ATOM      3  C   LIG    1       25.091 -31.855   9.859  0.00  0.00    +0.034 A 
ATOM      4  C   LIG    1       24.871 -32.071  11.225  0.00  0.00    +0.017 A 
ATOM      5  C   LIG    1       23.794 -31.492  11.882  0.00  0.00    +0.001 A 
ATOM      6  C   LIG    1       22.919 -30.684  11.156  0.00  0.00    +0.002 A 
ATOM      7  S   LIG    1       26.424 -32.772   9.129  0.00  0.00    -0.086 S 
ATOM      8  C   LIG    1       26.191 -32.453   7.397  0.00  0.00    +0.034 A 
ATOM      9  C   LIG    1       27.078 -33.096   6.528  0.00  0.00    +0.017 A 
ATOM     10  C   LIG    1       27.041 -32.867   5.166  0.00  0.00    +0.001 A 
ATOM     11  C   LIG    1       26.012 -32.078   4.638  0.00  0.00    +0.002 A 
ATOM     12  C   LIG    1       25.104 -31.462   5.501  0.00  0.00    +0.024 A 
ATOM     13  C   LIG    1       23.169 -30.419   9.809  0.00  0.00    +0.024 A 
ATOM     14  C   LIG    1       25.246 -31.526   6.891  0.00  0.00    +0.048 A 
ENDROOT
BRANCH   1  15
ATOM     15  C   LIG    1       24.374 -29.237   7.348  0.00  0.00    +0.129 C 
BRANCH  15  16
ATOM     16  C   LIG    1       25.678 -28.341   7.387  0.00  0.00    +0.071 C 
ATOM     17  C   LIG    1       26.311 -28.261   8.788  0.00  0.00    +0.026 C 
BRANCH  16  18
ATOM     18  N   LIG    1       25.573 -26.960   6.805  0.00  0.00    -0.299 NA
BRANCH  18  20
ATOM     19  C   LIG    1       26.714 -27.301   4.518  0.00  0.00    +0.020 C 
ATOM     20  C   LIG    1       26.609 -26.558   5.845  0.00  0.00    +0.081 C 
ENDBRANCH  18  20
BRANCH  18  21
ATOM     21  C   LIG    1       24.240 -26.510   6.342  0.00  0.00    +0.081 C 
ATOM     22  C   LIG    1       23.974 -25.005   6.341  0.00  0.00    +0.020 C 
ENDBRANCH  18  21
ENDBRANCH  16  18
ENDBRANCH  15  16
ENDBRANCH   1  15
TORSDOF 5
ENDMDL
