MODEL 1
REMARK VINA RESULT:      -7.1      0.000      0.000
REMARK  Name = *****
REMARK                            x       y       z     vdW  Elec       q    Type
REMARK                         _______ _______ _______ _____ _____    ______ ____
ROOT
ATOM      1  C   LIG    1       23.652 -21.472   6.729  0.00  0.00    +0.180 C 
ATOM      2  O   LIG    1       23.390 -21.096   7.883  0.00  0.00    -0.290 OA
ENDROOT
BRANCH   1   3
ATOM      3  C   LIG    1       23.617 -20.463   5.619  0.00  0.00    +0.019 A 
ATOM      4  C   LIG    1       22.473 -19.673   5.448  0.00  0.00    +0.011 A 
ATOM      5  C   LIG    1       22.418 -18.720   4.425  0.00  0.00    +0.001 A 
ATOM      6  C   LIG    1       23.507 -18.545   3.571  0.00  0.00    +0.000 A 
ATOM      7  C   LIG    1       24.644 -19.328   3.727  0.00  0.00    +0.001 A 
ATOM      8  C   LIG    1       24.690 -20.289   4.734  0.00  0.00    +0.011 A 
ENDBRANCH   1   3
BRANCH   1   9
ATOM      9  C   LIG    1       24.031 -22.946   6.458  0.00  0.00    +0.125 C 
ATOM     10  C   LIG    1       22.792 -23.808   6.767  0.00  0.00    +0.032 C 
BRANCH   9  11
ATOM     11  N   LIG    1       25.263 -23.357   7.198  0.00  0.00    -0.293 NA
BRANCH  11  13
ATOM     12  C   LIG    1       25.667 -25.264   5.554  0.00  0.00    +0.020 C 
ATOM     13  C   LIG    1       25.629 -24.769   6.997  0.00  0.00    +0.082 C 
ENDBRANCH  11  13
BRANCH  11  14
ATOM     14  C   LIG    1       26.399 -22.435   6.992  0.00  0.00    +0.082 C 
ATOM     15  C   LIG    1       26.814 -21.723   8.279  0.00  0.00    +0.020 C 
ENDBRANCH  11  14
ENDBRANCH   9  11
ENDBRANCH   1   9
TORSDOF 5
ENDMDL
MODEL 2
REMARK VINA RESULT:      -7.1      1.347      2.276
REMARK  Name = *****
REMARK                            x       y       z     vdW  Elec       q    Type
REMARK                         _______ _______ _______ _____ _____    ______ ____
ROOT
ATOM      1  C   LIG    1       25.536 -21.307   6.264  0.00  0.00    +0.180 C 
ATOM      2  O   LIG    1       26.757 -21.090   6.199  0.00  0.00    -0.290 OA
ENDROOT
BRANCH   1   3
ATOM      3  C   LIG    1       24.610 -20.444   5.458  0.00  0.00    +0.019 A 
ATOM      4  C   LIG    1       23.301 -20.236   5.911  0.00  0.00    +0.011 A 
ATOM      5  C   LIG    1       22.420 -19.429   5.181  0.00  0.00    +0.001 A 
ATOM      6  C   LIG    1       22.844 -18.819   4.001  0.00  0.00    +0.000 A 
ATOM      7  C   LIG    1       24.138 -19.023   3.540  0.00  0.00    +0.001 A 
ATOM      8  C   LIG    1       25.008 -19.841   4.257  0.00  0.00    +0.011 A 
ENDBRANCH   1   3
BRANCH   1   9
ATOM      9  C   LIG    1       24.996 -22.461   7.138  0.00  0.00    +0.125 C 
ATOM     10  C   LIG    1       25.850 -22.512   8.419  0.00  0.00    +0.032 C 
BRANCH   9  11
ATOM     11  N   LIG    1       24.934 -23.754   6.390  0.00  0.00    -0.293 NA
BRANCH  11  13
ATOM     12  C   LIG    1       25.798 -26.134   6.703  0.00  0.00    +0.020 C 
ATOM     13  C   LIG    1       26.087 -24.636   6.643  0.00  0.00    +0.082 C 
ENDBRANCH  11  13
BRANCH  11  14
ATOM     14  C   LIG    1       23.638 -24.448   6.536  0.00  0.00    +0.082 C 
ATOM     15  C   LIG    1       22.480 -23.477   6.769  0.00  0.00    +0.020 C 
ENDBRANCH  11  14
ENDBRANCH   9  11
ENDBRANCH   1   9
TORSDOF 5
ENDMDL
MODEL 3
REMARK VINA RESULT:      -7.0      2.881      4.800
REMARK  Name = *****
REMARK                            x       y       z     vdW  Elec       q    Type
REMARK                         _______ _______ _______ _____ _____    ______ ____
ROOT
ATOM      1  C   LIG    1       26.243 -20.768   8.358  0.00  0.00    +0.180 C 
ATOM      2  O   LIG    1       26.000 -20.434   9.529  0.00  0.00    -0.290 OA
ENDROOT
BRANCH   1   3
ATOM      3  C   LIG    1       25.451 -21.889   7.752  0.00  0.00    +0.019 A 
ATOM      4  C   LIG    1       24.102 -21.683   7.439  0.00  0.00    +0.011 A 
ATOM      5  C   LIG    1       23.344 -22.710   6.867  0.00  0.00    +0.001 A 
ATOM      6  C   LIG    1       23.930 -23.946   6.596  0.00  0.00    +0.000 A 
ATOM      7  C   LIG    1       25.266 -24.163   6.908  0.00  0.00    +0.001 A 
ATOM      8  C   LIG    1       26.015 -23.146   7.494  0.00  0.00    +0.011 A 
ENDBRANCH   1   3
BRANCH   1   9
ATOM      9  C   LIG    1       27.323 -20.020   7.544  0.00  0.00    +0.125 C 
ATOM     10  C   LIG    1       27.247 -20.530   6.092  0.00  0.00    +0.032 C 
BRANCH   9  11
ATOM     11  N   LIG    1       28.678 -20.136   8.164  0.00  0.00    -0.293 NA
BRANCH  11  13
ATOM     12  C   LIG    1       30.583 -21.721   8.766  0.00  0.00    +0.020 C 
ATOM     13  C   LIG    1       29.291 -21.465   7.996  0.00  0.00    +0.082 C 
ENDBRANCH  11  13
BRANCH  11  14
ATOM     14  C   LIG    1       29.586 -19.033   7.786  0.00  0.00    +0.082 C 
ATOM     15  C   LIG    1       29.956 -18.148   8.976  0.00  0.00    +0.020 C 
ENDBRANCH  11  14
ENDBRANCH   9  11
ENDBRANCH   1   9
TORSDOF 5
ENDMDL
MODEL 4
REMARK VINA RESULT:      -6.9      1.256      2.198
REMARK  Name = *****
REMARK                            x       y       z     vdW  Elec       q    Type
REMARK                         _______ _______ _______ _____ _____    ______ ____
ROOT
ATOM      1  C   LIG    1       24.226 -22.449   6.338  0.00  0.00    +0.180 C 
ATOM      2  O   LIG    1       23.322 -22.954   7.023  0.00  0.00    -0.290 OA
ENDROOT
BRANCH   1   3
ATOM      3  C   LIG    1       23.905 -21.249   5.497  0.00  0.00    +0.019 A 
ATOM      4  C   LIG    1       22.817 -20.439   5.846  0.00  0.00    +0.011 A 
ATOM      5  C   LIG    1       22.502 -19.310   5.082  0.00  0.00    +0.001 A 
ATOM      6  C   LIG    1       23.275 -18.978   3.970  0.00  0.00    +0.000 A 
ATOM      7  C   LIG    1       24.352 -19.779   3.610  0.00  0.00    +0.001 A 
ATOM      8  C   LIG    1       24.654 -20.912   4.361  0.00  0.00    +0.011 A 
ENDBRANCH   1   3
BRANCH   1   9
ATOM      9  C   LIG    1       25.654 -23.039   6.379  0.00  0.00    +0.125 C 
ATOM     10  C   LIG    1       25.524 -24.556   6.612  0.00  0.00    +0.032 C 
BRANCH   9  11
ATOM     11  N   LIG    1       26.524 -22.339   7.373  0.00  0.00    -0.293 NA
BRANCH  11  13
ATOM     12  C   LIG    1       28.791 -21.216   7.038  0.00  0.00    +0.020 C 
ATOM     13  C   LIG    1       27.283 -21.212   6.801  0.00  0.00    +0.082 C 
ENDBRANCH  11  13
BRANCH  11  14
ATOM     14  C   LIG    1       25.813 -21.979   8.617  0.00  0.00    +0.082 C 
ATOM     15  C   LIG    1       25.833 -20.475   8.887  0.00  0.00    +0.020 C 
ENDBRANCH  11  14
ENDBRANCH   9  11
ENDBRANCH   1   9
TORSDOF 5
ENDMDL
MODEL 5
REMARK VINA RESULT:      -6.9      1.654      4.802
REMARK  Name = *****
REMARK                            x       y       z     vdW  Elec       q    Type
REMARK                         _______ _______ _______ _____ _____    ______ ____
ROOT
ATOM      1  C   LIG    1       25.111 -21.988   7.752  0.00  0.00    +0.180 C 
ATOM      2  O   LIG    1       25.374 -21.883   8.961  0.00  0.00    -0.290 OA
ENDROOT
BRANCH   1   3
ATOM      3  C   LIG    1       24.957 -23.361   7.166  0.00  0.00    +0.019 A 
ATOM      4  C   LIG    1       26.094 -24.158   6.982  0.00  0.00    +0.011 A 
ATOM      5  C   LIG    1       25.976 -25.444   6.444  0.00  0.00    +0.001 A 
ATOM      6  C   LIG    1       24.723 -25.946   6.095  0.00  0.00    +0.000 A 
ATOM      7  C   LIG    1       23.589 -25.161   6.267  0.00  0.00    +0.001 A 
ATOM      8  C   LIG    1       23.710 -23.874   6.785  0.00  0.00    +0.011 A 
ENDBRANCH   1   3
BRANCH   1   9
ATOM      9  C   LIG    1       24.922 -20.723   6.885  0.00  0.00    +0.125 C 
ATOM     10  C   LIG    1       23.407 -20.475   6.749  0.00  0.00    +0.032 C 
BRANCH   9  11
ATOM     11  N   LIG    1       25.647 -20.818   5.582  0.00  0.00    -0.293 NA
BRANCH  11  13
ATOM     12  C   LIG    1       24.959 -19.421   3.562  0.00  0.00    +0.020 C 
ATOM     13  C   LIG    1       24.769 -20.677   4.407  0.00  0.00    +0.082 C 
ENDBRANCH  11  13
BRANCH  11  14
ATOM     14  C   LIG    1       26.839 -19.948   5.515  0.00  0.00    +0.082 C 
ATOM     15  C   LIG    1       27.973 -20.443   6.414  0.00  0.00    +0.020 C 
ENDBRANCH  11  14
ENDBRANCH   9  11
ENDBRANCH   1   9
TORSDOF 5
ENDMDL
MODEL 6
REMARK VINA RESULT:      -6.9      3.363      4.892
REMARK  Name = *****
REMARK                            x       y       z     vdW  Elec       q    Type
REMARK                         _______ _______ _______ _____ _____    ______ ____
ROOT
ATOM      1  C   LIG    1       27.318 -20.747   7.821  0.00  0.00    +0.180 C 
ATOM      2  O   LIG    1       27.425 -21.548   8.765  0.00  0.00    -0.290 OA
ENDROOT
BRANCH   1   3
ATOM      3  C   LIG    1       26.009 -20.667   7.092  0.00  0.00    +0.019 A 
ATOM      4  C   LIG    1       24.815 -20.807   7.811  0.00  0.00    +0.011 A 
ATOM      5  C   LIG    1       23.581 -20.730   7.155  0.00  0.00    +0.001 A 
ATOM      6  C   LIG    1       23.532 -20.504   5.780  0.00  0.00    +0.000 A 
ATOM      7  C   LIG    1       24.710 -20.370   5.056  0.00  0.00    +0.001 A 
ATOM      8  C   LIG    1       25.937 -20.465   5.707  0.00  0.00    +0.011 A 
ENDBRANCH   1   3
BRANCH   1   9
ATOM      9  C   LIG    1       28.506 -19.838   7.433  0.00  0.00    +0.125 C 
ATOM     10  C   LIG    1       29.037 -20.325   6.071  0.00  0.00    +0.032 C 
BRANCH   9  11
ATOM     11  N   LIG    1       29.543 -19.776   8.508  0.00  0.00    -0.293 NA
BRANCH  11  13
ATOM     12  C   LIG    1       30.965 -21.800   9.131  0.00  0.00    +0.020 C 
ATOM     13  C   LIG    1       30.735 -20.593   8.226  0.00  0.00    +0.082 C 
ENDBRANCH  11  13
BRANCH  11  14
ATOM     14  C   LIG    1       29.876 -18.394   8.914  0.00  0.00    +0.082 C 
ATOM     15  C   LIG    1       31.347 -18.054   8.672  0.00  0.00    +0.020 C 
ENDBRANCH  11  14
ENDBRANCH   9  11
ENDBRANCH   1   9
TORSDOF 5
ENDMDL
MODEL 7
REMARK VINA RESULT:      -6.8      2.387      4.775
REMARK  Name = *****
REMARK                            x       y       z     vdW  Elec       q    Type
REMARK                         _______ _______ _______ _____ _____    ______ ____
ROOT
ATOM      1  C   LIG    1       25.805 -21.398   7.913  0.00  0.00    +0.180 C 
ATOM      2  O   LIG    1       25.950 -21.274   9.140  0.00  0.00    -0.290 OA
ENDROOT
BRANCH   1   3
ATOM      3  C   LIG    1       25.115 -22.624   7.391  0.00  0.00    +0.019 A 
ATOM      4  C   LIG    1       25.870 -23.771   7.118  0.00  0.00    +0.011 A 
ATOM      5  C   LIG    1       25.248 -24.929   6.638  0.00  0.00    +0.001 A 
ATOM      6  C   LIG    1       23.869 -24.951   6.434  0.00  0.00    +0.000 A 
ATOM      7  C   LIG    1       23.111 -23.816   6.695  0.00  0.00    +0.001 A 
ATOM      8  C   LIG    1       23.733 -22.659   7.156  0.00  0.00    +0.011 A 
ENDBRANCH   1   3
BRANCH   1   9
ATOM      9  C   LIG    1       26.307 -20.294   6.956  0.00  0.00    +0.125 C 
ATOM     10  C   LIG    1       25.690 -20.564   5.570  0.00  0.00    +0.032 C 
BRANCH   9  11
ATOM     11  N   LIG    1       27.798 -20.185   6.952  0.00  0.00    -0.293 NA
BRANCH  11  13
ATOM     12  C   LIG    1       29.578 -21.396   8.320  0.00  0.00    +0.020 C 
ATOM     13  C   LIG    1       28.482 -21.453   7.259  0.00  0.00    +0.082 C 
ENDBRANCH  11  13
BRANCH  11  14
ATOM     14  C   LIG    1       28.329 -19.524   5.742  0.00  0.00    +0.082 C 
ATOM     15  C   LIG    1       29.569 -18.680   6.035  0.00  0.00    +0.020 C 
ENDBRANCH  11  14
ENDBRANCH   9  11
ENDBRANCH   1   9
TORSDOF 5
ENDMDL
MODEL 8
REMARK VINA RESULT:      -6.8      1.687      5.560
REMARK  Name = *****
REMARK                            x       y       z     vdW  Elec       q    Type
REMARK                         _______ _______ _______ _____ _____    ______ ____
ROOT
ATOM      1  C   LIG    1       23.733 -23.717   6.489  0.00  0.00    +0.180 C 
ATOM      2  O   LIG    1       22.526 -23.798   6.773  0.00  0.00    -0.290 OA
ENDROOT
BRANCH   1   3
ATOM      3  C   LIG    1       24.495 -24.983   6.225  0.00  0.00    +0.019 A 
ATOM      4  C   LIG    1       25.868 -25.025   6.495  0.00  0.00    +0.011 A 
ATOM      5  C   LIG    1       26.599 -26.195   6.264  0.00  0.00    +0.001 A 
ATOM      6  C   LIG    1       25.962 -27.333   5.770  0.00  0.00    +0.000 A 
ATOM      7  C   LIG    1       24.601 -27.301   5.492  0.00  0.00    +0.001 A 
ATOM      8  C   LIG    1       23.879 -26.130   5.705  0.00  0.00    +0.011 A 
ENDBRANCH   1   3
BRANCH   1   9
ATOM      9  C   LIG    1       24.417 -22.336   6.388  0.00  0.00    +0.125 C 
ATOM     10  C   LIG    1       24.483 -21.744   7.809  0.00  0.00    +0.032 C 
BRANCH   9  11
ATOM     11  N   LIG    1       23.752 -21.449   5.385  0.00  0.00    -0.293 NA
BRANCH  11  13
ATOM     12  C   LIG    1       22.379 -19.330   5.023  0.00  0.00    +0.020 C 
ATOM     13  C   LIG    1       23.009 -20.329   5.989  0.00  0.00    +0.082 C 
ENDBRANCH  11  13
BRANCH  11  14
ATOM     14  C   LIG    1       24.658 -21.018   4.300  0.00  0.00    +0.082 C 
ATOM     15  C   LIG    1       25.843 -20.204   4.819  0.00  0.00    +0.020 C 
ENDBRANCH  11  14
ENDBRANCH   9  11
ENDBRANCH   1   9
TORSDOF 5
ENDMDL
MODEL 9
REMARK VINA RESULT:      -6.7      2.411      5.039
REMARK  Name = *****
REMARK                            x       y       z     vdW  Elec       q    Type
REMARK                         _______ _______ _______ _____ _____    ______ ____
ROOT
ATOM      1  C   LIG    1       25.921 -20.109   4.965  0.00  0.00    +0.180 C 
ATOM      2  O   LIG    1       25.991 -19.195   4.127  0.00  0.00    -0.290 OA
ENDROOT
BRANCH   1   3
ATOM      3  C   LIG    1       27.082 -20.324   5.892  0.00  0.00    +0.019 A 
ATOM      4  C   LIG    1       26.948 -21.217   6.962  0.00  0.00    +0.011 A 
ATOM      5  C   LIG    1       28.017 -21.440   7.835  0.00  0.00    +0.001 A 
ATOM      6  C   LIG    1       29.230 -20.779   7.641  0.00  0.00    +0.000 A 
ATOM      7  C   LIG    1       29.372 -19.886   6.587  0.00  0.00    +0.001 A 
ATOM      8  C   LIG    1       28.301 -19.651   5.729  0.00  0.00    +0.011 A 
ENDBRANCH   1   3
BRANCH   1   9
ATOM      9  C   LIG    1       24.650 -20.982   5.060  0.00  0.00    +0.125 C 
ATOM     10  C   LIG    1       24.217 -21.330   3.622  0.00  0.00    +0.032 C 
BRANCH   9  11
ATOM     11  N   LIG    1       23.582 -20.336   5.882  0.00  0.00    -0.293 NA
BRANCH  11  13
ATOM     12  C   LIG    1       22.264 -18.555   4.617  0.00  0.00    +0.020 C 
ATOM     13  C   LIG    1       22.372 -19.994   5.114  0.00  0.00    +0.082 C 
ENDBRANCH  11  13
BRANCH  11  14
ATOM     14  C   LIG    1       23.282 -21.073   7.127  0.00  0.00    +0.082 C 
ATOM     15  C   LIG    1       23.213 -22.584   6.908  0.00  0.00    +0.020 C 
ENDBRANCH  11  14
ENDBRANCH   9  11
ENDBRANCH   1   9
TORSDOF 5
ENDMDL
