MODEL 1
REMARK VINA RESULT:      -6.5      0.000      0.000
REMARK  Name = *****
REMARK                            x       y       z     vdW  Elec       q    Type
REMARK                         _______ _______ _______ _____ _____    ______ ____
ROOT
ATOM      1  C   LIG    1       30.411 -19.785   8.041  0.00  0.00    +0.174 C 
ATOM      2  C   LIG    1       29.161 -20.692   7.951  0.00  0.00    +0.061 C 
ATOM      3  C   LIG    1       27.996 -20.038   7.195  0.00  0.00    +0.005 C 
ATOM      4  C   LIG    1       28.413 -19.597   5.798  0.00  0.00    +0.000 C 
ATOM      5  C   LIG    1       29.629 -18.680   5.844  0.00  0.00    +0.005 C 
ATOM      6  C   LIG    1       30.787 -19.310   6.618  0.00  0.00    +0.061 C 
ENDROOT
BRANCH   1   8
ATOM      7  C   LIG    1       29.956 -17.712   9.601  0.00  0.00    +0.008 C 
ATOM      8  C   LIG    1       30.162 -18.648   8.896  0.00  0.00    -0.058 C 
ENDBRANCH   1   8
BRANCH   1   9
ATOM      9  O   LIG    1       31.585 -20.512   8.497  0.00  0.00    -0.431 OA
BRANCH   9  10
ATOM     10  C   LIG    1       31.459 -21.679   9.163  0.00  0.00    +0.399 C 
ATOM     11  O   LIG    1       30.958 -21.859  10.258  0.00  0.00    -0.227 OA
ATOM     12  N   LIG    1       32.008 -22.676   8.430  0.00  0.00    -0.295 N 
ATOM     13  H   LIG    1       32.070 -23.597   8.838  0.00  0.00    +0.148 HD
ATOM     14  H   LIG    1       32.541 -22.451   7.604  0.00  0.00    +0.148 HD
ENDBRANCH   9  10
ENDBRANCH   1   9
TORSDOF 3
ENDMDL
MODEL 2
REMARK VINA RESULT:      -6.2      5.582      6.715
REMARK  Name = *****
REMARK                            x       y       z     vdW  Elec       q    Type
REMARK                         _______ _______ _______ _____ _____    ______ ____
ROOT
ATOM      1  C   LIG    1       24.570 -21.615   5.342  0.00  0.00    +0.174 C 
ATOM      2  C   LIG    1       23.254 -21.357   6.115  0.00  0.00    +0.061 C 
ATOM      3  C   LIG    1       22.795 -19.894   6.048  0.00  0.00    +0.005 C 
ATOM      4  C   LIG    1       22.648 -19.419   4.608  0.00  0.00    +0.000 C 
ATOM      5  C   LIG    1       23.933 -19.633   3.818  0.00  0.00    +0.005 C 
ATOM      6  C   LIG    1       24.415 -21.082   3.899  0.00  0.00    +0.061 C 
ENDROOT
BRANCH   1   8
ATOM      7  C   LIG    1       26.604 -20.439   6.533  0.00  0.00    +0.008 C 
ATOM      8  C   LIG    1       25.685 -20.970   5.995  0.00  0.00    -0.058 C 
ENDBRANCH   1   8
BRANCH   1   9
ATOM      9  O   LIG    1       24.837 -23.035   5.172  0.00  0.00    -0.431 OA
BRANCH   9  10
ATOM     10  C   LIG    1       24.753 -23.883   6.218  0.00  0.00    +0.399 C 
ATOM     11  O   LIG    1       25.492 -23.948   7.183  0.00  0.00    -0.227 OA
ATOM     12  N   LIG    1       23.699 -24.713   6.040  0.00  0.00    -0.295 N 
ATOM     13  H   LIG    1       23.561 -25.465   6.699  0.00  0.00    +0.148 HD
ATOM     14  H   LIG    1       23.212 -24.717   5.157  0.00  0.00    +0.148 HD
ENDBRANCH   9  10
ENDBRANCH   1   9
TORSDOF 3
ENDMDL
MODEL 3
REMARK VINA RESULT:      -6.2      4.888      6.381
REMARK  Name = *****
REMARK                            x       y       z     vdW  Elec       q    Type
REMARK                         _______ _______ _______ _____ _____    ______ ____
ROOT
ATOM      1  C   LIG    1       24.711 -21.434   6.490  0.00  0.00    +0.174 C 
ATOM      2  C   LIG    1       23.405 -21.844   7.210  0.00  0.00    +0.061 C 
ATOM      3  C   LIG    1       22.803 -23.148   6.668  0.00  0.00    +0.005 C 
ATOM      4  C   LIG    1       23.805 -24.294   6.727  0.00  0.00    +0.000 C 
ATOM      5  C   LIG    1       25.100 -23.938   6.006  0.00  0.00    +0.005 C 
ATOM      6  C   LIG    1       25.695 -22.627   6.520  0.00  0.00    +0.061 C 
ENDROOT
BRANCH   1   8
ATOM      7  C   LIG    1       24.226 -20.718   4.002  0.00  0.00    +0.008 C 
ATOM      8  C   LIG    1       24.445 -21.041   5.126  0.00  0.00    -0.058 C 
ENDBRANCH   1   8
BRANCH   1   9
ATOM      9  O   LIG    1       25.416 -20.373   7.192  0.00  0.00    -0.431 OA
BRANCH   9  10
ATOM     10  C   LIG    1       26.169 -20.647   8.278  0.00  0.00    +0.399 C 
ATOM     11  O   LIG    1       25.792 -21.057   9.361  0.00  0.00    -0.227 OA
ATOM     12  N   LIG    1       27.466 -20.373   8.005  0.00  0.00    -0.295 N 
ATOM     13  H   LIG    1       28.142 -20.443   8.752  0.00  0.00    +0.148 HD
ATOM     14  H   LIG    1       27.705 -19.896   7.149  0.00  0.00    +0.148 HD
ENDBRANCH   9  10
ENDBRANCH   1   9
TORSDOF 3
ENDMDL
MODEL 4
REMARK VINA RESULT:      -6.2      5.136      6.637
REMARK  Name = *****
REMARK                            x       y       z     vdW  Elec       q    Type
REMARK                         _______ _______ _______ _____ _____    ______ ____
ROOT
ATOM      1  C   LIG    1       24.060 -21.173   6.720  0.00  0.00    +0.174 C 
ATOM      2  C   LIG    1       25.164 -21.111   5.638  0.00  0.00    +0.061 C 
ATOM      3  C   LIG    1       24.609 -21.169   4.208  0.00  0.00    +0.005 C 
ATOM      4  C   LIG    1       23.584 -20.070   3.961  0.00  0.00    +0.000 C 
ATOM      5  C   LIG    1       22.464 -20.111   4.993  0.00  0.00    +0.005 C 
ATOM      6  C   LIG    1       23.006 -20.081   6.422  0.00  0.00    +0.061 C 
ENDROOT
BRANCH   1   8
ATOM      7  C   LIG    1       22.921 -23.548   6.764  0.00  0.00    +0.008 C 
ATOM      8  C   LIG    1       23.435 -22.475   6.744  0.00  0.00    -0.058 C 
ENDBRANCH   1   8
BRANCH   1   9
ATOM      9  O   LIG    1       24.565 -20.830   8.041  0.00  0.00    -0.431 OA
BRANCH   9  10
ATOM     10  C   LIG    1       25.774 -21.267   8.451  0.00  0.00    +0.399 C 
ATOM     11  O   LIG    1       26.064 -22.374   8.865  0.00  0.00    -0.227 OA
ATOM     12  N   LIG    1       26.671 -20.257   8.358  0.00  0.00    -0.295 N 
ATOM     13  H   LIG    1       27.603 -20.405   8.716  0.00  0.00    +0.148 HD
ATOM     14  H   LIG    1       26.349 -19.323   8.153  0.00  0.00    +0.148 HD
ENDBRANCH   9  10
ENDBRANCH   1   9
TORSDOF 3
ENDMDL
MODEL 5
REMARK VINA RESULT:      -5.9      5.794      7.222
REMARK  Name = *****
REMARK                            x       y       z     vdW  Elec       q    Type
REMARK                         _______ _______ _______ _____ _____    ______ ____
ROOT
ATOM      1  C   LIG    1       24.870 -21.280   5.918  0.00  0.00    +0.174 C 
ATOM      2  C   LIG    1       24.361 -20.859   7.317  0.00  0.00    +0.061 C 
ATOM      3  C   LIG    1       25.394 -21.091   8.428  0.00  0.00    +0.005 C 
ATOM      4  C   LIG    1       26.710 -20.386   8.125  0.00  0.00    +0.000 C 
ATOM      5  C   LIG    1       27.259 -20.793   6.763  0.00  0.00    +0.005 C 
ATOM      6  C   LIG    1       26.229 -20.591   5.652  0.00  0.00    +0.061 C 
ENDROOT
BRANCH   1   8
ATOM      7  C   LIG    1       25.131 -23.896   5.763  0.00  0.00    +0.008 C 
ATOM      8  C   LIG    1       25.013 -22.714   5.833  0.00  0.00    -0.058 C 
ENDBRANCH   1   8
BRANCH   1   9
ATOM      9  O   LIG    1       24.009 -20.794   4.851  0.00  0.00    -0.431 OA
BRANCH   9  10
ATOM     10  C   LIG    1       22.752 -20.377   5.115  0.00  0.00    +0.399 C 
ATOM     11  O   LIG    1       22.393 -19.263   5.449  0.00  0.00    -0.227 OA
ATOM     12  N   LIG    1       21.896 -21.416   4.974  0.00  0.00    -0.295 N 
ATOM     13  H   LIG    1       20.928 -21.282   5.226  0.00  0.00    +0.148 HD
ATOM     14  H   LIG    1       22.260 -22.348   4.844  0.00  0.00    +0.148 HD
ENDBRANCH   9  10
ENDBRANCH   1   9
TORSDOF 3
ENDMDL
MODEL 6
REMARK VINA RESULT:      -5.9      3.842      5.489
REMARK  Name = *****
REMARK                            x       y       z     vdW  Elec       q    Type
REMARK                         _______ _______ _______ _____ _____    ______ ____
ROOT
ATOM      1  C   LIG    1       25.888 -21.129   6.777  0.00  0.00    +0.174 C 
ATOM      2  C   LIG    1       25.605 -20.622   5.343  0.00  0.00    +0.061 C 
ATOM      3  C   LIG    1       24.189 -20.957   4.855  0.00  0.00    +0.005 C 
ATOM      4  C   LIG    1       23.128 -20.423   5.809  0.00  0.00    +0.000 C 
ATOM      5  C   LIG    1       23.357 -20.920   7.231  0.00  0.00    +0.005 C 
ATOM      6  C   LIG    1       24.773 -20.615   7.718  0.00  0.00    +0.061 C 
ENDROOT
BRANCH   1   8
ATOM      7  C   LIG    1       25.990 -23.760   6.840  0.00  0.00    +0.008 C 
ATOM      8  C   LIG    1       25.944 -22.571   6.812  0.00  0.00    -0.058 C 
ENDBRANCH   1   8
BRANCH   1   9
ATOM      9  O   LIG    1       27.109 -20.563   7.329  0.00  0.00    -0.431 OA
BRANCH   9  10
ATOM     10  C   LIG    1       28.201 -20.391   6.554  0.00  0.00    +0.399 C 
ATOM     11  O   LIG    1       28.362 -19.571   5.668  0.00  0.00    -0.227 OA
ATOM     12  N   LIG    1       29.139 -21.307   6.890  0.00  0.00    -0.295 N 
ATOM     13  H   LIG    1       29.980 -21.362   6.335  0.00  0.00    +0.148 HD
ATOM     14  H   LIG    1       28.900 -22.055   7.523  0.00  0.00    +0.148 HD
ENDBRANCH   9  10
ENDBRANCH   1   9
TORSDOF 3
ENDMDL
MODEL 7
REMARK VINA RESULT:      -5.8      5.743      7.161
REMARK  Name = *****
REMARK                            x       y       z     vdW  Elec       q    Type
REMARK                         _______ _______ _______ _____ _____    ______ ____
ROOT
ATOM      1  C   LIG    1       24.518 -21.357   6.305  0.00  0.00    +0.174 C 
ATOM      2  C   LIG    1       25.213 -22.568   5.638  0.00  0.00    +0.061 C 
ATOM      3  C   LIG    1       24.973 -23.887   6.386  0.00  0.00    +0.005 C 
ATOM      4  C   LIG    1       23.486 -24.173   6.552  0.00  0.00    +0.000 C 
ATOM      5  C   LIG    1       22.768 -23.012   7.230  0.00  0.00    +0.005 C 
ATOM      6  C   LIG    1       23.021 -21.689   6.508  0.00  0.00    +0.061 C 
ENDROOT
BRANCH   1   8
ATOM      7  C   LIG    1       25.645 -20.786   8.617  0.00  0.00    +0.008 C 
ATOM      8  C   LIG    1       25.136 -21.044   7.572  0.00  0.00    -0.058 C 
ENDBRANCH   1   8
BRANCH   1   9
ATOM      9  O   LIG    1       24.511 -20.185   5.444  0.00  0.00    -0.431 OA
BRANCH   9  10
ATOM     10  C   LIG    1       24.928 -20.268   4.163  0.00  0.00    +0.399 C 
ATOM     11  O   LIG    1       24.276 -20.593   3.188  0.00  0.00    -0.227 OA
ATOM     12  N   LIG    1       26.241 -19.946   4.098  0.00  0.00    -0.295 N 
ATOM     13  H   LIG    1       26.720 -20.049   3.215  0.00  0.00    +0.148 HD
ATOM     14  H   LIG    1       26.769 -19.832   4.950  0.00  0.00    +0.148 HD
ENDBRANCH   9  10
ENDBRANCH   1   9
TORSDOF 3
ENDMDL
MODEL 8
REMARK VINA RESULT:      -5.8      3.639      5.134
REMARK  Name = *****
REMARK                            x       y       z     vdW  Elec       q    Type
REMARK                         _______ _______ _______ _____ _____    ______ ____
ROOT
ATOM      1  C   LIG    1       26.103 -21.526   6.910  0.00  0.00    +0.174 C 
ATOM      2  C   LIG    1       25.193 -20.922   8.007  0.00  0.00    +0.061 C 
ATOM      3  C   LIG    1       23.710 -20.900   7.613  0.00  0.00    +0.005 C 
ATOM      4  C   LIG    1       23.210 -22.289   7.237  0.00  0.00    +0.000 C 
ATOM      5  C   LIG    1       24.066 -22.910   6.140  0.00  0.00    +0.005 C 
ATOM      6  C   LIG    1       25.549 -22.913   6.510  0.00  0.00    +0.061 C 
ENDROOT
BRANCH   1   8
ATOM      7  C   LIG    1       26.209 -19.947   4.805  0.00  0.00    +0.008 C 
ATOM      8  C   LIG    1       26.161 -20.660   5.756  0.00  0.00    -0.058 C 
ENDBRANCH   1   8
BRANCH   1   9
ATOM      9  O   LIG    1       27.443 -21.805   7.401  0.00  0.00    -0.431 OA
BRANCH   9  10
ATOM     10  C   LIG    1       28.334 -20.806   7.580  0.00  0.00    +0.399 C 
ATOM     11  O   LIG    1       28.259 -19.874   8.359  0.00  0.00    -0.227 OA
ATOM     12  N   LIG    1       29.368 -20.969   6.722  0.00  0.00    -0.295 N 
ATOM     13  H   LIG    1       30.074 -20.248   6.675  0.00  0.00    +0.148 HD
ATOM     14  H   LIG    1       29.310 -21.668   5.998  0.00  0.00    +0.148 HD
ENDBRANCH   9  10
ENDBRANCH   1   9
TORSDOF 3
ENDMDL
MODEL 9
REMARK VINA RESULT:      -5.8      5.046      6.453
REMARK  Name = *****
REMARK                            x       y       z     vdW  Elec       q    Type
REMARK                         _______ _______ _______ _____ _____    ______ ____
ROOT
ATOM      1  C   LIG    1       24.692 -21.902   6.511  0.00  0.00    +0.174 C 
ATOM      2  C   LIG    1       25.998 -21.598   5.737  0.00  0.00    +0.061 C 
ATOM      3  C   LIG    1       26.704 -20.326   6.225  0.00  0.00    +0.005 C 
ATOM      4  C   LIG    1       26.993 -20.385   7.720  0.00  0.00    +0.000 C 
ATOM      5  C   LIG    1       25.726 -20.657   8.521  0.00  0.00    +0.005 C 
ATOM      6  C   LIG    1       24.999 -21.908   8.027  0.00  0.00    +0.061 C 
ENDROOT
BRANCH   1   8
ATOM      7  C   LIG    1       22.841 -20.109   5.965  0.00  0.00    +0.008 C 
ATOM      8  C   LIG    1       23.677 -20.919   6.212  0.00  0.00    -0.058 C 
ENDBRANCH   1   8
BRANCH   1   9
ATOM      9  O   LIG    1       24.193 -23.241   6.242  0.00  0.00    -0.431 OA
BRANCH   9  10
ATOM     10  C   LIG    1       25.040 -24.240   5.915  0.00  0.00    +0.399 C 
ATOM     11  O   LIG    1       25.930 -24.713   6.598  0.00  0.00    -0.227 OA
ATOM     12  N   LIG    1       24.774 -24.660   4.656  0.00  0.00    -0.295 N 
ATOM     13  H   LIG    1       25.386 -25.345   4.237  0.00  0.00    +0.148 HD
ATOM     14  H   LIG    1       24.131 -24.137   4.082  0.00  0.00    +0.148 HD
ENDBRANCH   9  10
ENDBRANCH   1   9
TORSDOF 3
ENDMDL
