MODEL 1
REMARK VINA RESULT:      -6.7      0.000      0.000
REMARK  Name = *****
REMARK                            x       y       z     vdW  Elec       q    Type
REMARK                         _______ _______ _______ _____ _____    ______ ____
ROOT
ATOM      1  C   LIG    1       23.985 -21.530   7.062  0.00  0.00    +0.132 C 
ATOM      2  C   LIG    1       25.468 -21.233   7.552  0.00  0.00    +0.011 C 
ATOM      3  C   LIG    1       25.379 -20.242   8.753  0.00  0.00    +0.015 C 
ATOM      4  C   LIG    1       26.089 -20.479   6.339  0.00  0.00    +0.002 C 
ATOM      5  C   LIG    1       27.503 -20.808   5.827  0.00  0.00    -0.003 C 
ATOM      6  C   LIG    1       28.434 -21.553   6.836  0.00  0.00    -0.000 C 
ATOM      7  C   LIG    1       27.607 -22.762   7.318  0.00  0.00    +0.005 C 
ATOM      8  C   LIG    1       29.141 -20.601   7.889  0.00  0.00    +0.018 C 
ATOM      9  C   LIG    1       29.530 -19.337   7.154  0.00  0.00    -0.070 C 
ATOM     10  C   LIG    1       30.794 -19.138   6.745  0.00  0.00    -0.027 C 
ATOM     11  C   LIG    1       31.688 -18.920   7.910  0.00  0.00    +0.027 C 
ATOM     12  C   LIG    1       31.666 -20.178   8.780  0.00  0.00    +0.005 C 
ATOM     13  C   LIG    1       28.470 -18.587   6.446  0.00  0.00    +0.031 C 
ATOM     14  C   LIG    1       30.421 -21.141   8.635  0.00  0.00    +0.008 C 
ATOM     15  C   LIG    1       28.094 -19.493   5.288  0.00  0.00    +0.008 C 
ATOM     16  C   LIG    1       25.088 -20.557   5.176  0.00  0.00    +0.008 C 
ATOM     17  C   LIG    1       26.322 -22.428   8.082  0.00  0.00    +0.011 C 
ATOM     18  C   LIG    1       23.762 -20.559   5.889  0.00  0.00    +0.049 C 
ENDROOT
BRANCH   1  20
ATOM     19  C   LIG    1       23.564 -24.115   6.532  0.00  0.00    +0.007 C 
ATOM     20  C   LIG    1       23.759 -22.924   6.680  0.00  0.00    -0.070 C 
ENDBRANCH   1  20
BRANCH   1  21
ATOM     21  O   LIG    1       23.005 -21.212   8.049  0.00  0.00    -0.376 OA
ATOM     22  H   LIG    1       22.556 -22.046   8.270  0.00  0.00    +0.211 HD
ENDBRANCH   1  21
TORSDOF 2
ENDMDL
MODEL 2
REMARK VINA RESULT:      -5.6      8.833     10.470
REMARK  Name = *****
REMARK                            x       y       z     vdW  Elec       q    Type
REMARK                         _______ _______ _______ _____ _____    ______ ____
ROOT
ATOM      1  C   LIG    1       24.290 -31.572   6.905  0.00  0.00    +0.132 C 
ATOM      2  C   LIG    1       24.305 -30.595   8.159  0.00  0.00    +0.011 C 
ATOM      3  C   LIG    1       24.099 -29.142   7.629  0.00  0.00    +0.015 C 
ATOM      4  C   LIG    1       25.766 -30.724   8.682  0.00  0.00    +0.002 C 
ATOM      5  C   LIG    1       26.073 -30.866  10.183  0.00  0.00    -0.003 C 
ATOM      6  C   LIG    1       24.940 -30.403  11.154  0.00  0.00    -0.000 C 
ATOM      7  C   LIG    1       23.676 -31.137  10.665  0.00  0.00    +0.005 C 
ATOM      8  C   LIG    1       24.905 -28.838  11.409  0.00  0.00    +0.018 C 
ATOM      9  C   LIG    1       26.342 -28.370  11.500  0.00  0.00    -0.070 C 
ATOM     10  C   LIG    1       26.915 -28.134  12.690  0.00  0.00    -0.027 C 
ATOM     11  C   LIG    1       26.321 -26.930  13.323  0.00  0.00    +0.027 C 
ATOM     12  C   LIG    1       24.833 -27.191  13.560  0.00  0.00    +0.005 C 
ATOM     13  C   LIG    1       27.244 -28.665  10.366  0.00  0.00    +0.031 C 
ATOM     14  C   LIG    1       24.142 -28.310  12.683  0.00  0.00    +0.008 C 
ATOM     15  C   LIG    1       27.425 -30.171  10.425  0.00  0.00    +0.008 C 
ATOM     16  C   LIG    1       26.442 -31.865   7.906  0.00  0.00    +0.008 C 
ATOM     17  C   LIG    1       23.205 -30.781   9.252  0.00  0.00    +0.011 C 
ATOM     18  C   LIG    1       25.775 -31.782   6.559  0.00  0.00    +0.049 C 
ENDROOT
BRANCH   1  20
ATOM     19  C   LIG    1       22.894 -33.825   7.245  0.00  0.00    +0.007 C 
ATOM     20  C   LIG    1       23.593 -32.835   7.150  0.00  0.00    -0.070 C 
ENDBRANCH   1  20
BRANCH   1  21
ATOM     21  O   LIG    1       23.681 -30.985   5.757  0.00  0.00    -0.376 OA
ATOM     22  H   LIG    1       23.246 -31.709   5.274  0.00  0.00    +0.211 HD
ENDBRANCH   1  21
TORSDOF 2
ENDMDL
MODEL 3
REMARK VINA RESULT:      -5.3      8.184     10.742
REMARK  Name = *****
REMARK                            x       y       z     vdW  Elec       q    Type
REMARK                         _______ _______ _______ _____ _____    ______ ____
ROOT
ATOM      1  C   LIG    1       25.267 -29.890   7.677  0.00  0.00    +0.132 C 
ATOM      2  C   LIG    1       26.025 -29.992   9.071  0.00  0.00    +0.011 C 
ATOM      3  C   LIG    1       26.941 -31.254   9.019  0.00  0.00    +0.015 C 
ATOM      4  C   LIG    1       24.866 -30.268  10.075  0.00  0.00    +0.002 C 
ATOM      5  C   LIG    1       24.785 -29.539  11.428  0.00  0.00    -0.003 C 
ATOM      6  C   LIG    1       26.117 -28.902  11.937  0.00  0.00    -0.000 C 
ATOM      7  C   LIG    1       26.625 -28.051  10.756  0.00  0.00    +0.005 C 
ATOM      8  C   LIG    1       27.090 -29.925  12.658  0.00  0.00    +0.018 C 
ATOM      9  C   LIG    1       26.226 -30.853  13.484  0.00  0.00    -0.070 C 
ATOM     10  C   LIG    1       26.098 -30.679  14.809  0.00  0.00    -0.027 C 
ATOM     11  C   LIG    1       27.372 -31.000  15.500  0.00  0.00    +0.027 C 
ATOM     12  C   LIG    1       28.450 -30.037  14.999  0.00  0.00    +0.005 C 
ATOM     13  C   LIG    1       25.148 -31.598  12.798  0.00  0.00    +0.031 C 
ATOM     14  C   LIG    1       28.214 -29.344  13.599  0.00  0.00    +0.008 C 
ATOM     15  C   LIG    1       24.144 -30.523  12.422  0.00  0.00    +0.008 C 
ATOM     16  C   LIG    1       23.540 -30.102   9.318  0.00  0.00    +0.008 C 
ATOM     17  C   LIG    1       26.976 -28.824   9.481  0.00  0.00    +0.011 C 
ATOM     18  C   LIG    1       23.902 -30.553   7.928  0.00  0.00    +0.049 C 
ENDROOT
BRANCH   1  20
ATOM     19  C   LIG    1       25.065 -27.449   6.608  0.00  0.00    +0.007 C 
ATOM     20  C   LIG    1       25.136 -28.520   7.177  0.00  0.00    -0.070 C 
ENDBRANCH   1  20
BRANCH   1  21
ATOM     21  O   LIG    1       25.905 -30.641   6.647  0.00  0.00    -0.376 OA
ATOM     22  H   LIG    1       26.752 -30.949   7.014  0.00  0.00    +0.211 HD
ENDBRANCH   1  21
TORSDOF 2
ENDMDL
MODEL 4
REMARK VINA RESULT:      -5.3      7.811     10.901
REMARK  Name = *****
REMARK                            x       y       z     vdW  Elec       q    Type
REMARK                         _______ _______ _______ _____ _____    ______ ____
ROOT
ATOM      1  C   LIG    1       24.752 -31.049  12.824  0.00  0.00    +0.132 C 
ATOM      2  C   LIG    1       24.739 -30.213  11.471  0.00  0.00    +0.011 C 
ATOM      3  C   LIG    1       23.305 -29.626  11.293  0.00  0.00    +0.015 C 
ATOM      4  C   LIG    1       24.960 -31.307  10.385  0.00  0.00    +0.002 C 
ATOM      5  C   LIG    1       25.936 -31.092   9.215  0.00  0.00    -0.003 C 
ATOM      6  C   LIG    1       26.309 -29.607   8.907  0.00  0.00    -0.000 C 
ATOM      7  C   LIG    1       26.761 -29.023  10.261  0.00  0.00    +0.005 C 
ATOM      8  C   LIG    1       25.238 -28.838   8.026  0.00  0.00    +0.018 C 
ATOM      9  C   LIG    1       24.733 -29.817   6.988  0.00  0.00    -0.070 C 
ATOM     10  C   LIG    1       25.188 -29.778   5.726  0.00  0.00    -0.027 C 
ATOM     11  C   LIG    1       24.703 -28.558   5.036  0.00  0.00    +0.027 C 
ATOM     12  C   LIG    1       25.251 -27.334   5.772  0.00  0.00    +0.005 C 
ATOM     13  C   LIG    1       24.159 -31.097   7.457  0.00  0.00    +0.031 C 
ATOM     14  C   LIG    1       25.695 -27.529   7.277  0.00  0.00    +0.008 C 
ATOM     15  C   LIG    1       25.355 -31.851   8.010  0.00  0.00    +0.008 C 
ATOM     16  C   LIG    1       25.298 -32.620  11.106  0.00  0.00    +0.008 C 
ATOM     17  C   LIG    1       25.692 -28.981  11.357  0.00  0.00    +0.011 C 
ATOM     18  C   LIG    1       24.509 -32.503  12.383  0.00  0.00    +0.049 C 
ENDROOT
BRANCH   1  20
ATOM     19  C   LIG    1       26.948 -30.901  14.339  0.00  0.00    +0.007 C 
ATOM     20  C   LIG    1       25.986 -30.901  13.595  0.00  0.00    -0.070 C 
ENDBRANCH   1  20
BRANCH   1  21
ATOM     21  O   LIG    1       23.679 -30.701  13.697  0.00  0.00    -0.376 OA
ATOM     22  H   LIG    1       23.702 -29.733  13.790  0.00  0.00    +0.211 HD
ENDBRANCH   1  21
TORSDOF 2
ENDMDL
MODEL 5
REMARK VINA RESULT:      -5.2     10.266     12.790
REMARK  Name = *****
REMARK                            x       y       z     vdW  Elec       q    Type
REMARK                         _______ _______ _______ _____ _____    ______ ____
ROOT
ATOM      1  C   LIG    1       24.139 -30.650  11.835  0.00  0.00    +0.132 C 
ATOM      2  C   LIG    1       22.691 -30.216  12.330  0.00  0.00    +0.011 C 
ATOM      3  C   LIG    1       21.730 -30.290  11.104  0.00  0.00    +0.015 C 
ATOM      4  C   LIG    1       22.890 -28.718  12.709  0.00  0.00    +0.002 C 
ATOM      5  C   LIG    1       22.300 -28.132  14.004  0.00  0.00    -0.003 C 
ATOM      6  C   LIG    1       21.134 -28.947  14.648  0.00  0.00    -0.000 C 
ATOM      7  C   LIG    1       21.671 -30.388  14.759  0.00  0.00    +0.005 C 
ATOM      8  C   LIG    1       19.715 -28.674  13.995  0.00  0.00    +0.018 C 
ATOM      9  C   LIG    1       19.644 -27.194  13.687  0.00  0.00    -0.070 C 
ATOM     10  C   LIG    1       18.975 -26.354  14.492  0.00  0.00    -0.027 C 
ATOM     11  C   LIG    1       17.514 -26.600  14.400  0.00  0.00    +0.027 C 
ATOM     12  C   LIG    1       17.232 -28.028  14.869  0.00  0.00    +0.005 C 
ATOM     13  C   LIG    1       20.701 -26.608  12.835  0.00  0.00    +0.031 C 
ATOM     14  C   LIG    1       18.430 -29.059  14.823  0.00  0.00    +0.008 C 
ATOM     15  C   LIG    1       21.944 -26.665  13.703  0.00  0.00    +0.008 C 
ATOM     16  C   LIG    1       24.394 -28.413  12.641  0.00  0.00    +0.008 C 
ATOM     17  C   LIG    1       21.999 -31.079  13.432  0.00  0.00    +0.011 C 
ATOM     18  C   LIG    1       24.861 -29.324  11.537  0.00  0.00    +0.049 C 
ENDROOT
BRANCH   1  20
ATOM     19  C   LIG    1       25.584 -32.031  13.608  0.00  0.00    +0.007 C 
ATOM     20  C   LIG    1       24.867 -31.476  12.798  0.00  0.00    -0.070 C 
ENDBRANCH   1  20
BRANCH   1  21
ATOM     21  O   LIG    1       24.105 -31.382  10.611  0.00  0.00    -0.376 OA
ATOM     22  H   LIG    1       23.296 -31.922  10.635  0.00  0.00    +0.211 HD
ENDBRANCH   1  21
TORSDOF 2
ENDMDL
MODEL 6
REMARK VINA RESULT:      -5.1      7.803     10.893
REMARK  Name = *****
REMARK                            x       y       z     vdW  Elec       q    Type
REMARK                         _______ _______ _______ _____ _____    ______ ____
ROOT
ATOM      1  C   LIG    1       23.426 -32.706  10.833  0.00  0.00    +0.132 C 
ATOM      2  C   LIG    1       23.850 -31.380  10.065  0.00  0.00    +0.011 C 
ATOM      3  C   LIG    1       22.659 -30.377  10.161  0.00  0.00    +0.015 C 
ATOM      4  C   LIG    1       23.972 -31.858   8.588  0.00  0.00    +0.002 C 
ATOM      5  C   LIG    1       25.154 -31.431   7.701  0.00  0.00    -0.003 C 
ATOM      6  C   LIG    1       25.932 -30.161   8.171  0.00  0.00    -0.000 C 
ATOM      7  C   LIG    1       26.279 -30.434   9.648  0.00  0.00    +0.005 C 
ATOM      8  C   LIG    1       25.251 -28.792   7.753  0.00  0.00    +0.018 C 
ATOM      9  C   LIG    1       24.701 -28.978   6.355  0.00  0.00    -0.070 C 
ATOM     10  C   LIG    1       25.358 -28.500   5.287  0.00  0.00    -0.027 C 
ATOM     11  C   LIG    1       25.316 -27.017   5.272  0.00  0.00    +0.027 C 
ATOM     12  C   LIG    1       26.019 -26.500   6.528  0.00  0.00    +0.005 C 
ATOM     13  C   LIG    1       23.756 -30.091   6.120  0.00  0.00    +0.031 C 
ATOM     14  C   LIG    1       26.139 -27.489   7.755  0.00  0.00    +0.008 C 
ATOM     15  C   LIG    1       24.614 -31.335   6.263  0.00  0.00    +0.008 C 
ATOM     16  C   LIG    1       23.846 -33.389   8.580  0.00  0.00    +0.008 C 
ATOM     17  C   LIG    1       25.085 -30.584  10.595  0.00  0.00    +0.011 C 
ATOM     18  C   LIG    1       22.907 -33.644   9.729  0.00  0.00    +0.049 C 
ENDROOT
BRANCH   1  20
ATOM     19  C   LIG    1       25.321 -33.758  12.395  0.00  0.00    +0.007 C 
ATOM     20  C   LIG    1       24.509 -33.309  11.610  0.00  0.00    -0.070 C 
ENDBRANCH   1  20
BRANCH   1  21
ATOM     21  O   LIG    1       22.342 -32.497  11.736  0.00  0.00    -0.376 OA
ATOM     22  H   LIG    1       21.647 -33.129  11.484  0.00  0.00    +0.211 HD
ENDBRANCH   1  21
TORSDOF 2
ENDMDL
MODEL 7
REMARK VINA RESULT:      -5.0      8.804     11.814
REMARK  Name = *****
REMARK                            x       y       z     vdW  Elec       q    Type
REMARK                         _______ _______ _______ _____ _____    ______ ____
ROOT
ATOM      1  C   LIG    1       26.859 -29.070  12.065  0.00  0.00    +0.132 C 
ATOM      2  C   LIG    1       25.383 -29.152  12.650  0.00  0.00    +0.011 C 
ATOM      3  C   LIG    1       24.448 -29.650  11.504  0.00  0.00    +0.015 C 
ATOM      4  C   LIG    1       25.044 -27.661  12.947  0.00  0.00    +0.002 C 
ATOM      5  C   LIG    1       24.355 -27.240  14.257  0.00  0.00    -0.003 C 
ATOM      6  C   LIG    1       23.601 -28.373  15.022  0.00  0.00    -0.000 C 
ATOM      7  C   LIG    1       24.631 -29.514  15.154  0.00  0.00    +0.005 C 
ATOM      8  C   LIG    1       22.147 -28.674  14.468  0.00  0.00    +0.018 C 
ATOM      9  C   LIG    1       21.527 -27.342  14.103  0.00  0.00    -0.070 C 
ATOM     10  C   LIG    1       20.643 -26.747  14.919  0.00  0.00    -0.027 C 
ATOM     11  C   LIG    1       19.369 -27.506  14.949  0.00  0.00    +0.027 C 
ATOM     12  C   LIG    1       19.651 -28.905  15.499  0.00  0.00    +0.005 C 
ATOM     13  C   LIG    1       22.249 -26.475  13.147  0.00  0.00    +0.031 C 
ATOM     14  C   LIG    1       21.137 -29.437  15.407  0.00  0.00    +0.008 C 
ATOM     15  C   LIG    1       23.475 -26.023  13.920  0.00  0.00    +0.008 C 
ATOM     16  C   LIG    1       26.329 -26.842  12.752  0.00  0.00    +0.008 C 
ATOM     17  C   LIG    1       25.113 -30.130  13.838  0.00  0.00    +0.011 C 
ATOM     18  C   LIG    1       27.033 -27.597  11.656  0.00  0.00    +0.049 C 
ENDROOT
BRANCH   1  20
ATOM     19  C   LIG    1       28.823 -29.728  13.753  0.00  0.00    +0.007 C 
ATOM     20  C   LIG    1       27.890 -29.512  13.005  0.00  0.00    -0.070 C 
ENDBRANCH   1  20
BRANCH   1  21
ATOM     21  O   LIG    1       27.026 -29.847  10.880  0.00  0.00    -0.376 OA
ATOM     22  H   LIG    1       26.138 -30.146  10.618  0.00  0.00    +0.211 HD
ENDBRANCH   1  21
TORSDOF 2
ENDMDL
MODEL 8
REMARK VINA RESULT:      -4.8      9.251     11.407
REMARK  Name = *****
REMARK                            x       y       z     vdW  Elec       q    Type
REMARK                         _______ _______ _______ _____ _____    ______ ____
ROOT
ATOM      1  C   LIG    1       25.552 -31.456   7.851  0.00  0.00    +0.132 C 
ATOM      2  C   LIG    1       25.090 -30.488   9.025  0.00  0.00    +0.011 C 
ATOM      3  C   LIG    1       25.891 -29.157   8.881  0.00  0.00    +0.015 C 
ATOM      4  C   LIG    1       25.592 -31.227  10.300  0.00  0.00    +0.002 C 
ATOM      5  C   LIG    1       24.706 -31.360  11.552  0.00  0.00    -0.003 C 
ATOM      6  C   LIG    1       23.525 -30.344  11.659  0.00  0.00    -0.000 C 
ATOM      7  C   LIG    1       22.785 -30.454  10.310  0.00  0.00    +0.005 C 
ATOM      8  C   LIG    1       23.942 -28.922  12.224  0.00  0.00    +0.018 C 
ATOM      9  C   LIG    1       24.955 -29.161  13.323  0.00  0.00    -0.070 C 
ATOM     10  C   LIG    1       24.594 -29.110  14.615  0.00  0.00    -0.027 C 
ATOM     11  C   LIG    1       24.267 -27.717  15.008  0.00  0.00    +0.027 C 
ATOM     12  C   LIG    1       23.080 -27.243  14.168  0.00  0.00    +0.005 C 
ATOM     13  C   LIG    1       26.170 -29.937  12.995  0.00  0.00    +0.031 C 
ATOM     14  C   LIG    1       22.809 -27.992  12.803  0.00  0.00    +0.008 C 
ATOM     15  C   LIG    1       25.653 -31.346  12.766  0.00  0.00    +0.008 C 
ATOM     16  C   LIG    1       26.092 -32.615   9.872  0.00  0.00    +0.008 C 
ATOM     17  C   LIG    1       23.593 -30.049   9.074  0.00  0.00    +0.011 C 
ATOM     18  C   LIG    1       26.626 -32.355   8.488  0.00  0.00    +0.049 C 
ENDROOT
BRANCH   1  20
ATOM     19  C   LIG    1       23.648 -32.881   6.631  0.00  0.00    +0.007 C 
ATOM     20  C   LIG    1       24.458 -32.229   7.262  0.00  0.00    -0.070 C 
ENDBRANCH   1  20
BRANCH   1  21
ATOM     21  O   LIG    1       26.183 -30.759   6.779  0.00  0.00    -0.376 OA
ATOM     22  H   LIG    1       25.530 -30.123   6.440  0.00  0.00    +0.211 HD
ENDBRANCH   1  21
TORSDOF 2
ENDMDL
MODEL 9
REMARK VINA RESULT:      -4.8      8.824     12.572
REMARK  Name = *****
REMARK                            x       y       z     vdW  Elec       q    Type
REMARK                         _______ _______ _______ _____ _____    ______ ____
ROOT
ATOM      1  C   LIG    1       25.898 -28.022  13.842  0.00  0.00    +0.132 C 
ATOM      2  C   LIG    1       24.342 -28.189  14.128  0.00  0.00    +0.011 C 
ATOM      3  C   LIG    1       24.190 -28.921  15.497  0.00  0.00    +0.015 C 
ATOM      4  C   LIG    1       23.885 -29.160  12.999  0.00  0.00    +0.002 C 
ATOM      5  C   LIG    1       22.589 -28.916  12.206  0.00  0.00    -0.003 C 
ATOM      6  C   LIG    1       21.547 -27.969  12.883  0.00  0.00    -0.000 C 
ATOM      7  C   LIG    1       22.346 -26.702  13.250  0.00  0.00    +0.005 C 
ATOM      8  C   LIG    1       20.635 -28.678  13.969  0.00  0.00    +0.018 C 
ATOM      9  C   LIG    1       20.306 -30.057  13.440  0.00  0.00    -0.070 C 
ATOM     10  C   LIG    1       19.115 -30.312  12.875  0.00  0.00    -0.027 C 
ATOM     11  C   LIG    1       18.038 -30.278  13.895  0.00  0.00    +0.027 C 
ATOM     12  C   LIG    1       17.984 -28.872  14.495  0.00  0.00    +0.005 C 
ATOM     13  C   LIG    1       21.427 -30.952  13.077  0.00  0.00    +0.031 C 
ATOM     14  C   LIG    1       19.282 -27.978  14.374  0.00  0.00    +0.008 C 
ATOM     15  C   LIG    1       22.027 -30.303  11.843  0.00  0.00    +0.008 C 
ATOM     16  C   LIG    1       25.061 -29.333  12.025  0.00  0.00    +0.008 C 
ATOM     17  C   LIG    1       23.475 -26.898  14.266  0.00  0.00    +0.011 C 
ATOM     18  C   LIG    1       26.255 -29.211  12.934  0.00  0.00    +0.049 C 
ENDROOT
BRANCH   1  20
ATOM     19  C   LIG    1       26.645 -25.645  12.874  0.00  0.00    +0.007 C 
ATOM     20  C   LIG    1       26.250 -26.736  13.238  0.00  0.00    -0.070 C 
ENDBRANCH   1  20
BRANCH   1  21
ATOM     21  O   LIG    1       26.691 -28.152  15.020  0.00  0.00    -0.376 OA
ATOM     22  H   LIG    1       27.263 -28.927  14.883  0.00  0.00    +0.211 HD
ENDBRANCH   1  21
TORSDOF 2
ENDMDL
