MODEL 1
REMARK VINA RESULT:      -6.1      0.000      0.000
REMARK  Name = *****
REMARK                            x       y       z     vdW  Elec       q    Type
REMARK                         _______ _______ _______ _____ _____    ______ ____
ROOT
ATOM      1  N   LIG    1       26.387 -17.462   3.302  0.00  0.00    -0.236 NA
ATOM      2  H   LIG    1       26.641 -17.701   4.275  0.00  0.00    +0.145 HD
ENDROOT
BRANCH   1   4
ATOM      3  C   LIG    1       26.428 -15.057   3.655  0.00  0.00    +0.246 C 
ATOM      4  N   LIG    1       25.714 -16.203   3.339  0.00  0.00    -0.249 N 
ATOM      5  H   LIG    1       24.833 -16.131   2.828  0.00  0.00    +0.169 HD
ATOM      6  O   LIG    1       27.635 -15.086   3.945  0.00  0.00    -0.273 OA
BRANCH   3   7
ATOM      7  CA  LIG    1       25.635 -13.737   3.585  0.00  0.00    +0.165 C 
BRANCH   7   8
ATOM      8  N   LIG    1       24.348 -13.857   4.340  0.00  0.00    -0.318 NA
ATOM      9  H1  LIG    1       23.782 -13.034   4.106  0.00  0.00    +0.119 HD
ATOM     10  H2  LIG    1       23.819 -14.620   3.907  0.00  0.00    +0.119 HD
ENDBRANCH   7   8
BRANCH   7  11
ATOM     11  C   LIG    1       25.293 -13.314   2.150  0.00  0.00    +0.183 C 
BRANCH  11  12
ATOM     12  O   LIG    1       23.991 -12.718   2.128  0.00  0.00    -0.393 OA
ATOM     13  H   LIG    1       24.113 -11.864   1.660  0.00  0.00    +0.209 HD
ENDBRANCH  11  12
ENDBRANCH   7  11
ENDBRANCH   3   7
ENDBRANCH   1   4
BRANCH   1  14
ATOM     14  C   LIG    1       25.485 -18.524   2.816  0.00  0.00    +0.140 C 
BRANCH  14  15
ATOM     15  C   LIG    1       24.830 -19.293   3.944  0.00  0.00    +0.013 A 
ATOM     16  C   LIG    1       25.581 -20.052   4.847  0.00  0.00    +0.167 A 
ATOM     17  C   LIG    1       24.961 -20.755   5.879  0.00  0.00    +0.201 A 
ATOM     18  C   LIG    1       23.582 -20.715   6.036  0.00  0.00    +0.162 A 
ATOM     19  C   LIG    1       22.809 -19.952   5.171  0.00  0.00    +0.050 A 
ATOM     20  C   LIG    1       23.435 -19.236   4.138  0.00  0.00    +0.012 A 
BRANCH  16  21
ATOM     21  O   LIG    1       26.944 -20.116   4.746  0.00  0.00    -0.503 OA
ATOM     22  H   LIG    1       27.123 -21.020   4.415  0.00  0.00    +0.292 HD
ENDBRANCH  16  21
BRANCH  17  23
ATOM     23  O   LIG    1       25.736 -21.481   6.746  0.00  0.00    -0.501 OA
ATOM     24  H   LIG    1       26.276 -22.052   6.161  0.00  0.00    +0.292 HD
ENDBRANCH  17  23
BRANCH  18  25
ATOM     25  O   LIG    1       23.036 -21.434   7.062  0.00  0.00    -0.503 OA
ATOM     26  H   LIG    1       23.643 -21.390   7.821  0.00  0.00    +0.292 HD
ENDBRANCH  18  25
ENDBRANCH  14  15
ENDBRANCH   1  14
TORSDOF 10
ENDMDL
MODEL 2
REMARK VINA RESULT:      -6.0      2.047      6.931
REMARK  Name = *****
REMARK                            x       y       z     vdW  Elec       q    Type
REMARK                         _______ _______ _______ _____ _____    ______ ____
ROOT
ATOM      1  N   LIG    1       25.854 -17.601   2.985  0.00  0.00    -0.236 NA
ATOM      2  H   LIG    1       24.848 -17.377   3.048  0.00  0.00    +0.145 HD
ENDROOT
BRANCH   1   4
ATOM      3  C   LIG    1       25.081 -19.646   4.049  0.00  0.00    +0.246 C 
ATOM      4  N   LIG    1       26.092 -18.720   3.841  0.00  0.00    -0.249 N 
ATOM      5  H   LIG    1       27.065 -18.981   4.008  0.00  0.00    +0.169 HD
ATOM      6  O   LIG    1       23.953 -19.522   3.543  0.00  0.00    -0.273 OA
BRANCH   3   7
ATOM      7  CA  LIG    1       25.458 -20.862   4.917  0.00  0.00    +0.165 C 
BRANCH   7   8
ATOM      8  N   LIG    1       24.251 -21.403   5.617  0.00  0.00    -0.318 NA
ATOM      9  H1  LIG    1       24.135 -22.375   5.313  0.00  0.00    +0.119 HD
ATOM     10  H2  LIG    1       24.502 -21.508   6.606  0.00  0.00    +0.119 HD
ENDBRANCH   7   8
BRANCH   7  11
ATOM     11  C   LIG    1       26.509 -20.536   5.988  0.00  0.00    +0.183 C 
BRANCH  11  12
ATOM     12  O   LIG    1       27.783 -20.352   5.362  0.00  0.00    -0.393 OA
ATOM     13  H   LIG    1       27.876 -21.115   4.751  0.00  0.00    +0.209 HD
ENDBRANCH  11  12
ENDBRANCH   7  11
ENDBRANCH   3   7
ENDBRANCH   1   4
BRANCH   1  14
ATOM     14  C   LIG    1       26.593 -16.414   3.460  0.00  0.00    +0.140 C 
BRANCH  14  15
ATOM     15  C   LIG    1       25.762 -15.151   3.404  0.00  0.00    +0.013 A 
ATOM     16  C   LIG    1       26.147 -14.052   2.630  0.00  0.00    +0.167 A 
ATOM     17  C   LIG    1       25.369 -12.896   2.590  0.00  0.00    +0.201 A 
ATOM     18  C   LIG    1       24.190 -12.810   3.319  0.00  0.00    +0.162 A 
ATOM     19  C   LIG    1       23.766 -13.891   4.080  0.00  0.00    +0.050 A 
ATOM     20  C   LIG    1       24.545 -15.059   4.111  0.00  0.00    +0.012 A 
BRANCH  16  21
ATOM     21  O   LIG    1       27.293 -14.089   1.882  0.00  0.00    -0.503 OA
ATOM     22  H   LIG    1       27.248 -14.944   1.407  0.00  0.00    +0.292 HD
ENDBRANCH  16  21
BRANCH  17  23
ATOM     23  O   LIG    1       25.781 -11.845   1.812  0.00  0.00    -0.501 OA
ATOM     24  H   LIG    1       25.936 -11.121   2.453  0.00  0.00    +0.292 HD
ENDBRANCH  17  23
BRANCH  18  25
ATOM     25  O   LIG    1       23.479 -11.644   3.245  0.00  0.00    -0.503 OA
ATOM     26  H   LIG    1       23.343 -11.314   4.150  0.00  0.00    +0.292 HD
ENDBRANCH  18  25
ENDBRANCH  14  15
ENDBRANCH   1  14
TORSDOF 10
ENDMDL
MODEL 3
REMARK VINA RESULT:      -5.9      1.745      2.091
REMARK  Name = *****
REMARK                            x       y       z     vdW  Elec       q    Type
REMARK                         _______ _______ _______ _____ _____    ______ ____
ROOT
ATOM      1  N   LIG    1       25.812 -16.450   2.998  0.00  0.00    -0.236 NA
ATOM      2  H   LIG    1       25.797 -16.330   1.972  0.00  0.00    +0.145 HD
ENDROOT
BRANCH   1   4
ATOM      3  C   LIG    1       26.792 -14.228   2.885  0.00  0.00    +0.246 C 
ATOM      4  N   LIG    1       26.689 -15.453   3.526  0.00  0.00    -0.249 N 
ATOM      5  H   LIG    1       26.954 -15.539   4.508  0.00  0.00    +0.169 HD
ATOM      6  O   LIG    1       26.173 -13.971   1.839  0.00  0.00    -0.273 OA
BRANCH   3   7
ATOM      7  CA  LIG    1       27.696 -13.188   3.576  0.00  0.00    +0.165 C 
BRANCH   7   8
ATOM      8  N   LIG    1       29.137 -13.479   3.301  0.00  0.00    -0.318 NA
ATOM      9  H1  LIG    1       29.497 -12.709   2.726  0.00  0.00    +0.119 HD
ATOM     10  H2  LIG    1       29.641 -13.350   4.185  0.00  0.00    +0.119 HD
ENDBRANCH   7   8
BRANCH   7  11
ATOM     11  C   LIG    1       27.513 -13.147   5.100  0.00  0.00    +0.183 C 
BRANCH  11  12
ATOM     12  O   LIG    1       26.115 -13.153   5.410  0.00  0.00    -0.393 OA
ATOM     13  H   LIG    1       26.031 -12.582   6.205  0.00  0.00    +0.209 HD
ENDBRANCH  11  12
ENDBRANCH   7  11
ENDBRANCH   3   7
ENDBRANCH   1   4
BRANCH   1  14
ATOM     14  C   LIG    1       26.336 -17.803   3.269  0.00  0.00    +0.140 C 
BRANCH  14  15
ATOM     15  C   LIG    1       25.309 -18.706   3.917  0.00  0.00    +0.013 A 
ATOM     16  C   LIG    1       25.683 -19.746   4.774  0.00  0.00    +0.167 A 
ATOM     17  C   LIG    1       24.723 -20.568   5.363  0.00  0.00    +0.201 A 
ATOM     18  C   LIG    1       23.372 -20.371   5.112  0.00  0.00    +0.162 A 
ATOM     19  C   LIG    1       22.965 -19.334   4.285  0.00  0.00    +0.050 A 
ATOM     20  C   LIG    1       23.932 -18.499   3.701  0.00  0.00    +0.012 A 
BRANCH  16  21
ATOM     21  O   LIG    1       27.000 -19.975   5.065  0.00  0.00    -0.503 OA
ATOM     22  H   LIG    1       27.118 -19.616   5.969  0.00  0.00    +0.292 HD
ENDBRANCH  16  21
BRANCH  17  23
ATOM     23  O   LIG    1       25.133 -21.571   6.202  0.00  0.00    -0.501 OA
ATOM     24  H   LIG    1       25.115 -21.160   7.091  0.00  0.00    +0.292 HD
ENDBRANCH  17  23
BRANCH  18  25
ATOM     25  O   LIG    1       22.483 -21.219   5.712  0.00  0.00    -0.503 OA
ATOM     26  H   LIG    1       22.275 -21.935   5.086  0.00  0.00    +0.292 HD
ENDBRANCH  18  25
ENDBRANCH  14  15
ENDBRANCH   1  14
TORSDOF 10
ENDMDL
MODEL 4
REMARK VINA RESULT:      -5.2      2.073      6.937
REMARK  Name = *****
REMARK                            x       y       z     vdW  Elec       q    Type
REMARK                         _______ _______ _______ _____ _____    ______ ____
ROOT
ATOM      1  N   LIG    1       26.127 -17.856   2.976  0.00  0.00    -0.236 NA
ATOM      2  H   LIG    1       25.166 -17.527   2.789  0.00  0.00    +0.145 HD
ENDROOT
BRANCH   1   4
ATOM      3  C   LIG    1       24.768 -19.607   3.975  0.00  0.00    +0.246 C 
ATOM      4  N   LIG    1       26.020 -19.061   3.737  0.00  0.00    -0.249 N 
ATOM      5  H   LIG    1       26.853 -19.646   3.802  0.00  0.00    +0.169 HD
ATOM      6  O   LIG    1       23.722 -19.068   3.578  0.00  0.00    -0.273 OA
BRANCH   3   7
ATOM      7  CA  LIG    1       24.759 -20.951   4.730  0.00  0.00    +0.165 C 
BRANCH   7   8
ATOM      8  N   LIG    1       23.358 -21.443   4.910  0.00  0.00    -0.318 NA
ATOM      9  H1  LIG    1       22.780 -20.977   4.202  0.00  0.00    +0.119 HD
ATOM     10  H2  LIG    1       23.343 -22.421   4.600  0.00  0.00    +0.119 HD
ENDBRANCH   7   8
BRANCH   7  11
ATOM     11  C   LIG    1       25.404 -20.866   6.120  0.00  0.00    +0.183 C 
BRANCH  11  12
ATOM     12  O   LIG    1       26.830 -20.884   5.984  0.00  0.00    -0.393 OA
ATOM     13  H   LIG    1       27.014 -20.328   5.196  0.00  0.00    +0.209 HD
ENDBRANCH  11  12
ENDBRANCH   7  11
ENDBRANCH   3   7
ENDBRANCH   1   4
BRANCH   1  14
ATOM     14  C   LIG    1       26.801 -16.802   3.759  0.00  0.00    +0.140 C 
BRANCH  14  15
ATOM     15  C   LIG    1       26.339 -15.411   3.381  0.00  0.00    +0.013 A 
ATOM     16  C   LIG    1       25.001 -15.024   3.502  0.00  0.00    +0.167 A 
ATOM     17  C   LIG    1       24.593 -13.738   3.149  0.00  0.00    +0.201 A 
ATOM     18  C   LIG    1       25.508 -12.811   2.670  0.00  0.00    +0.162 A 
ATOM     19  C   LIG    1       26.849 -13.155   2.559  0.00  0.00    +0.050 A 
ATOM     20  C   LIG    1       27.260 -14.447   2.925  0.00  0.00    +0.012 A 
BRANCH  16  21
ATOM     21  O   LIG    1       24.060 -15.894   3.982  0.00  0.00    -0.503 OA
ATOM     22  H   LIG    1       23.289 -15.329   4.194  0.00  0.00    +0.292 HD
ENDBRANCH  16  21
BRANCH  17  23
ATOM     23  O   LIG    1       23.272 -13.399   3.291  0.00  0.00    -0.501 OA
ATOM     24  H   LIG    1       23.009 -13.092   2.398  0.00  0.00    +0.292 HD
ENDBRANCH  17  23
BRANCH  18  25
ATOM     25  O   LIG    1       25.041 -11.572   2.331  0.00  0.00    -0.503 OA
ATOM     26  H   LIG    1       25.430 -11.324   1.474  0.00  0.00    +0.292 HD
ENDBRANCH  18  25
ENDBRANCH  14  15
ENDBRANCH   1  14
TORSDOF 10
ENDMDL
MODEL 5
REMARK VINA RESULT:      -5.1      1.797      2.404
REMARK  Name = *****
REMARK                            x       y       z     vdW  Elec       q    Type
REMARK                         _______ _______ _______ _____ _____    ______ ____
ROOT
ATOM      1  N   LIG    1       25.756 -17.293   3.058  0.00  0.00    -0.236 NA
ATOM      2  H   LIG    1       25.733 -17.069   2.050  0.00  0.00    +0.145 HD
ENDROOT
BRANCH   1   4
ATOM      3  C   LIG    1       26.415 -15.069   3.785  0.00  0.00    +0.246 C 
ATOM      4  N   LIG    1       26.710 -16.418   3.663  0.00  0.00    -0.249 N 
ATOM      5  H   LIG    1       27.415 -16.843   4.266  0.00  0.00    +0.169 HD
ATOM      6  O   LIG    1       25.358 -14.578   3.355  0.00  0.00    -0.273 OA
BRANCH   3   7
ATOM      7  CA  LIG    1       27.467 -14.221   4.527  0.00  0.00    +0.165 C 
BRANCH   7   8
ATOM      8  N   LIG    1       26.813 -13.361   5.562  0.00  0.00    -0.318 NA
ATOM      9  H1  LIG    1       27.561 -12.954   6.134  0.00  0.00    +0.119 HD
ATOM     10  H2  LIG    1       26.437 -12.541   5.074  0.00  0.00    +0.119 HD
ENDBRANCH   7   8
BRANCH   7  11
ATOM     11  C   LIG    1       28.266 -13.300   3.595  0.00  0.00    +0.183 C 
BRANCH  11  12
ATOM     12  O   LIG    1       27.399 -12.787   2.577  0.00  0.00    -0.393 OA
ATOM     13  H   LIG    1       27.995 -12.554   1.833  0.00  0.00    +0.209 HD
ENDBRANCH  11  12
ENDBRANCH   7  11
ENDBRANCH   3   7
ENDBRANCH   1   4
BRANCH   1  14
ATOM     14  C   LIG    1       26.186 -18.700   3.181  0.00  0.00    +0.140 C 
BRANCH  14  15
ATOM     15  C   LIG    1       25.386 -19.466   4.212  0.00  0.00    +0.013 A 
ATOM     16  C   LIG    1       23.993 -19.556   4.141  0.00  0.00    +0.167 A 
ATOM     17  C   LIG    1       23.272 -20.266   5.100  0.00  0.00    +0.201 A 
ATOM     18  C   LIG    1       23.923 -20.902   6.149  0.00  0.00    +0.162 A 
ATOM     19  C   LIG    1       25.308 -20.851   6.237  0.00  0.00    +0.050 A 
ATOM     20  C   LIG    1       26.034 -20.145   5.264  0.00  0.00    +0.012 A 
BRANCH  16  21
ATOM     21  O   LIG    1       23.303 -18.960   3.121  0.00  0.00    -0.503 OA
ATOM     22  H   LIG    1       22.520 -19.533   2.986  0.00  0.00    +0.292 HD
ENDBRANCH  16  21
BRANCH  17  23
ATOM     23  O   LIG    1       21.908 -20.335   4.988  0.00  0.00    -0.501 OA
ATOM     24  H   LIG    1       21.731 -20.059   4.065  0.00  0.00    +0.292 HD
ENDBRANCH  17  23
BRANCH  18  25
ATOM     25  O   LIG    1       23.157 -21.572   7.062  0.00  0.00    -0.503 OA
ATOM     26  H   LIG    1       23.666 -21.650   7.887  0.00  0.00    +0.292 HD
ENDBRANCH  18  25
ENDBRANCH  14  15
ENDBRANCH   1  14
TORSDOF 10
ENDMDL
MODEL 6
REMARK VINA RESULT:      -5.0      1.872      2.810
REMARK  Name = *****
REMARK                            x       y       z     vdW  Elec       q    Type
REMARK                         _______ _______ _______ _____ _____    ______ ____
ROOT
ATOM      1  N   LIG    1       23.603 -15.220   4.515  0.00  0.00    -0.236 NA
ATOM      2  H   LIG    1       23.010 -14.374   4.538  0.00  0.00    +0.145 HD
ENDROOT
BRANCH   1   4
ATOM      3  C   LIG    1       25.182 -13.513   3.806  0.00  0.00    +0.246 C 
ATOM      4  N   LIG    1       24.838 -14.853   3.898  0.00  0.00    -0.249 N 
ATOM      5  H   LIG    1       25.561 -15.571   3.841  0.00  0.00    +0.169 HD
ATOM      6  O   LIG    1       24.437 -12.607   4.213  0.00  0.00    -0.273 OA
BRANCH   3   7
ATOM      7  CA  LIG    1       26.570 -13.222   3.203  0.00  0.00    +0.165 C 
BRANCH   7   8
ATOM      8  N   LIG    1       26.853 -14.151   2.064  0.00  0.00    -0.318 NA
ATOM      9  H1  LIG    1       27.678 -13.788   1.575  0.00  0.00    +0.119 HD
ATOM     10  H2  LIG    1       27.204 -15.024   2.473  0.00  0.00    +0.119 HD
ENDBRANCH   7   8
BRANCH   7  11
ATOM     11  C   LIG    1       27.712 -13.369   4.218  0.00  0.00    +0.183 C 
BRANCH  11  12
ATOM     12  O   LIG    1       27.178 -13.312   5.545  0.00  0.00    -0.393 OA
ATOM     13  H   LIG    1       26.574 -12.538   5.540  0.00  0.00    +0.209 HD
ENDBRANCH  11  12
ENDBRANCH   7  11
ENDBRANCH   3   7
ENDBRANCH   1   4
BRANCH   1  14
ATOM     14  C   LIG    1       22.891 -16.226   3.703  0.00  0.00    +0.140 C 
BRANCH  14  15
ATOM     15  C   LIG    1       23.232 -17.645   4.104  0.00  0.00    +0.013 A 
ATOM     16  C   LIG    1       24.469 -18.218   3.794  0.00  0.00    +0.167 A 
ATOM     17  C   LIG    1       24.765 -19.527   4.172  0.00  0.00    +0.201 A 
ATOM     18  C   LIG    1       23.838 -20.292   4.866  0.00  0.00    +0.162 A 
ATOM     19  C   LIG    1       22.609 -19.746   5.211  0.00  0.00    +0.050 A 
ATOM     20  C   LIG    1       22.315 -18.424   4.839  0.00  0.00    +0.012 A 
BRANCH  16  21
ATOM     21  O   LIG    1       25.424 -17.504   3.122  0.00  0.00    -0.503 OA
ATOM     22  H   LIG    1       25.360 -16.600   3.493  0.00  0.00    +0.292 HD
ENDBRANCH  16  21
BRANCH  17  23
ATOM     23  O   LIG    1       25.993 -20.047   3.853  0.00  0.00    -0.501 OA
ATOM     24  H   LIG    1       25.809 -20.990   3.660  0.00  0.00    +0.292 HD
ENDBRANCH  17  23
BRANCH  18  25
ATOM     25  O   LIG    1       24.188 -21.572   5.197  0.00  0.00    -0.503 OA
ATOM     26  H   LIG    1       24.923 -21.532   5.834  0.00  0.00    +0.292 HD
ENDBRANCH  18  25
ENDBRANCH  14  15
ENDBRANCH   1  14
TORSDOF 10
ENDMDL
MODEL 7
REMARK VINA RESULT:      -4.9      2.081      6.737
REMARK  Name = *****
REMARK                            x       y       z     vdW  Elec       q    Type
REMARK                         _______ _______ _______ _____ _____    ______ ____
ROOT
ATOM      1  N   LIG    1       26.096 -18.078   3.314  0.00  0.00    -0.236 NA
ATOM      2  H   LIG    1       26.574 -18.286   2.422  0.00  0.00    +0.145 HD
ENDROOT
BRANCH   1   4
ATOM      3  C   LIG    1       25.627 -20.086   4.602  0.00  0.00    +0.246 C 
ATOM      4  N   LIG    1       25.252 -19.193   3.610  0.00  0.00    -0.249 N 
ATOM      5  H   LIG    1       24.274 -19.125   3.328  0.00  0.00    +0.169 HD
ATOM      6  O   LIG    1       26.695 -19.974   5.228  0.00  0.00    -0.273 OA
BRANCH   3   7
ATOM      7  CA  LIG    1       24.614 -21.206   4.909  0.00  0.00    +0.165 C 
BRANCH   7   8
ATOM      8  N   LIG    1       23.847 -21.571   3.677  0.00  0.00    -0.318 NA
ATOM      9  H1  LIG    1       23.012 -20.976   3.652  0.00  0.00    +0.119 HD
ATOM     10  H2  LIG    1       24.388 -21.228   2.876  0.00  0.00    +0.119 HD
ENDBRANCH   7   8
BRANCH   7  11
ATOM     11  C   LIG    1       23.596 -20.819   5.992  0.00  0.00    +0.183 C 
BRANCH  11  12
ATOM     12  O   LIG    1       22.748 -19.777   5.495  0.00  0.00    -0.393 OA
ATOM     13  H   LIG    1       22.115 -19.600   6.223  0.00  0.00    +0.209 HD
ENDBRANCH  11  12
ENDBRANCH   7  11
ENDBRANCH   3   7
ENDBRANCH   1   4
BRANCH   1  14
ATOM     14  C   LIG    1       25.293 -16.858   3.100  0.00  0.00    +0.140 C 
BRANCH  14  15
ATOM     15  C   LIG    1       25.950 -15.621   3.674  0.00  0.00    +0.013 A 
ATOM     16  C   LIG    1       25.197 -14.553   4.171  0.00  0.00    +0.167 A 
ATOM     17  C   LIG    1       25.819 -13.422   4.697  0.00  0.00    +0.201 A 
ATOM     18  C   LIG    1       27.204 -13.330   4.740  0.00  0.00    +0.162 A 
ATOM     19  C   LIG    1       27.982 -14.382   4.276  0.00  0.00    +0.050 A 
ATOM     20  C   LIG    1       27.354 -15.526   3.757  0.00  0.00    +0.012 A 
BRANCH  16  21
ATOM     21  O   LIG    1       23.829 -14.598   4.165  0.00  0.00    -0.503 OA
ATOM     22  H   LIG    1       23.596 -14.849   3.248  0.00  0.00    +0.292 HD
ENDBRANCH  16  21
BRANCH  17  23
ATOM     23  O   LIG    1       25.042 -12.401   5.180  0.00  0.00    -0.501 OA
ATOM     24  H   LIG    1       25.286 -12.344   6.127  0.00  0.00    +0.292 HD
ENDBRANCH  17  23
BRANCH  18  25
ATOM     25  O   LIG    1       27.751 -12.189   5.257  0.00  0.00    -0.503 OA
ATOM     26  H   LIG    1       28.720 -12.276   5.227  0.00  0.00    +0.292 HD
ENDBRANCH  18  25
ENDBRANCH  14  15
ENDBRANCH   1  14
TORSDOF 10
ENDMDL
MODEL 8
REMARK VINA RESULT:      -4.8      2.220      6.977
REMARK  Name = *****
REMARK                            x       y       z     vdW  Elec       q    Type
REMARK                         _______ _______ _______ _____ _____    ______ ____
ROOT
ATOM      1  N   LIG    1       25.753 -16.816   3.232  0.00  0.00    -0.236 NA
ATOM      2  H   LIG    1       26.101 -16.947   2.268  0.00  0.00    +0.145 HD
ENDROOT
BRANCH   1   4
ATOM      3  C   LIG    1       24.971 -19.026   3.875  0.00  0.00    +0.246 C 
ATOM      4  N   LIG    1       24.686 -17.746   3.425  0.00  0.00    -0.249 N 
ATOM      5  H   LIG    1       23.748 -17.360   3.543  0.00  0.00    +0.169 HD
ATOM      6  O   LIG    1       26.133 -19.413   4.085  0.00  0.00    -0.273 OA
BRANCH   3   7
ATOM      7  CA  LIG    1       23.749 -19.929   4.135  0.00  0.00    +0.165 C 
BRANCH   7   8
ATOM      8  N   LIG    1       22.617 -19.129   4.699  0.00  0.00    -0.318 NA
ATOM      9  H1  LIG    1       22.412 -18.380   4.029  0.00  0.00    +0.119 HD
ATOM     10  H2  LIG    1       21.779 -19.717   4.639  0.00  0.00    +0.119 HD
ENDBRANCH   7   8
BRANCH   7  11
ATOM     11  C   LIG    1       24.043 -21.074   5.115  0.00  0.00    +0.183 C 
BRANCH  11  12
ATOM     12  O   LIG    1       24.665 -20.544   6.291  0.00  0.00    -0.393 OA
ATOM     13  H   LIG    1       25.546 -20.232   5.990  0.00  0.00    +0.209 HD
ENDBRANCH  11  12
ENDBRANCH   7  11
ENDBRANCH   3   7
ENDBRANCH   1   4
BRANCH   1  14
ATOM     14  C   LIG    1       25.261 -15.428   3.330  0.00  0.00    +0.140 C 
BRANCH  14  15
ATOM     15  C   LIG    1       26.281 -14.491   3.941  0.00  0.00    +0.013 A 
ATOM     16  C   LIG    1       27.384 -14.032   3.215  0.00  0.00    +0.167 A 
ATOM     17  C   LIG    1       28.313 -13.169   3.794  0.00  0.00    +0.201 A 
ATOM     18  C   LIG    1       28.163 -12.743   5.107  0.00  0.00    +0.162 A 
ATOM     19  C   LIG    1       27.067 -13.161   5.849  0.00  0.00    +0.050 A 
ATOM     20  C   LIG    1       26.125 -14.022   5.262  0.00  0.00    +0.012 A 
BRANCH  16  21
ATOM     21  O   LIG    1       27.572 -14.410   1.913  0.00  0.00    -0.503 OA
ATOM     22  H   LIG    1       27.599 -13.567   1.415  0.00  0.00    +0.292 HD
ENDBRANCH  16  21
BRANCH  17  23
ATOM     23  O   LIG    1       29.376 -12.738   3.043  0.00  0.00    -0.501 OA
ATOM     24  H   LIG    1       29.202 -11.782   2.911  0.00  0.00    +0.292 HD
ENDBRANCH  17  23
BRANCH  18  25
ATOM     25  O   LIG    1       29.115 -11.906   5.618  0.00  0.00    -0.503 OA
ATOM     26  H   LIG    1       29.990 -12.283   5.420  0.00  0.00    +0.292 HD
ENDBRANCH  18  25
ENDBRANCH  14  15
ENDBRANCH   1  14
TORSDOF 10
ENDMDL
MODEL 9
REMARK VINA RESULT:      -4.7      2.016      2.855
REMARK  Name = *****
REMARK                            x       y       z     vdW  Elec       q    Type
REMARK                         _______ _______ _______ _____ _____    ______ ____
ROOT
ATOM      1  N   LIG    1       22.331 -17.761   4.495  0.00  0.00    -0.236 NA
ATOM      2  H   LIG    1       21.393 -17.558   4.113  0.00  0.00    +0.145 HD
ENDROOT
BRANCH   1   4
ATOM      3  C   LIG    1       23.136 -15.472   4.652  0.00  0.00    +0.246 C 
ATOM      4  N   LIG    1       23.202 -16.720   4.050  0.00  0.00    -0.249 N 
ATOM      5  H   LIG    1       24.046 -17.001   3.550  0.00  0.00    +0.169 HD
ATOM      6  O   LIG    1       22.317 -15.210   5.548  0.00  0.00    -0.273 OA
BRANCH   3   7
ATOM      7  CA  LIG    1       24.172 -14.441   4.164  0.00  0.00    +0.165 C 
BRANCH   7   8
ATOM      8  N   LIG    1       23.586 -13.574   3.094  0.00  0.00    -0.318 NA
ATOM      9  H1  LIG    1       22.608 -13.860   2.974  0.00  0.00    +0.119 HD
ATOM     10  H2  LIG    1       23.496 -12.633   3.490  0.00  0.00    +0.119 HD
ENDBRANCH   7   8
BRANCH   7  11
ATOM     11  C   LIG    1       25.443 -15.086   3.595  0.00  0.00    +0.183 C 
BRANCH  11  12
ATOM     12  O   LIG    1       26.509 -14.129   3.611  0.00  0.00    -0.393 OA
ATOM     13  H   LIG    1       26.935 -14.213   2.731  0.00  0.00    +0.209 HD
ENDBRANCH  11  12
ENDBRANCH   7  11
ENDBRANCH   3   7
ENDBRANCH   1   4
BRANCH   1  14
ATOM     14  C   LIG    1       22.750 -19.065   3.944  0.00  0.00    +0.140 C 
BRANCH  14  15
ATOM     15  C   LIG    1       23.825 -19.730   4.776  0.00  0.00    +0.013 A 
ATOM     16  C   LIG    1       25.180 -19.626   4.446  0.00  0.00    +0.167 A 
ATOM     17  C   LIG    1       26.156 -20.245   5.224  0.00  0.00    +0.201 A 
ATOM     18  C   LIG    1       25.806 -20.980   6.349  0.00  0.00    +0.162 A 
ATOM     19  C   LIG    1       24.472 -21.085   6.719  0.00  0.00    +0.050 A 
ATOM     20  C   LIG    1       23.489 -20.452   5.940  0.00  0.00    +0.012 A 
BRANCH  16  21
ATOM     21  O   LIG    1       25.581 -18.902   3.355  0.00  0.00    -0.503 OA
ATOM     22  H   LIG    1       25.394 -17.972   3.596  0.00  0.00    +0.292 HD
ENDBRANCH  16  21
BRANCH  17  23
ATOM     23  O   LIG    1       27.473 -20.111   4.867  0.00  0.00    -0.501 OA
ATOM     24  H   LIG    1       27.440 -19.643   4.007  0.00  0.00    +0.292 HD
ENDBRANCH  17  23
BRANCH  18  25
ATOM     25  O   LIG    1       26.811 -21.572   7.062  0.00  0.00    -0.503 OA
ATOM     26  H   LIG    1       27.015 -21.005   7.826  0.00  0.00    +0.292 HD
ENDBRANCH  18  25
ENDBRANCH  14  15
ENDBRANCH   1  14
TORSDOF 10
ENDMDL
