MODEL 1
REMARK VINA RESULT:      -6.4      0.000      0.000
REMARK  Name = *****
REMARK                            x       y       z     vdW  Elec       q    Type
REMARK                         _______ _______ _______ _____ _____    ______ ____
ROOT
ATOM      1  C   LIG    1       22.397 -16.275   4.858  0.00  0.00    +0.332 C 
ATOM      2  O   LIG    1       22.077 -15.818   5.911  0.00  0.00    -0.246 OA
ENDROOT
BRANCH   1   3
ATOM      3  C   LIG    1       21.689 -17.389   4.220  0.00  0.00    +0.092 C 
ATOM      4  C   LIG    1       22.033 -18.694   4.176  0.00  0.00    +0.015 C 
BRANCH   4   5
ATOM      5  C   LIG    1       23.157 -19.483   4.748  0.00  0.00    -0.025 A 
ATOM      6  C   LIG    1       22.982 -20.155   5.958  0.00  0.00    +0.011 A 
ATOM      7  C   LIG    1       24.053 -20.817   6.569  0.00  0.00    +0.046 A 
ATOM      8  C   LIG    1       25.337 -20.797   6.024  0.00  0.00    +0.120 A 
ATOM      9  C   LIG    1       25.508 -20.240   4.780  0.00  0.00    +0.046 A 
ATOM     10  C   LIG    1       24.424 -19.612   4.176  0.00  0.00    +0.011 A 
BRANCH   8  11
ATOM     11  O   LIG    1       26.439 -21.311   6.646  0.00  0.00    -0.495 OA
ATOM     12  C   LIG    1       27.532 -20.394   6.678  0.00  0.00    +0.277 C 
ENDBRANCH   8  11
ENDBRANCH   4   5
ENDBRANCH   1   3
BRANCH   1  13
ATOM     13  O   LIG    1       23.464 -15.838   4.149  0.00  0.00    -0.461 OA
BRANCH  13  14
ATOM     14  C   LIG    1       23.719 -14.417   4.286  0.00  0.00    +0.236 C 
BRANCH  14  15
ATOM     15  C   LIG    1       25.016 -13.933   3.596  0.00  0.00    +0.026 C 
BRANCH  15  16
ATOM     16  C   LIG    1       24.676 -13.172   2.277  0.00  0.00    +0.003 C 
ATOM     17  C   LIG    1       24.220 -11.717   2.416  0.00  0.00    +0.004 C 
ENDBRANCH  15  16
BRANCH  15  18
ATOM     18  C   LIG    1       26.030 -15.078   3.278  0.00  0.00    +0.007 C 
BRANCH  18  19
ATOM     19  C   LIG    1       27.431 -15.042   3.957  0.00  0.00    +0.000 C 
BRANCH  19  21
ATOM     20  C   LIG    1       28.743 -12.822   3.832  0.00  0.00    +0.004 C 
ATOM     21  C   LIG    1       27.704 -13.651   4.569  0.00  0.00    -0.003 C 
ENDBRANCH  19  21
ENDBRANCH  18  19
ENDBRANCH  15  18
ENDBRANCH  14  15
ENDBRANCH  13  14
ENDBRANCH   1  13
TORSDOF 10
ENDMDL
MODEL 2
REMARK VINA RESULT:      -5.4      1.839      6.421
REMARK  Name = *****
REMARK                            x       y       z     vdW  Elec       q    Type
REMARK                         _______ _______ _______ _____ _____    ______ ____
ROOT
ATOM      1  C   LIG    1       23.901 -19.281   3.718  0.00  0.00    +0.332 C 
ATOM      2  O   LIG    1       23.840 -19.904   2.704  0.00  0.00    -0.246 OA
ENDROOT
BRANCH   1   3
ATOM      3  C   LIG    1       22.847 -18.363   4.160  0.00  0.00    +0.092 C 
ATOM      4  C   LIG    1       22.903 -17.022   4.309  0.00  0.00    +0.015 C 
BRANCH   4   5
ATOM      5  C   LIG    1       23.957 -16.001   4.067  0.00  0.00    -0.025 A 
ATOM      6  C   LIG    1       23.654 -14.649   4.215  0.00  0.00    +0.011 A 
ATOM      7  C   LIG    1       24.596 -13.665   3.891  0.00  0.00    +0.046 A 
ATOM      8  C   LIG    1       25.849 -13.990   3.372  0.00  0.00    +0.120 A 
ATOM      9  C   LIG    1       26.211 -15.314   3.324  0.00  0.00    +0.046 A 
ATOM     10  C   LIG    1       25.270 -16.275   3.677  0.00  0.00    +0.011 A 
BRANCH   8  11
ATOM     11  O   LIG    1       26.749 -13.070   2.916  0.00  0.00    -0.495 OA
ATOM     12  C   LIG    1       28.061 -13.272   3.442  0.00  0.00    +0.277 C 
ENDBRANCH   8  11
ENDBRANCH   4   5
ENDBRANCH   1   3
BRANCH   1  13
ATOM     13  O   LIG    1       24.961 -19.328   4.558  0.00  0.00    -0.461 OA
BRANCH  13  14
ATOM     14  C   LIG    1       25.478 -20.665   4.778  0.00  0.00    +0.236 C 
BRANCH  14  15
ATOM     15  C   LIG    1       25.551 -21.083   6.266  0.00  0.00    +0.026 C 
BRANCH  15  16
ATOM     16  C   LIG    1       24.202 -20.771   6.982  0.00  0.00    +0.003 C 
ATOM     17  C   LIG    1       22.967 -21.537   6.497  0.00  0.00    +0.004 C 
ENDBRANCH  15  16
BRANCH  15  18
ATOM     18  C   LIG    1       26.717 -20.411   7.057  0.00  0.00    +0.007 C 
BRANCH  18  19
ATOM     19  C   LIG    1       28.176 -20.877   6.774  0.00  0.00    +0.000 C 
BRANCH  19  21
ATOM     20  C   LIG    1       28.721 -18.744   5.426  0.00  0.00    +0.004 C 
ATOM     21  C   LIG    1       29.107 -19.662   6.574  0.00  0.00    -0.003 C 
ENDBRANCH  19  21
ENDBRANCH  18  19
ENDBRANCH  15  18
ENDBRANCH  14  15
ENDBRANCH  13  14
ENDBRANCH   1  13
TORSDOF 10
ENDMDL
MODEL 3
REMARK VINA RESULT:      -5.3      1.393      2.077
REMARK  Name = *****
REMARK                            x       y       z     vdW  Elec       q    Type
REMARK                         _______ _______ _______ _____ _____    ______ ____
ROOT
ATOM      1  C   LIG    1       22.397 -18.298   4.330  0.00  0.00    +0.332 C 
ATOM      2  O   LIG    1       22.197 -18.277   3.155  0.00  0.00    -0.246 OA
ENDROOT
BRANCH   1   3
ATOM      3  C   LIG    1       22.169 -19.485   5.160  0.00  0.00    +0.092 C 
ATOM      4  C   LIG    1       23.080 -20.307   5.726  0.00  0.00    +0.015 C 
BRANCH   4   5
ATOM      5  C   LIG    1       24.566 -20.322   5.773  0.00  0.00    -0.025 A 
ATOM      6  C   LIG    1       25.215 -20.651   6.962  0.00  0.00    +0.011 A 
ATOM      7  C   LIG    1       26.609 -20.570   7.062  0.00  0.00    +0.046 A 
ATOM      8  C   LIG    1       27.397 -20.122   6.002  0.00  0.00    +0.120 A 
ATOM      9  C   LIG    1       26.793 -19.901   4.788  0.00  0.00    +0.046 A 
ATOM     10  C   LIG    1       25.409 -20.015   4.703  0.00  0.00    +0.011 A 
BRANCH   8  11
ATOM     11  O   LIG    1       28.741 -19.898   6.091  0.00  0.00    -0.495 OA
ATOM     12  C   LIG    1       29.122 -18.618   5.588  0.00  0.00    +0.277 C 
ENDBRANCH   8  11
ENDBRANCH   4   5
ENDBRANCH   1   3
BRANCH   1  13
ATOM     13  O   LIG    1       22.827 -17.224   5.032  0.00  0.00    -0.461 OA
BRANCH  13  14
ATOM     14  C   LIG    1       22.729 -15.971   4.310  0.00  0.00    +0.236 C 
BRANCH  14  15
ATOM     15  C   LIG    1       24.040 -15.152   4.273  0.00  0.00    +0.026 C 
BRANCH  15  16
ATOM     16  C   LIG    1       23.808 -13.790   3.550  0.00  0.00    +0.003 C 
ATOM     17  C   LIG    1       24.127 -12.521   4.346  0.00  0.00    +0.004 C 
ENDBRANCH  15  16
BRANCH  15  18
ATOM     18  C   LIG    1       25.233 -15.896   3.591  0.00  0.00    +0.007 C 
BRANCH  18  19
ATOM     19  C   LIG    1       26.402 -15.050   3.006  0.00  0.00    +0.000 C 
BRANCH  19  21
ATOM     20  C   LIG    1       28.179 -13.371   3.833  0.00  0.00    +0.004 C 
ATOM     21  C   LIG    1       27.384 -14.633   4.121  0.00  0.00    -0.003 C 
ENDBRANCH  19  21
ENDBRANCH  18  19
ENDBRANCH  15  18
ENDBRANCH  14  15
ENDBRANCH  13  14
ENDBRANCH   1  13
TORSDOF 10
ENDMDL
MODEL 4
REMARK VINA RESULT:      -5.1      1.681      6.322
REMARK  Name = *****
REMARK                            x       y       z     vdW  Elec       q    Type
REMARK                         _______ _______ _______ _____ _____    ______ ____
ROOT
ATOM      1  C   LIG    1       22.496 -18.088   4.045  0.00  0.00    +0.332 C 
ATOM      2  O   LIG    1       21.763 -18.581   3.246  0.00  0.00    -0.246 OA
ENDROOT
BRANCH   1   3
ATOM      3  C   LIG    1       22.126 -16.931   4.866  0.00  0.00    +0.092 C 
ATOM      4  C   LIG    1       22.713 -15.717   4.929  0.00  0.00    +0.015 C 
BRANCH   4   5
ATOM      5  C   LIG    1       23.858 -15.088   4.217  0.00  0.00    -0.025 A 
ATOM      6  C   LIG    1       24.974 -15.858   3.891  0.00  0.00    +0.011 A 
ATOM      7  C   LIG    1       26.106 -15.268   3.317  0.00  0.00    +0.046 A 
ATOM      8  C   LIG    1       26.183 -13.894   3.088  0.00  0.00    +0.120 A 
ATOM      9  C   LIG    1       25.057 -13.135   3.295  0.00  0.00    +0.046 A 
ATOM     10  C   LIG    1       23.932 -13.746   3.839  0.00  0.00    +0.011 A 
BRANCH   8  11
ATOM     11  O   LIG    1       27.309 -13.254   2.657  0.00  0.00    -0.495 OA
ATOM     12  C   LIG    1       28.386 -13.341   3.590  0.00  0.00    +0.277 C 
ENDBRANCH   8  11
ENDBRANCH   4   5
ENDBRANCH   1   3
BRANCH   1  13
ATOM     13  O   LIG    1       23.760 -18.520   4.263  0.00  0.00    -0.461 OA
BRANCH  13  14
ATOM     14  C   LIG    1       24.061 -19.797   3.644  0.00  0.00    +0.236 C 
BRANCH  14  15
ATOM     15  C   LIG    1       24.888 -20.756   4.532  0.00  0.00    +0.026 C 
BRANCH  15  16
ATOM     16  C   LIG    1       23.955 -21.523   5.518  0.00  0.00    +0.003 C 
ATOM     17  C   LIG    1       23.194 -20.681   6.547  0.00  0.00    +0.004 C 
ENDBRANCH  15  16
BRANCH  15  18
ATOM     18  C   LIG    1       26.019 -20.049   5.345  0.00  0.00    +0.007 C 
BRANCH  18  19
ATOM     19  C   LIG    1       26.687 -20.822   6.520  0.00  0.00    +0.000 C 
BRANCH  19  21
ATOM     20  C   LIG    1       28.667 -19.340   5.781  0.00  0.00    +0.004 C 
ATOM     21  C   LIG    1       28.210 -20.575   6.539  0.00  0.00    -0.003 C 
ENDBRANCH  19  21
ENDBRANCH  18  19
ENDBRANCH  15  18
ENDBRANCH  14  15
ENDBRANCH  13  14
ENDBRANCH   1  13
TORSDOF 10
ENDMDL
MODEL 5
REMARK VINA RESULT:      -5.0      2.246      4.189
REMARK  Name = *****
REMARK                            x       y       z     vdW  Elec       q    Type
REMARK                         _______ _______ _______ _____ _____    ______ ____
ROOT
ATOM      1  C   LIG    1       27.495 -17.180   4.064  0.00  0.00    +0.332 C 
ATOM      2  O   LIG    1       26.535 -17.518   3.443  0.00  0.00    -0.246 OA
ENDROOT
BRANCH   1   3
ATOM      3  C   LIG    1       28.348 -18.121   4.796  0.00  0.00    +0.092 C 
ATOM      4  C   LIG    1       27.995 -19.251   5.445  0.00  0.00    +0.015 C 
BRANCH   4   5
ATOM      5  C   LIG    1       26.708 -19.973   5.632  0.00  0.00    -0.025 A 
ATOM      6  C   LIG    1       25.897 -20.235   4.529  0.00  0.00    +0.011 A 
ATOM      7  C   LIG    1       24.635 -20.817   4.692  0.00  0.00    +0.046 A 
ATOM      8  C   LIG    1       24.122 -21.120   5.953  0.00  0.00    +0.120 A 
ATOM      9  C   LIG    1       24.946 -20.977   7.043  0.00  0.00    +0.046 A 
ATOM     10  C   LIG    1       26.207 -20.422   6.856  0.00  0.00    +0.011 A 
BRANCH   8  11
ATOM     11  O   LIG    1       22.849 -21.563   6.174  0.00  0.00    -0.495 OA
ATOM     12  C   LIG    1       21.950 -21.204   5.125  0.00  0.00    +0.277 C 
ENDBRANCH   8  11
ENDBRANCH   4   5
ENDBRANCH   1   3
BRANCH   1  13
ATOM     13  O   LIG    1       27.886 -15.890   4.187  0.00  0.00    -0.461 OA
BRANCH  13  14
ATOM     14  C   LIG    1       27.240 -14.987   3.254  0.00  0.00    +0.236 C 
BRANCH  14  15
ATOM     15  C   LIG    1       26.547 -13.774   3.918  0.00  0.00    +0.026 C 
BRANCH  15  16
ATOM     16  C   LIG    1       27.396 -13.257   5.120  0.00  0.00    +0.003 C 
ATOM     17  C   LIG    1       28.631 -12.415   4.783  0.00  0.00    +0.004 C 
ENDBRANCH  15  16
BRANCH  15  18
ATOM     18  C   LIG    1       25.093 -14.064   4.408  0.00  0.00    +0.007 C 
BRANCH  18  19
ATOM     19  C   LIG    1       23.902 -13.646   3.496  0.00  0.00    +0.000 C 
BRANCH  19  21
ATOM     20  C   LIG    1       24.329 -11.475   2.166  0.00  0.00    +0.004 C 
ATOM     21  C   LIG    1       24.416 -12.992   2.195  0.00  0.00    -0.003 C 
ENDBRANCH  19  21
ENDBRANCH  18  19
ENDBRANCH  15  18
ENDBRANCH  14  15
ENDBRANCH  13  14
ENDBRANCH   1  13
TORSDOF 10
ENDMDL
MODEL 6
REMARK VINA RESULT:      -4.9      2.011      4.451
REMARK  Name = *****
REMARK                            x       y       z     vdW  Elec       q    Type
REMARK                         _______ _______ _______ _____ _____    ______ ____
ROOT
ATOM      1  C   LIG    1       28.685 -18.243   5.307  0.00  0.00    +0.332 C 
ATOM      2  O   LIG    1       29.475 -17.585   5.909  0.00  0.00    -0.246 OA
ENDROOT
BRANCH   1   3
ATOM      3  C   LIG    1       28.555 -19.694   5.475  0.00  0.00    +0.092 C 
ATOM      4  C   LIG    1       27.434 -20.447   5.476  0.00  0.00    +0.015 C 
BRANCH   4   5
ATOM      5  C   LIG    1       25.991 -20.146   5.280  0.00  0.00    -0.025 A 
ATOM      6  C   LIG    1       25.073 -20.499   6.268  0.00  0.00    +0.011 A 
ATOM      7  C   LIG    1       23.699 -20.324   6.063  0.00  0.00    +0.046 A 
ATOM      8  C   LIG    1       23.192 -19.835   4.859  0.00  0.00    +0.120 A 
ATOM      9  C   LIG    1       24.080 -19.376   3.917  0.00  0.00    +0.046 A 
ATOM     10  C   LIG    1       25.442 -19.533   4.152  0.00  0.00    +0.011 A 
BRANCH   8  11
ATOM     11  O   LIG    1       21.861 -19.771   4.560  0.00  0.00    -0.495 OA
ATOM     12  C   LIG    1       21.476 -18.507   4.020  0.00  0.00    +0.277 C 
ENDBRANCH   8  11
ENDBRANCH   4   5
ENDBRANCH   1   3
BRANCH   1  13
ATOM     13  O   LIG    1       27.841 -17.732   4.380  0.00  0.00    -0.461 OA
BRANCH  13  14
ATOM     14  C   LIG    1       27.776 -16.283   4.380  0.00  0.00    +0.236 C 
BRANCH  14  15
ATOM     15  C   LIG    1       26.876 -15.686   3.273  0.00  0.00    +0.026 C 
BRANCH  15  16
ATOM     16  C   LIG    1       27.401 -14.280   2.848  0.00  0.00    +0.003 C 
ATOM     17  C   LIG    1       28.316 -13.555   3.839  0.00  0.00    +0.004 C 
ENDBRANCH  15  16
BRANCH  15  18
ATOM     18  C   LIG    1       25.371 -15.569   3.674  0.00  0.00    +0.007 C 
BRANCH  18  19
ATOM     19  C   LIG    1       24.873 -14.245   4.324  0.00  0.00    +0.000 C 
BRANCH  19  21
ATOM     20  C   LIG    1       24.402 -12.737   2.282  0.00  0.00    +0.004 C 
ATOM     21  C   LIG    1       23.825 -13.557   3.424  0.00  0.00    -0.003 C 
ENDBRANCH  19  21
ENDBRANCH  18  19
ENDBRANCH  15  18
ENDBRANCH  14  15
ENDBRANCH  13  14
ENDBRANCH   1  13
TORSDOF 10
ENDMDL
MODEL 7
REMARK VINA RESULT:      -4.8      1.942      7.146
REMARK  Name = *****
REMARK                            x       y       z     vdW  Elec       q    Type
REMARK                         _______ _______ _______ _____ _____    ______ ____
ROOT
ATOM      1  C   LIG    1       26.071 -18.095   3.625  0.00  0.00    +0.332 C 
ATOM      2  O   LIG    1       25.256 -17.541   2.955  0.00  0.00    -0.246 OA
ENDROOT
BRANCH   1   3
ATOM      3  C   LIG    1       27.344 -17.478   4.011  0.00  0.00    +0.092 C 
ATOM      4  C   LIG    1       27.678 -16.170   4.025  0.00  0.00    +0.015 C 
BRANCH   4   5
ATOM      5  C   LIG    1       26.942 -14.914   3.722  0.00  0.00    -0.025 A 
ATOM      6  C   LIG    1       26.485 -14.113   4.767  0.00  0.00    +0.011 A 
ATOM      7  C   LIG    1       25.699 -12.983   4.511  0.00  0.00    +0.046 A 
ATOM      8  C   LIG    1       25.308 -12.638   3.218  0.00  0.00    +0.120 A 
ATOM      9  C   LIG    1       25.837 -13.345   2.166  0.00  0.00    +0.046 A 
ATOM     10  C   LIG    1       26.640 -14.447   2.441  0.00  0.00    +0.011 A 
BRANCH   8  11
ATOM     11  O   LIG    1       24.435 -11.628   2.928  0.00  0.00    -0.495 OA
ATOM     12  C   LIG    1       23.354 -11.549   3.856  0.00  0.00    +0.277 C 
ENDBRANCH   8  11
ENDBRANCH   4   5
ENDBRANCH   1   3
BRANCH   1  13
ATOM     13  O   LIG    1       25.927 -19.362   4.079  0.00  0.00    -0.461 OA
BRANCH  13  14
ATOM     14  C   LIG    1       24.730 -20.025   3.601  0.00  0.00    +0.236 C 
BRANCH  14  15
ATOM     15  C   LIG    1       23.922 -20.752   4.701  0.00  0.00    +0.026 C 
BRANCH  15  16
ATOM     16  C   LIG    1       22.445 -20.252   4.709  0.00  0.00    +0.003 C 
ATOM     17  C   LIG    1       22.226 -18.742   4.853  0.00  0.00    +0.004 C 
ENDBRANCH  15  16
BRANCH  15  18
ATOM     18  C   LIG    1       24.521 -20.596   6.135  0.00  0.00    +0.007 C 
BRANCH  18  19
ATOM     19  C   LIG    1       25.817 -21.382   6.490  0.00  0.00    +0.000 C 
BRANCH  19  21
ATOM     20  C   LIG    1       28.219 -20.451   6.321  0.00  0.00    +0.004 C 
ATOM     21  C   LIG    1       26.892 -20.432   7.061  0.00  0.00    -0.003 C 
ENDBRANCH  19  21
ENDBRANCH  18  19
ENDBRANCH  15  18
ENDBRANCH  14  15
ENDBRANCH  13  14
ENDBRANCH   1  13
TORSDOF 10
ENDMDL
MODEL 8
REMARK VINA RESULT:      -4.7      1.803      6.436
REMARK  Name = *****
REMARK                            x       y       z     vdW  Elec       q    Type
REMARK                         _______ _______ _______ _____ _____    ______ ____
ROOT
ATOM      1  C   LIG    1       22.314 -17.759   4.365  0.00  0.00    +0.332 C 
ATOM      2  O   LIG    1       22.272 -17.961   3.192  0.00  0.00    -0.246 OA
ENDROOT
BRANCH   1   3
ATOM      3  C   LIG    1       22.015 -16.456   4.966  0.00  0.00    +0.092 C 
ATOM      4  C   LIG    1       22.753 -15.325   4.940  0.00  0.00    +0.015 C 
BRANCH   4   5
ATOM      5  C   LIG    1       24.047 -14.953   4.309  0.00  0.00    -0.025 A 
ATOM      6  C   LIG    1       24.880 -15.951   3.803  0.00  0.00    +0.011 A 
ATOM      7  C   LIG    1       26.148 -15.636   3.300  0.00  0.00    +0.046 A 
ATOM      8  C   LIG    1       26.644 -14.333   3.320  0.00  0.00    +0.120 A 
ATOM      9  C   LIG    1       25.801 -13.320   3.707  0.00  0.00    +0.046 A 
ATOM     10  C   LIG    1       24.534 -13.651   4.177  0.00  0.00    +0.011 A 
BRANCH   8  11
ATOM     11  O   LIG    1       27.920 -13.996   2.967  0.00  0.00    -0.495 OA
ATOM     12  C   LIG    1       28.480 -12.993   3.813  0.00  0.00    +0.277 C 
ENDBRANCH   8  11
ENDBRANCH   4   5
ENDBRANCH   1   3
BRANCH   1  13
ATOM     13  O   LIG    1       22.671 -18.700   5.271  0.00  0.00    -0.461 OA
BRANCH  13  14
ATOM     14  C   LIG    1       22.089 -20.005   5.025  0.00  0.00    +0.236 C 
BRANCH  14  15
ATOM     15  C   LIG    1       22.954 -21.191   5.509  0.00  0.00    +0.026 C 
BRANCH  15  16
ATOM     16  C   LIG    1       23.539 -20.893   6.923  0.00  0.00    +0.003 C 
ATOM     17  C   LIG    1       25.065 -20.900   7.057  0.00  0.00    +0.004 C 
ENDBRANCH  15  16
BRANCH  15  18
ATOM     18  C   LIG    1       24.123 -21.560   4.540  0.00  0.00    +0.007 C 
BRANCH  18  19
ATOM     19  C   LIG    1       24.248 -20.785   3.195  0.00  0.00    +0.000 C 
BRANCH  19  21
ATOM     20  C   LIG    1       26.202 -19.747   4.525  0.00  0.00    +0.004 C 
ATOM     21  C   LIG    1       25.288 -19.651   3.315  0.00  0.00    -0.003 C 
ENDBRANCH  19  21
ENDBRANCH  18  19
ENDBRANCH  15  18
ENDBRANCH  14  15
ENDBRANCH  13  14
ENDBRANCH   1  13
TORSDOF 10
ENDMDL
MODEL 9
REMARK VINA RESULT:      -4.6      2.161      7.310
REMARK  Name = *****
REMARK                            x       y       z     vdW  Elec       q    Type
REMARK                         _______ _______ _______ _____ _____    ______ ____
ROOT
ATOM      1  C   LIG    1       25.188 -18.177   3.518  0.00  0.00    +0.332 C 
ATOM      2  O   LIG    1       26.130 -17.956   2.823  0.00  0.00    -0.246 OA
ENDROOT
BRANCH   1   3
ATOM      3  C   LIG    1       24.138 -17.188   3.782  0.00  0.00    +0.092 C 
ATOM      4  C   LIG    1       24.259 -15.854   3.952  0.00  0.00    +0.015 C 
BRANCH   4   5
ATOM      5  C   LIG    1       25.405 -14.908   3.902  0.00  0.00    -0.025 A 
ATOM      6  C   LIG    1       26.032 -14.649   2.683  0.00  0.00    +0.011 A 
ATOM      7  C   LIG    1       27.178 -13.846   2.626  0.00  0.00    +0.046 A 
ATOM      8  C   LIG    1       27.759 -13.311   3.775  0.00  0.00    +0.120 A 
ATOM      9  C   LIG    1       27.096 -13.457   4.969  0.00  0.00    +0.046 A 
ATOM     10  C   LIG    1       25.943 -14.236   5.000  0.00  0.00    +0.011 A 
BRANCH   8  11
ATOM     11  O   LIG    1       28.946 -12.636   3.788  0.00  0.00    -0.495 OA
ATOM     12  C   LIG    1       29.139 -11.881   4.984  0.00  0.00    +0.277 C 
ENDBRANCH   8  11
ENDBRANCH   4   5
ENDBRANCH   1   3
BRANCH   1  13
ATOM     13  O   LIG    1       24.996 -19.351   4.162  0.00  0.00    -0.461 OA
BRANCH  13  14
ATOM     14  C   LIG    1       26.182 -19.860   4.824  0.00  0.00    +0.236 C 
BRANCH  14  15
ATOM     15  C   LIG    1       25.929 -20.423   6.242  0.00  0.00    +0.026 C 
BRANCH  15  16
ATOM     16  C   LIG    1       27.262 -20.933   6.869  0.00  0.00    +0.003 C 
ATOM     17  C   LIG    1       28.562 -20.424   6.238  0.00  0.00    +0.004 C 
ENDBRANCH  15  16
BRANCH  15  18
ATOM     18  C   LIG    1       24.871 -21.572   6.288  0.00  0.00    +0.007 C 
BRANCH  18  19
ATOM     19  C   LIG    1       23.474 -21.274   6.906  0.00  0.00    +0.000 C 
BRANCH  19  21
ATOM     20  C   LIG    1       22.032 -20.771   4.824  0.00  0.00    +0.004 C 
ATOM     21  C   LIG    1       22.719 -20.223   6.064  0.00  0.00    -0.003 C 
ENDBRANCH  19  21
ENDBRANCH  18  19
ENDBRANCH  15  18
ENDBRANCH  14  15
ENDBRANCH  13  14
ENDBRANCH   1  13
TORSDOF 10
ENDMDL
