MODEL 1
REMARK VINA RESULT:       5.5      0.000      0.000
REMARK  Name = *****
REMARK                            x       y       z     vdW  Elec       q    Type
REMARK                         _______ _______ _______ _____ _____    ______ ____
ROOT
ATOM      1  C   LIG    1       21.958 -17.424   4.812  0.00  0.00    +0.169 C 
ATOM      2  C   LIG    1       22.118 -17.941   3.346  0.00  0.00    +0.084 C 
ATOM      3  C   LIG    1       23.614 -18.041   2.952  0.00  0.00    +0.042 C 
ATOM      4  C   LIG    1       24.529 -17.205   3.870  0.00  0.00    +0.084 C 
ATOM      5  C   LIG    1       23.891 -15.814   4.145  0.00  0.00    +0.169 C 
ATOM      6  C   LIG    1       22.513 -15.969   4.867  0.00  0.00    +0.175 C 
ENDROOT
BRANCH   2   7
ATOM      7  N   LIG    1       21.369 -17.108   2.389  0.00  0.00    -0.325 NA
ATOM      8  H   LIG    1       22.000 -16.469   1.902  0.00  0.00    +0.118 HD
ATOM      9  H   LIG    1       20.707 -16.497   2.887  0.00  0.00    +0.118 HD
ENDBRANCH   2   7
BRANCH   4  10
ATOM     10  N   LIG    1       25.892 -17.167   3.314  0.00  0.00    -0.325 NA
ATOM     11  H   LIG    1       25.956 -16.424   2.616  0.00  0.00    +0.118 HD
ATOM     12  H   LIG    1       26.077 -18.039   2.821  0.00  0.00    +0.118 HD
ENDBRANCH   4  10
BRANCH   6  13
ATOM     13  O   LIG    1       22.548 -15.408   6.184  0.00  0.00    -0.387 OA
ATOM     14  H   LIG    1       22.206 -16.098   6.782  0.00  0.00    +0.210 HD
ENDBRANCH   6  13
BRANCH   1  15
ATOM     15  O   LIG    1       22.628 -18.372   5.672  0.00  0.00    -0.342 OA
BRANCH  15  18
ATOM     16  C   LIG    1       25.759 -20.157   5.139  0.00  0.00    +0.138 C 
ATOM     17  O   LIG    1       24.743 -19.384   5.809  0.00  0.00    -0.345 OA
ATOM     18  C   LIG    1       23.557 -19.241   5.025  0.00  0.00    +0.268 C 
ATOM     19  C   LIG    1       22.888 -20.623   4.757  0.00  0.00    +0.107 C 
ATOM     20  C   LIG    1       23.916 -21.529   4.074  0.00  0.00    +0.026 C 
ATOM     21  C   LIG    1       25.235 -21.570   4.843  0.00  0.00    +0.035 C 
BRANCH  19  22
ATOM     22  N   LIG    1       22.373 -21.278   5.977  0.00  0.00    -0.323 NA
ATOM     23  H   LIG    1       23.129 -21.270   6.668  0.00  0.00    +0.119 HD
ATOM     24  H   LIG    1       21.671 -20.659   6.388  0.00  0.00    +0.119 HD
ENDBRANCH  19  22
BRANCH  16  25
ATOM     25  C   LIG    1       27.028 -20.172   6.048  0.00  0.00    +0.079 C 
ATOM     26  C   LIG    1       27.094 -21.380   6.987  0.00  0.00    +0.026 C 
BRANCH  25  28
ATOM     27  C   LIG    1       29.039 -18.792   5.584  0.00  0.00    +0.101 C 
ATOM     28  N   LIG    1       28.291 -20.005   5.292  0.00  0.00    -0.314 NA
ATOM     29  H   LIG    1       28.874 -20.822   5.483  0.00  0.00    +0.122 HD
ENDBRANCH  25  28
ENDBRANCH  16  25
ENDBRANCH  15  18
ENDBRANCH   1  15
BRANCH   5  30
ATOM     30  O   LIG    1       23.562 -15.112   2.933  0.00  0.00    -0.341 OA
BRANCH  30  31
ATOM     31  C   LIG    1       24.462 -14.084   2.502  0.00  0.00    +0.281 C 
ATOM     32  C   LIG    1       24.584 -13.102   3.708  0.00  0.00    +0.190 C 
ATOM     33  C   LIG    1       25.660 -13.682   4.680  0.00  0.00    +0.121 C 
ATOM     34  C   LIG    1       27.017 -13.788   3.894  0.00  0.00    +0.104 C 
ATOM     35  C   LIG    1       27.827 -14.992   4.379  0.00  0.00    +0.045 C 
ATOM     36  C   LIG    1       26.803 -13.865   2.372  0.00  0.00    +0.199 C 
ATOM     37  O   LIG    1       25.676 -14.673   2.064  0.00  0.00    -0.346 OA
BRANCH  33  38
ATOM     38  N   LIG    1       25.916 -12.921   5.938  0.00  0.00    -0.311 NA
ATOM     39  H   LIG    1       25.506 -13.468   6.721  0.00  0.00    +0.122 HD
ATOM     40  C   LIG    1       25.266 -11.615   5.959  0.00  0.00    +0.101 C 
ENDBRANCH  33  38
BRANCH  32  41
ATOM     41  O   LIG    1       23.309 -12.886   4.314  0.00  0.00    -0.385 OA
ATOM     42  H   LIG    1       23.356 -13.264   5.221  0.00  0.00    +0.210 HD
ENDBRANCH  32  41
BRANCH  34  43
ATOM     43  O   LIG    1       27.804 -12.609   4.150  0.00  0.00    -0.385 OA
ATOM     44  H   LIG    1       28.334 -12.831   4.947  0.00  0.00    +0.210 HD
ENDBRANCH  34  43
ENDBRANCH  30  31
ENDBRANCH   5  30
TORSDOF 13
ENDMDL
MODEL 2
REMARK VINA RESULT:       7.2      1.836      6.278
REMARK  Name = *****
REMARK                            x       y       z     vdW  Elec       q    Type
REMARK                         _______ _______ _______ _____ _____    ______ ____
ROOT
ATOM      1  C   LIG    1       22.876 -16.080   3.413  0.00  0.00    +0.169 C 
ATOM      2  C   LIG    1       21.561 -16.923   3.360  0.00  0.00    +0.084 C 
ATOM      3  C   LIG    1       21.404 -17.786   4.639  0.00  0.00    +0.042 C 
ATOM      4  C   LIG    1       22.730 -17.969   5.402  0.00  0.00    +0.084 C 
ATOM      5  C   LIG    1       23.889 -18.261   4.408  0.00  0.00    +0.169 C 
ATOM      6  C   LIG    1       24.078 -17.071   3.412  0.00  0.00    +0.175 C 
ENDROOT
BRANCH   2   7
ATOM      7  N   LIG    1       21.494 -17.753   2.145  0.00  0.00    -0.325 NA
ATOM      8  H   LIG    1       21.343 -18.733   2.389  0.00  0.00    +0.118 HD
ATOM      9  H   LIG    1       22.397 -17.740   1.652  0.00  0.00    +0.118 HD
ENDBRANCH   2   7
BRANCH   4  10
ATOM     10  N   LIG    1       22.558 -18.968   6.470  0.00  0.00    -0.325 NA
ATOM     11  H   LIG    1       23.346 -18.916   7.117  0.00  0.00    +0.118 HD
ATOM     12  H   LIG    1       22.585 -19.902   6.062  0.00  0.00    +0.118 HD
ENDBRANCH   4  10
BRANCH   6  13
ATOM     13  O   LIG    1       25.353 -16.442   3.585  0.00  0.00    -0.387 OA
ATOM     14  H   LIG    1       25.933 -16.811   2.893  0.00  0.00    +0.210 HD
ENDBRANCH   6  13
BRANCH   1  15
ATOM     15  O   LIG    1       22.785 -15.223   4.574  0.00  0.00    -0.342 OA
BRANCH  15  18
ATOM     16  C   LIG    1       25.826 -13.223   4.740  0.00  0.00    +0.138 C 
ATOM     17  O   LIG    1       24.978 -14.386   4.651  0.00  0.00    -0.345 OA
ATOM     18  C   LIG    1       23.595 -14.048   4.537  0.00  0.00    +0.268 C 
ATOM     19  C   LIG    1       23.314 -13.256   3.225  0.00  0.00    +0.107 C 
ATOM     20  C   LIG    1       24.206 -12.012   3.216  0.00  0.00    +0.026 C 
ATOM     21  C   LIG    1       25.670 -12.361   3.478  0.00  0.00    +0.035 C 
BRANCH  19  22
ATOM     22  N   LIG    1       23.541 -14.045   1.997  0.00  0.00    -0.323 NA
ATOM     23  H   LIG    1       23.983 -13.422   1.314  0.00  0.00    +0.119 HD
ATOM     24  H   LIG    1       24.272 -14.730   2.199  0.00  0.00    +0.119 HD
ENDBRANCH  19  22
BRANCH  16  25
ATOM     25  C   LIG    1       27.293 -13.714   4.947  0.00  0.00    +0.079 C 
ATOM     26  C   LIG    1       27.884 -14.411   3.719  0.00  0.00    +0.026 C 
BRANCH  25  28
ATOM     27  C   LIG    1       29.106 -12.084   4.475  0.00  0.00    +0.101 C 
ATOM     28  N   LIG    1       28.196 -12.656   5.456  0.00  0.00    -0.314 NA
ATOM     29  H   LIG    1       27.612 -11.917   5.853  0.00  0.00    +0.122 HD
ENDBRANCH  25  28
ENDBRANCH  16  25
ENDBRANCH  15  18
ENDBRANCH   1  15
BRANCH   5  30
ATOM     30  O   LIG    1       23.607 -19.380   3.550  0.00  0.00    -0.341 OA
BRANCH  30  31
ATOM     31  C   LIG    1       24.252 -20.623   3.854  0.00  0.00    +0.281 C 
ATOM     32  C   LIG    1       25.727 -20.457   3.375  0.00  0.00    +0.190 C 
ATOM     33  C   LIG    1       26.513 -19.732   4.513  0.00  0.00    +0.121 C 
ATOM     34  C   LIG    1       26.433 -20.627   5.803  0.00  0.00    +0.104 C 
ATOM     35  C   LIG    1       26.405 -19.755   7.061  0.00  0.00    +0.045 C 
ATOM     36  C   LIG    1       25.219 -21.572   5.781  0.00  0.00    +0.199 C 
ATOM     37  O   LIG    1       24.084 -20.918   5.231  0.00  0.00    -0.346 OA
BRANCH  33  38
ATOM     38  N   LIG    1       27.951 -19.427   4.255  0.00  0.00    -0.311 NA
ATOM     39  H   LIG    1       28.509 -20.219   4.632  0.00  0.00    +0.122 HD
ATOM     40  C   LIG    1       28.414 -18.227   4.945  0.00  0.00    +0.101 C 
ENDBRANCH  33  38
BRANCH  32  41
ATOM     41  O   LIG    1       25.776 -19.784   2.115  0.00  0.00    -0.385 OA
ATOM     42  H   LIG    1       26.726 -19.685   1.881  0.00  0.00    +0.210 HD
ENDBRANCH  32  41
BRANCH  34  43
ATOM     43  O   LIG    1       27.610 -21.453   5.878  0.00  0.00    -0.385 OA
ATOM     44  H   LIG    1       28.105 -21.112   6.655  0.00  0.00    +0.210 HD
ENDBRANCH  34  43
ENDBRANCH  30  31
ENDBRANCH   5  30
TORSDOF 13
ENDMDL
MODEL 3
REMARK VINA RESULT:       7.5      1.530      2.153
REMARK  Name = *****
REMARK                            x       y       z     vdW  Elec       q    Type
REMARK                         _______ _______ _______ _____ _____    ______ ____
ROOT
ATOM      1  C   LIG    1       23.855 -17.057   4.535  0.00  0.00    +0.169 C 
ATOM      2  C   LIG    1       22.524 -16.546   5.176  0.00  0.00    +0.084 C 
ATOM      3  C   LIG    1       21.521 -16.091   4.085  0.00  0.00    +0.042 C 
ATOM      4  C   LIG    1       22.200 -15.811   2.730  0.00  0.00    +0.084 C 
ATOM      5  C   LIG    1       23.525 -15.025   2.943  0.00  0.00    +0.169 C 
ATOM      6  C   LIG    1       24.527 -15.852   3.811  0.00  0.00    +0.175 C 
ENDROOT
BRANCH   2   7
ATOM      7  N   LIG    1       22.767 -15.476   6.158  0.00  0.00    -0.325 NA
ATOM      8  H   LIG    1       23.704 -15.564   6.557  0.00  0.00    +0.118 HD
ATOM      9  H   LIG    1       22.129 -15.573   6.959  0.00  0.00    +0.118 HD
ENDBRANCH   2   7
BRANCH   4  10
ATOM     10  N   LIG    1       21.239 -15.177   1.812  0.00  0.00    -0.325 NA
ATOM     11  H   LIG    1       20.650 -15.895   1.386  0.00  0.00    +0.118 HD
ATOM     12  H   LIG    1       21.749 -14.735   1.048  0.00  0.00    +0.118 HD
ENDBRANCH   4  10
BRANCH   6  13
ATOM     13  O   LIG    1       25.700 -16.200   3.067  0.00  0.00    -0.387 OA
ATOM     14  H   LIG    1       26.292 -16.658   3.692  0.00  0.00    +0.210 HD
ENDBRANCH   6  13
BRANCH   1  15
ATOM     15  O   LIG    1       23.515 -18.175   3.685  0.00  0.00    -0.342 OA
BRANCH  15  18
ATOM     16  C   LIG    1       25.836 -20.527   5.220  0.00  0.00    +0.138 C 
ATOM     17  O   LIG    1       25.211 -19.272   4.883  0.00  0.00    -0.345 OA
ATOM     18  C   LIG    1       24.032 -19.441   4.095  0.00  0.00    +0.268 C 
ATOM     19  C   LIG    1       22.938 -20.228   4.879  0.00  0.00    +0.107 C 
ATOM     20  C   LIG    1       23.531 -21.571   5.311  0.00  0.00    +0.026 C 
ATOM     21  C   LIG    1       24.865 -21.396   6.034  0.00  0.00    +0.035 C 
BRANCH  19  22
ATOM     22  N   LIG    1       22.419 -19.505   6.058  0.00  0.00    -0.323 NA
ATOM     23  H   LIG    1       22.597 -18.508   5.905  0.00  0.00    +0.119 HD
ATOM     24  H   LIG    1       21.398 -19.568   6.035  0.00  0.00    +0.119 HD
ENDBRANCH  19  22
BRANCH  16  25
ATOM     25  C   LIG    1       27.151 -20.214   6.001  0.00  0.00    +0.079 C 
ATOM     26  C   LIG    1       27.560 -21.319   6.978  0.00  0.00    +0.026 C 
BRANCH  25  28
ATOM     27  C   LIG    1       28.893 -18.544   5.420  0.00  0.00    +0.101 C 
ATOM     28  N   LIG    1       28.276 -19.826   5.120  0.00  0.00    -0.314 NA
ATOM     29  H   LIG    1       28.979 -20.567   5.175  0.00  0.00    +0.122 HD
ENDBRANCH  25  28
ENDBRANCH  16  25
ENDBRANCH  15  18
ENDBRANCH   1  15
BRANCH   5  30
ATOM     30  O   LIG    1       23.331 -13.820   3.703  0.00  0.00    -0.341 OA
BRANCH  30  31
ATOM     31  C   LIG    1       24.051 -12.654   3.286  0.00  0.00    +0.281 C 
ATOM     32  C   LIG    1       24.961 -12.269   4.493  0.00  0.00    +0.190 C 
ATOM     33  C   LIG    1       26.254 -13.140   4.404  0.00  0.00    +0.121 C 
ATOM     34  C   LIG    1       26.960 -12.821   3.037  0.00  0.00    +0.104 C 
ATOM     35  C   LIG    1       27.663 -14.066   2.491  0.00  0.00    +0.045 C 
ATOM     36  C   LIG    1       25.980 -12.260   1.992  0.00  0.00    +0.199 C 
ATOM     37  O   LIG    1       24.728 -12.928   2.069  0.00  0.00    -0.346 OA
BRANCH  33  38
ATOM     38  N   LIG    1       27.261 -12.969   5.492  0.00  0.00    -0.311 NA
ATOM     39  H   LIG    1       28.203 -13.059   5.061  0.00  0.00    +0.122 HD
ATOM     40  C   LIG    1       27.174 -14.001   6.519  0.00  0.00    +0.101 C 
ENDBRANCH  33  38
BRANCH  32  41
ATOM     41  O   LIG    1       24.250 -12.406   5.724  0.00  0.00    -0.385 OA
ATOM     42  H   LIG    1       23.584 -11.684   5.752  0.00  0.00    +0.210 HD
ENDBRANCH  32  41
BRANCH  34  43
ATOM     43  O   LIG    1       27.970 -11.816   3.250  0.00  0.00    -0.385 OA
ATOM     44  H   LIG    1       27.607 -11.243   3.960  0.00  0.00    +0.210 HD
ENDBRANCH  34  43
ENDBRANCH  30  31
ENDBRANCH   5  30
TORSDOF 13
ENDMDL
