MODEL 1
REMARK VINA RESULT:      -5.8      0.000      0.000
REMARK  Name = *****
REMARK                            x       y       z     vdW  Elec       q    Type
REMARK                         _______ _______ _______ _____ _____    ______ ____
ROOT
ATOM      1  C   LIG    1       26.380 -16.014   3.529  0.00  0.00    +0.236 C 
ATOM      2  N   LIG    1       25.381 -16.925   3.251  0.00  0.00    -0.310 N 
ATOM      3  H   LIG    1       24.416 -16.616   3.369  0.00  0.00    +0.149 HD
ATOM      4  O   LIG    1       27.520 -16.372   3.843  0.00  0.00    -0.274 OA
ENDROOT
BRANCH   1   5
ATOM      5  C   LIG    1       25.946 -14.527   3.537  0.00  0.00    +0.185 C 
BRANCH   5   6
ATOM      6  N   LIG    1       26.743 -13.765   4.512  0.00  0.00    -0.302 N 
ATOM      7  H   LIG    1       26.356 -13.627   5.433  0.00  0.00    +0.149 HD
ATOM      8  C   LIG    1       27.914 -13.138   4.155  0.00  0.00    +0.211 C 
ATOM      9  O   LIG    1       28.383 -13.197   3.028  0.00  0.00    -0.276 OA
ATOM     10  C   LIG    1       28.615 -12.433   5.284  0.00  0.00    +0.109 C 
ENDBRANCH   5   6
BRANCH   5  11
ATOM     11  C   LIG    1       24.431 -14.426   3.824  0.00  0.00    +0.191 C 
BRANCH  11  13
ATOM     12  C   LIG    1       24.591 -12.868   2.042  0.00  0.00    +0.194 C 
ATOM     13  O   LIG    1       23.864 -13.258   3.208  0.00  0.00    -0.381 OA
ENDBRANCH  11  13
ENDBRANCH   5  11
ENDBRANCH   1   5
BRANCH   2  14
ATOM     14  C   LIG    1       25.642 -18.343   3.219  0.00  0.00    +0.139 C 
BRANCH  14  15
ATOM     15  C   LIG    1       24.613 -19.133   3.988  0.00  0.00    -0.030 A 
ATOM     16  C   LIG    1       23.276 -18.708   4.016  0.00  0.00    +0.005 A 
ATOM     17  C   LIG    1       22.324 -19.398   4.771  0.00  0.00    +0.000 A 
ATOM     18  C   LIG    1       22.695 -20.522   5.505  0.00  0.00    +0.000 A 
ATOM     19  C   LIG    1       24.016 -20.963   5.479  0.00  0.00    +0.000 A 
ATOM     20  C   LIG    1       24.971 -20.272   4.726  0.00  0.00    +0.005 A 
ENDBRANCH  14  15
ENDBRANCH   2  14
TORSDOF 6
ENDMDL
MODEL 2
REMARK VINA RESULT:      -5.6      0.958      2.563
REMARK  Name = *****
REMARK                            x       y       z     vdW  Elec       q    Type
REMARK                         _______ _______ _______ _____ _____    ______ ____
ROOT
ATOM      1  C   LIG    1       26.250 -15.790   3.683  0.00  0.00    +0.236 C 
ATOM      2  N   LIG    1       25.189 -16.668   3.591  0.00  0.00    -0.310 N 
ATOM      3  H   LIG    1       24.339 -16.435   4.107  0.00  0.00    +0.149 HD
ATOM      4  O   LIG    1       27.414 -16.152   3.489  0.00  0.00    -0.274 OA
ENDROOT
BRANCH   1   5
ATOM      5  C   LIG    1       25.895 -14.358   4.159  0.00  0.00    +0.185 C 
BRANCH   5   6
ATOM      6  N   LIG    1       25.544 -13.509   3.009  0.00  0.00    -0.302 N 
ATOM      7  H   LIG    1       26.117 -13.575   2.181  0.00  0.00    +0.149 HD
ATOM      8  C   LIG    1       24.557 -12.555   3.092  0.00  0.00    +0.211 C 
ATOM      9  O   LIG    1       23.891 -12.371   4.100  0.00  0.00    -0.276 OA
ATOM     10  C   LIG    1       24.307 -11.802   1.813  0.00  0.00    +0.109 C 
ENDBRANCH   5   6
BRANCH   5  11
ATOM     11  C   LIG    1       27.070 -13.772   4.973  0.00  0.00    +0.191 C 
BRANCH  11  13
ATOM     12  C   LIG    1       28.992 -13.039   3.791  0.00  0.00    +0.194 C 
ATOM     13  O   LIG    1       27.694 -12.684   4.270  0.00  0.00    -0.381 OA
ENDBRANCH  11  13
ENDBRANCH   5  11
ENDBRANCH   1   5
BRANCH   2  14
ATOM     14  C   LIG    1       25.375 -18.034   3.170  0.00  0.00    +0.139 C 
BRANCH  14  15
ATOM     15  C   LIG    1       24.505 -18.996   3.940  0.00  0.00    -0.030 A 
ATOM     16  C   LIG    1       23.115 -18.810   3.980  0.00  0.00    +0.005 A 
ATOM     17  C   LIG    1       22.303 -19.659   4.736  0.00  0.00    +0.000 A 
ATOM     18  C   LIG    1       22.869 -20.706   5.459  0.00  0.00    +0.000 A 
ATOM     19  C   LIG    1       24.247 -20.910   5.422  0.00  0.00    +0.000 A 
ATOM     20  C   LIG    1       25.061 -20.059   4.668  0.00  0.00    +0.005 A 
ENDBRANCH  14  15
ENDBRANCH   2  14
TORSDOF 6
ENDMDL
MODEL 3
REMARK VINA RESULT:      -5.4      2.787      6.367
REMARK  Name = *****
REMARK                            x       y       z     vdW  Elec       q    Type
REMARK                         _______ _______ _______ _____ _____    ______ ____
ROOT
ATOM      1  C   LIG    1       25.038 -18.584   3.736  0.00  0.00    +0.236 C 
ATOM      2  N   LIG    1       26.172 -17.845   3.462  0.00  0.00    -0.310 N 
ATOM      3  H   LIG    1       26.989 -17.999   4.054  0.00  0.00    +0.149 HD
ATOM      4  O   LIG    1       23.913 -18.197   3.407  0.00  0.00    -0.274 OA
ENDROOT
BRANCH   1   5
ATOM      5  C   LIG    1       25.262 -19.864   4.581  0.00  0.00    +0.185 C 
BRANCH   5   6
ATOM      6  N   LIG    1       26.699 -20.076   4.818  0.00  0.00    -0.302 N 
ATOM      7  H   LIG    1       27.312 -20.101   4.016  0.00  0.00    +0.149 HD
ATOM      8  C   LIG    1       27.189 -20.370   6.069  0.00  0.00    +0.211 C 
ATOM      9  O   LIG    1       26.479 -20.442   7.061  0.00  0.00    -0.276 OA
ATOM     10  C   LIG    1       28.684 -20.523   6.135  0.00  0.00    +0.109 C 
ENDBRANCH   5   6
BRANCH   5  11
ATOM     11  C   LIG    1       24.607 -21.075   3.879  0.00  0.00    +0.191 C 
BRANCH  11  13
ATOM     12  C   LIG    1       23.190 -21.164   5.780  0.00  0.00    +0.194 C 
ATOM     13  O   LIG    1       23.269 -21.289   4.359  0.00  0.00    -0.381 OA
ENDBRANCH  11  13
ENDBRANCH   5  11
ENDBRANCH   1   5
BRANCH   2  14
ATOM     14  C   LIG    1       26.109 -16.626   2.693  0.00  0.00    +0.139 C 
BRANCH  14  15
ATOM     15  C   LIG    1       26.065 -15.398   3.568  0.00  0.00    -0.030 A 
ATOM     16  C   LIG    1       24.849 -14.734   3.786  0.00  0.00    +0.005 A 
ATOM     17  C   LIG    1       24.803 -13.563   4.547  0.00  0.00    +0.000 A 
ATOM     18  C   LIG    1       25.970 -13.043   5.101  0.00  0.00    +0.000 A 
ATOM     19  C   LIG    1       27.184 -13.697   4.902  0.00  0.00    +0.000 A 
ATOM     20  C   LIG    1       27.232 -14.868   4.139  0.00  0.00    +0.005 A 
ENDBRANCH  14  15
ENDBRANCH   2  14
TORSDOF 6
ENDMDL
MODEL 4
REMARK VINA RESULT:      -5.2      2.858      6.898
REMARK  Name = *****
REMARK                            x       y       z     vdW  Elec       q    Type
REMARK                         _______ _______ _______ _____ _____    ______ ____
ROOT
ATOM      1  C   LIG    1       25.533 -18.884   3.920  0.00  0.00    +0.236 C 
ATOM      2  N   LIG    1       26.439 -17.875   3.661  0.00  0.00    -0.310 N 
ATOM      3  H   LIG    1       27.243 -17.792   4.285  0.00  0.00    +0.149 HD
ATOM      4  O   LIG    1       24.360 -18.819   3.541  0.00  0.00    -0.274 OA
ENDROOT
BRANCH   1   5
ATOM      5  C   LIG    1       26.055 -20.038   4.814  0.00  0.00    +0.185 C 
BRANCH   5   6
ATOM      6  N   LIG    1       25.140 -20.265   5.943  0.00  0.00    -0.302 N 
ATOM      7  H   LIG    1       25.412 -19.914   6.850  0.00  0.00    +0.149 HD
ATOM      8  C   LIG    1       24.015 -21.046   5.816  0.00  0.00    +0.211 C 
ATOM      9  O   LIG    1       23.685 -21.571   4.763  0.00  0.00    -0.276 OA
ATOM     10  C   LIG    1       23.176 -21.142   7.062  0.00  0.00    +0.109 C 
ENDBRANCH   5   6
BRANCH   5  11
ATOM     11  C   LIG    1       27.492 -19.723   5.288  0.00  0.00    +0.191 C 
BRANCH  11  13
ATOM     12  C   LIG    1       29.165 -20.416   6.820  0.00  0.00    +0.194 C 
ATOM     13  O   LIG    1       27.764 -20.341   6.557  0.00  0.00    -0.381 OA
ENDBRANCH  11  13
ENDBRANCH   5  11
ENDBRANCH   1   5
BRANCH   2  14
ATOM     14  C   LIG    1       26.087 -16.735   2.851  0.00  0.00    +0.139 C 
BRANCH  14  15
ATOM     15  C   LIG    1       26.131 -15.444   3.628  0.00  0.00    -0.030 A 
ATOM     16  C   LIG    1       24.942 -14.774   3.949  0.00  0.00    +0.005 A 
ATOM     17  C   LIG    1       24.971 -13.548   4.619  0.00  0.00    +0.000 A 
ATOM     18  C   LIG    1       26.190 -12.977   4.978  0.00  0.00    +0.000 A 
ATOM     19  C   LIG    1       27.380 -13.635   4.675  0.00  0.00    +0.000 A 
ATOM     20  C   LIG    1       27.352 -14.861   4.003  0.00  0.00    +0.005 A 
ENDBRANCH  14  15
ENDBRANCH   2  14
TORSDOF 6
ENDMDL
MODEL 5
REMARK VINA RESULT:      -5.2      1.548      2.458
REMARK  Name = *****
REMARK                            x       y       z     vdW  Elec       q    Type
REMARK                         _______ _______ _______ _____ _____    ______ ____
ROOT
ATOM      1  C   LIG    1       23.299 -15.201   4.465  0.00  0.00    +0.236 C 
ATOM      2  N   LIG    1       23.106 -16.425   3.856  0.00  0.00    -0.310 N 
ATOM      3  H   LIG    1       23.297 -16.487   2.855  0.00  0.00    +0.149 HD
ATOM      4  O   LIG    1       22.713 -14.892   5.506  0.00  0.00    -0.274 OA
ENDROOT
BRANCH   1   5
ATOM      5  C   LIG    1       24.204 -14.206   3.695  0.00  0.00    +0.185 C 
BRANCH   5   6
ATOM      6  N   LIG    1       25.589 -14.289   4.184  0.00  0.00    -0.302 N 
ATOM      7  H   LIG    1       25.754 -14.126   5.166  0.00  0.00    +0.149 HD
ATOM      8  C   LIG    1       26.651 -14.445   3.324  0.00  0.00    +0.211 C 
ATOM      9  O   LIG    1       26.516 -14.556   2.114  0.00  0.00    -0.276 OA
ATOM     10  C   LIG    1       27.993 -14.544   3.998  0.00  0.00    +0.109 C 
ENDBRANCH   5   6
BRANCH   5  11
ATOM     11  C   LIG    1       23.632 -12.775   3.819  0.00  0.00    +0.191 C 
BRANCH  11  13
ATOM     12  C   LIG    1       24.416 -11.782   1.812  0.00  0.00    +0.194 C 
ATOM     13  O   LIG    1       24.523 -11.810   3.236  0.00  0.00    -0.381 OA
ENDBRANCH  11  13
ENDBRANCH   5  11
ENDBRANCH   1   5
BRANCH   2  14
ATOM     14  C   LIG    1       22.281 -17.443   4.456  0.00  0.00    +0.139 C 
BRANCH  14  15
ATOM     15  C   LIG    1       22.967 -18.785   4.500  0.00  0.00    -0.030 A 
ATOM     16  C   LIG    1       22.534 -19.768   5.402  0.00  0.00    +0.005 A 
ATOM     17  C   LIG    1       23.197 -20.995   5.494  0.00  0.00    +0.000 A 
ATOM     18  C   LIG    1       24.299 -21.255   4.683  0.00  0.00    +0.000 A 
ATOM     19  C   LIG    1       24.736 -20.293   3.775  0.00  0.00    +0.000 A 
ATOM     20  C   LIG    1       24.075 -19.064   3.684  0.00  0.00    +0.005 A 
ENDBRANCH  14  15
ENDBRANCH   2  14
TORSDOF 6
ENDMDL
MODEL 6
REMARK VINA RESULT:      -4.8      1.453      3.151
REMARK  Name = *****
REMARK                            x       y       z     vdW  Elec       q    Type
REMARK                         _______ _______ _______ _____ _____    ______ ____
ROOT
ATOM      1  C   LIG    1       23.889 -15.777   4.137  0.00  0.00    +0.236 C 
ATOM      2  N   LIG    1       24.112 -17.072   3.714  0.00  0.00    -0.310 N 
ATOM      3  H   LIG    1       24.877 -17.227   3.057  0.00  0.00    +0.149 HD
ATOM      4  O   LIG    1       22.787 -15.407   4.551  0.00  0.00    -0.274 OA
ENDROOT
BRANCH   1   5
ATOM      5  C   LIG    1       25.076 -14.798   3.948  0.00  0.00    +0.185 C 
BRANCH   5   6
ATOM      6  N   LIG    1       24.682 -13.676   3.082  0.00  0.00    -0.302 N 
ATOM      7  H   LIG    1       24.819 -13.775   2.087  0.00  0.00    +0.149 HD
ATOM      8  C   LIG    1       24.267 -12.473   3.604  0.00  0.00    +0.211 C 
ATOM      9  O   LIG    1       24.168 -12.266   4.804  0.00  0.00    -0.276 OA
ATOM     10  C   LIG    1       23.870 -11.449   2.575  0.00  0.00    +0.109 C 
ENDBRANCH   5   6
BRANCH   5  11
ATOM     11  C   LIG    1       26.297 -15.561   3.386  0.00  0.00    +0.191 C 
BRANCH  11  13
ATOM     12  C   LIG    1       27.979 -13.901   3.607  0.00  0.00    +0.194 C 
ATOM     13  O   LIG    1       27.505 -15.170   4.060  0.00  0.00    -0.381 OA
ENDBRANCH  11  13
ENDBRANCH   5  11
ENDBRANCH   1   5
BRANCH   2  14
ATOM     14  C   LIG    1       23.092 -18.086   3.822  0.00  0.00    +0.139 C 
BRANCH  14  15
ATOM     15  C   LIG    1       23.551 -19.278   4.622  0.00  0.00    -0.030 A 
ATOM     16  C   LIG    1       24.783 -19.885   4.338  0.00  0.00    +0.005 A 
ATOM     17  C   LIG    1       25.195 -21.024   5.033  0.00  0.00    +0.000 A 
ATOM     18  C   LIG    1       24.382 -21.571   6.022  0.00  0.00    +0.000 A 
ATOM     19  C   LIG    1       23.159 -20.975   6.324  0.00  0.00    +0.000 A 
ATOM     20  C   LIG    1       22.745 -19.836   5.627  0.00  0.00    +0.005 A 
ENDBRANCH  14  15
ENDBRANCH   2  14
TORSDOF 6
ENDMDL
MODEL 7
REMARK VINA RESULT:      -4.7      2.790      6.707
REMARK  Name = *****
REMARK                            x       y       z     vdW  Elec       q    Type
REMARK                         _______ _______ _______ _____ _____    ______ ____
ROOT
ATOM      1  C   LIG    1       25.908 -18.832   4.062  0.00  0.00    +0.236 C 
ATOM      2  N   LIG    1       25.617 -17.651   3.409  0.00  0.00    -0.310 N 
ATOM      3  H   LIG    1       24.860 -17.665   2.726  0.00  0.00    +0.149 HD
ATOM      4  O   LIG    1       27.020 -19.051   4.550  0.00  0.00    -0.274 OA
ENDROOT
BRANCH   1   5
ATOM      5  C   LIG    1       24.787 -19.903   4.038  0.00  0.00    +0.185 C 
BRANCH   5   6
ATOM      6  N   LIG    1       23.522 -19.310   3.576  0.00  0.00    -0.302 N 
ATOM      7  H   LIG    1       23.471 -18.992   2.620  0.00  0.00    +0.149 HD
ATOM      8  C   LIG    1       22.482 -19.064   4.442  0.00  0.00    +0.211 C 
ATOM      9  O   LIG    1       22.524 -19.346   5.630  0.00  0.00    -0.276 OA
ATOM     10  C   LIG    1       21.252 -18.486   3.793  0.00  0.00    +0.109 C 
ENDBRANCH   5   6
BRANCH   5  11
ATOM     11  C   LIG    1       24.648 -20.546   5.436  0.00  0.00    +0.191 C 
BRANCH  11  13
ATOM     12  C   LIG    1       26.160 -21.554   6.962  0.00  0.00    +0.194 C 
ATOM     13  O   LIG    1       25.635 -21.572   5.634  0.00  0.00    -0.381 OA
ENDBRANCH  11  13
ENDBRANCH   5  11
ENDBRANCH   1   5
BRANCH   2  14
ATOM     14  C   LIG    1       26.571 -16.571   3.346  0.00  0.00    +0.139 C 
BRANCH  14  15
ATOM     15  C   LIG    1       25.904 -15.220   3.291  0.00  0.00    -0.030 A 
ATOM     16  C   LIG    1       24.685 -15.009   3.950  0.00  0.00    +0.005 A 
ATOM     17  C   LIG    1       24.028 -13.779   3.860  0.00  0.00    +0.000 A 
ATOM     18  C   LIG    1       24.583 -12.744   3.112  0.00  0.00    +0.000 A 
ATOM     19  C   LIG    1       25.799 -12.933   2.460  0.00  0.00    +0.000 A 
ATOM     20  C   LIG    1       26.457 -14.165   2.547  0.00  0.00    +0.005 A 
ENDBRANCH  14  15
ENDBRANCH   2  14
TORSDOF 6
ENDMDL
MODEL 8
REMARK VINA RESULT:      -4.7      2.450      6.689
REMARK  Name = *****
REMARK                            x       y       z     vdW  Elec       q    Type
REMARK                         _______ _______ _______ _____ _____    ______ ____
ROOT
ATOM      1  C   LIG    1       26.594 -17.753   3.827  0.00  0.00    +0.236 C 
ATOM      2  N   LIG    1       26.031 -16.606   3.305  0.00  0.00    -0.310 N 
ATOM      3  H   LIG    1       25.263 -16.719   2.642  0.00  0.00    +0.149 HD
ATOM      4  O   LIG    1       27.749 -17.773   4.263  0.00  0.00    -0.274 OA
ENDROOT
BRANCH   1   5
ATOM      5  C   LIG    1       25.725 -19.032   3.723  0.00  0.00    +0.185 C 
BRANCH   5   6
ATOM      6  N   LIG    1       24.337 -18.743   4.119  0.00  0.00    -0.302 N 
ATOM      7  H   LIG    1       24.142 -17.842   4.531  0.00  0.00    +0.149 HD
ATOM      8  C   LIG    1       23.355 -19.704   4.065  0.00  0.00    +0.211 C 
ATOM      9  O   LIG    1       23.557 -20.840   3.660  0.00  0.00    -0.276 OA
ATOM     10  C   LIG    1       21.988 -19.226   4.474  0.00  0.00    +0.109 C 
ENDBRANCH   5   6
BRANCH   5  11
ATOM     11  C   LIG    1       26.347 -20.158   4.580  0.00  0.00    +0.191 C 
BRANCH  11  13
ATOM     12  C   LIG    1       26.907 -20.492   6.861  0.00  0.00    +0.194 C 
ATOM     13  O   LIG    1       25.894 -20.082   5.942  0.00  0.00    -0.381 OA
ENDBRANCH  11  13
ENDBRANCH   5  11
ENDBRANCH   1   5
BRANCH   2  14
ATOM     14  C   LIG    1       26.731 -15.346   3.326  0.00  0.00    +0.139 C 
BRANCH  14  15
ATOM     15  C   LIG    1       25.791 -14.167   3.296  0.00  0.00    -0.030 A 
ATOM     16  C   LIG    1       25.025 -13.849   4.427  0.00  0.00    +0.005 A 
ATOM     17  C   LIG    1       24.108 -12.795   4.394  0.00  0.00    +0.000 A 
ATOM     18  C   LIG    1       23.948 -12.044   3.232  0.00  0.00    +0.000 A 
ATOM     19  C   LIG    1       24.709 -12.341   2.103  0.00  0.00    +0.000 A 
ATOM     20  C   LIG    1       25.625 -13.397   2.134  0.00  0.00    +0.005 A 
ENDBRANCH  14  15
ENDBRANCH   2  14
TORSDOF 6
ENDMDL
MODEL 9
REMARK VINA RESULT:      -4.6      2.447      6.690
REMARK  Name = *****
REMARK                            x       y       z     vdW  Elec       q    Type
REMARK                         _______ _______ _______ _____ _____    ______ ____
ROOT
ATOM      1  C   LIG    1       26.547 -17.740   3.765  0.00  0.00    +0.236 C 
ATOM      2  N   LIG    1       25.944 -16.601   3.272  0.00  0.00    -0.310 N 
ATOM      3  H   LIG    1       25.158 -16.723   2.631  0.00  0.00    +0.149 HD
ATOM      4  O   LIG    1       27.714 -17.739   4.165  0.00  0.00    -0.274 OA
ENDROOT
BRANCH   1   5
ATOM      5  C   LIG    1       25.702 -19.037   3.674  0.00  0.00    +0.185 C 
BRANCH   5   6
ATOM      6  N   LIG    1       24.320 -18.779   4.108  0.00  0.00    -0.302 N 
ATOM      7  H   LIG    1       24.111 -17.877   4.510  0.00  0.00    +0.149 HD
ATOM      8  C   LIG    1       23.365 -19.769   4.102  0.00  0.00    +0.211 C 
ATOM      9  O   LIG    1       23.586 -20.905   3.710  0.00  0.00    -0.276 OA
ATOM     10  C   LIG    1       21.998 -19.322   4.546  0.00  0.00    +0.109 C 
ENDBRANCH   5   6
BRANCH   5  11
ATOM     11  C   LIG    1       26.371 -20.155   4.505  0.00  0.00    +0.191 C 
BRANCH  11  13
ATOM     12  C   LIG    1       27.074 -20.469   6.749  0.00  0.00    +0.194 C 
ATOM     13  O   LIG    1       26.009 -20.055   5.892  0.00  0.00    -0.381 OA
ENDBRANCH  11  13
ENDBRANCH   5  11
ENDBRANCH   1   5
BRANCH   2  14
ATOM     14  C   LIG    1       26.618 -15.326   3.285  0.00  0.00    +0.139 C 
BRANCH  14  15
ATOM     15  C   LIG    1       25.653 -14.167   3.271  0.00  0.00    -0.030 A 
ATOM     16  C   LIG    1       25.506 -13.387   2.115  0.00  0.00    +0.005 A 
ATOM     17  C   LIG    1       24.658 -12.276   2.107  0.00  0.00    +0.000 A 
ATOM     18  C   LIG    1       23.945 -11.933   3.253  0.00  0.00    +0.000 A 
ATOM     19  C   LIG    1       24.072 -12.703   4.407  0.00  0.00    +0.000 A 
ATOM     20  C   LIG    1       24.922 -13.814   4.417  0.00  0.00    +0.005 A 
ENDBRANCH  14  15
ENDBRANCH   2  14
TORSDOF 6
ENDMDL
