MODEL 1
REMARK VINA RESULT:      35.2      0.000      0.000
REMARK  Name = *****
REMARK                            x       y       z     vdW  Elec       q    Type
REMARK                         _______ _______ _______ _____ _____    ______ ____
ROOT
ATOM      1  C   LIG    1       25.081 -15.059   2.912  0.00  0.00    +0.190 C 
ENDROOT
BRANCH   1   4
ATOM      2  N   LIG    1       27.120 -17.894   4.025  0.00  0.00    -0.131 N 
ATOM      3  C   LIG    1       26.563 -16.695   4.268  0.00  0.00    +0.430 A 
ATOM      4  N   LIG    1       25.636 -16.446   3.303  0.00  0.00    -0.207 N 
ATOM      5  N   LIG    1       25.528 -17.547   2.487  0.00  0.00    -0.108 NA
ATOM      6  C   LIG    1       26.427 -18.371   2.929  0.00  0.00    +0.452 A 
BRANCH   2   7
ATOM      7  C   LIG    1       28.259 -18.454   4.768  0.00  0.00    +0.465 C 
ATOM      8  C   LIG    1       29.439 -17.499   4.851  0.00  0.00    +0.138 C 
BRANCH   7   9
ATOM      9  O   LIG    1       27.842 -19.266   5.879  0.00  0.00    -0.387 OA
BRANCH   9  11
ATOM     10  N   LIG    1       26.051 -20.649   5.603  0.00  0.00    -0.224 N 
ATOM     11  C   LIG    1       26.535 -19.475   6.181  0.00  0.00    +0.413 C 
ATOM     12  O   LIG    1       25.901 -18.687   6.868  0.00  0.00    -0.226 OA
ATOM     13  C   LIG    1       26.807 -21.338   4.543  0.00  0.00    +0.143 C 
BRANCH  10  15
ATOM     14  C   LIG    1       23.873 -21.347   4.707  0.00  0.00    +0.030 A 
ATOM     15  C   LIG    1       24.668 -20.961   5.794  0.00  0.00    +0.136 A 
ATOM     16  N   LIG    1       24.089 -20.696   6.978  0.00  0.00    -0.239 NA
ATOM     17  C   LIG    1       22.731 -20.862   7.060  0.00  0.00    +0.113 A 
ATOM     18  C   LIG    1       21.887 -21.251   6.033  0.00  0.00    +0.020 A 
ATOM     19  C   LIG    1       22.483 -21.571   4.844  0.00  0.00    +0.012 A 
BRANCH  14  20
ATOM     20  C   LIG    1       24.177 -20.821   3.346  0.00  0.00    +0.271 C 
BRANCH  20  21
ATOM     21  O   LIG    1       25.327 -21.222   2.672  0.00  0.00    -0.459 OA
BRANCH  21  22
ATOM     22  C   LIG    1       25.994 -20.249   2.018  0.00  0.00    +0.321 C 
ATOM     23  O   LIG    1       27.197 -20.230   1.817  0.00  0.00    -0.249 OA
BRANCH  22  24
ATOM     24  C   LIG    1       24.926 -19.146   1.814  0.00  0.00    +0.202 C 
BRANCH  24  26
ATOM     25  C   LIG    1       22.928 -20.918   1.812  0.00  0.00    +0.101 C 
ATOM     26  N   LIG    1       23.554 -19.642   2.173  0.00  0.00    -0.310 NA
ATOM     27  H   LIG    1       22.851 -18.907   2.236  0.00  0.00    +0.122 HD
ENDBRANCH  24  26
ENDBRANCH  22  24
ENDBRANCH  21  22
ENDBRANCH  20  21
ENDBRANCH  14  20
ENDBRANCH  10  15
ENDBRANCH   9  11
ENDBRANCH   7   9
ENDBRANCH   2   7
ENDBRANCH   1   4
BRANCH   1  28
ATOM     28  C   LIG    1       25.603 -13.465   3.257  0.00  0.00    +0.122 C 
BRANCH  28  29
ATOM     29  C   LIG    1       26.982 -12.984   3.943  0.00  0.00    +0.024 A 
ATOM     30  C   LIG    1       27.937 -12.124   3.319  0.00  0.00    +0.130 A 
ATOM     31  F   LIG    1       27.777 -11.649   2.089  0.00  0.00    -0.205 F 
ATOM     32  C   LIG    1       29.155 -11.688   3.871  0.00  0.00    +0.041 A 
ATOM     33  C   LIG    1       29.454 -11.987   5.174  0.00  0.00    +0.041 A 
ATOM     34  C   LIG    1       28.649 -12.931   5.786  0.00  0.00    +0.124 A 
ATOM     35  F   LIG    1       28.954 -13.248   7.051  0.00  0.00    -0.205 F 
ATOM     36  C   LIG    1       27.496 -13.504   5.154  0.00  0.00    +0.047 A 
ENDBRANCH  28  29
BRANCH  28  37
ATOM     37  O   LIG    1       25.583 -12.768   1.972  0.00  0.00    -0.381 OA
ATOM     38  H   LIG    1       24.759 -13.015   1.508  0.00  0.00    +0.211 HD
ENDBRANCH  28  37
BRANCH  28  39
ATOM     39  C   LIG    1       24.342 -12.789   4.072  0.00  0.00    +0.080 C 
ATOM     40  C   LIG    1       23.444 -11.896   3.196  0.00  0.00    +0.018 C 
BRANCH  39  41
ATOM     41  C   LIG    1       23.403 -13.793   4.734  0.00  0.00    +0.085 A 
ATOM     42  S   LIG    1       22.914 -13.612   6.392  0.00  0.00    -0.080 S 
ATOM     43  C   LIG    1       21.754 -14.854   6.162  0.00  0.00    +0.075 A 
ATOM     44  C   LIG    1       22.023 -15.501   4.972  0.00  0.00    +0.078 A 
ATOM     45  N   LIG    1       22.906 -14.847   4.128  0.00  0.00    -0.244 NA
BRANCH  44  46
ATOM     46  C   LIG    1       21.462 -16.785   4.603  0.00  0.00    +0.001 A 
ATOM     47  C   LIG    1       21.993 -17.982   5.094  0.00  0.00    +0.011 A 
ATOM     48  C   LIG    1       21.485 -19.209   4.662  0.00  0.00    +0.019 A 
ATOM     49  C   LIG    1       20.445 -19.242   3.733  0.00  0.00    +0.052 A 
ATOM     50  C   LIG    1       19.896 -18.052   3.254  0.00  0.00    +0.019 A 
ATOM     51  C   LIG    1       20.400 -16.828   3.688  0.00  0.00    +0.011 A 
BRANCH  49  52
ATOM     52  C   LIG    1       19.943 -20.527   3.248  0.00  0.00    +0.099 C 
ATOM     53  N   LIG    1       19.559 -21.506   2.876  0.00  0.00    -0.191 NA
ENDBRANCH  49  52
ENDBRANCH  44  46
ENDBRANCH  39  41
ENDBRANCH  28  39
ENDBRANCH   1  28
TORSDOF 17
ENDMDL
MODEL 2
REMARK VINA RESULT:      35.7      2.437      4.528
REMARK  Name = *****
REMARK                            x       y       z     vdW  Elec       q    Type
REMARK                         _______ _______ _______ _____ _____    ______ ____
ROOT
ATOM      1  C   LIG    1       27.586 -14.314   6.142  0.00  0.00    +0.190 C 
ENDROOT
BRANCH   1   4
ATOM      2  N   LIG    1       27.969 -17.896   5.461  0.00  0.00    -0.131 N 
ATOM      3  C   LIG    1       27.178 -16.825   5.642  0.00  0.00    +0.430 A 
ATOM      4  N   LIG    1       27.946 -15.703   5.570  0.00  0.00    -0.207 N 
ATOM      5  N   LIG    1       29.231 -16.059   5.236  0.00  0.00    -0.108 NA
ATOM      6  C   LIG    1       29.212 -17.355   5.198  0.00  0.00    +0.452 A 
BRANCH   2   7
ATOM      7  C   LIG    1       27.531 -19.293   5.604  0.00  0.00    +0.465 C 
ATOM      8  C   LIG    1       28.689 -20.258   5.805  0.00  0.00    +0.138 C 
BRANCH   7   9
ATOM      9  O   LIG    1       26.294 -19.408   6.327  0.00  0.00    -0.387 OA
BRANCH   9  11
ATOM     10  N   LIG    1       24.247 -20.382   6.093  0.00  0.00    -0.224 N 
ATOM     11  C   LIG    1       25.083 -19.330   5.720  0.00  0.00    +0.413 C 
ATOM     12  O   LIG    1       24.815 -18.433   4.934  0.00  0.00    -0.226 OA
ATOM     13  C   LIG    1       24.785 -21.567   6.785  0.00  0.00    +0.143 C 
BRANCH  10  15
ATOM     14  C   LIG    1       22.376 -19.309   4.917  0.00  0.00    +0.030 A 
ATOM     15  C   LIG    1       22.957 -20.454   5.481  0.00  0.00    +0.136 A 
ATOM     16  N   LIG    1       22.221 -21.571   5.619  0.00  0.00    -0.239 NA
ATOM     17  C   LIG    1       20.932 -21.532   5.153  0.00  0.00    +0.113 A 
ATOM     18  C   LIG    1       20.300 -20.443   4.577  0.00  0.00    +0.020 A 
ATOM     19  C   LIG    1       21.064 -19.324   4.389  0.00  0.00    +0.012 A 
BRANCH  14  20
ATOM     20  C   LIG    1       22.686 -17.967   5.488  0.00  0.00    +0.271 C 
BRANCH  20  21
ATOM     21  O   LIG    1       22.139 -16.816   4.927  0.00  0.00    -0.459 OA
BRANCH  21  22
ATOM     22  C   LIG    1       22.040 -15.753   5.750  0.00  0.00    +0.321 C 
ATOM     23  O   LIG    1       21.015 -15.373   6.292  0.00  0.00    -0.249 OA
BRANCH  22  24
ATOM     24  C   LIG    1       23.426 -15.072   5.640  0.00  0.00    +0.202 C 
BRANCH  24  26
ATOM     25  C   LIG    1       22.985 -14.920   3.009  0.00  0.00    +0.101 C 
ATOM     26  N   LIG    1       23.836 -14.899   4.204  0.00  0.00    -0.310 NA
ATOM     27  H   LIG    1       24.759 -15.272   3.989  0.00  0.00    +0.122 HD
ENDBRANCH  24  26
ENDBRANCH  22  24
ENDBRANCH  21  22
ENDBRANCH  20  21
ENDBRANCH  14  20
ENDBRANCH  10  15
ENDBRANCH   9  11
ENDBRANCH   7   9
ENDBRANCH   2   7
ENDBRANCH   1   4
BRANCH   1  28
ATOM     28  C   LIG    1       27.040 -12.868   5.406  0.00  0.00    +0.122 C 
BRANCH  28  29
ATOM     29  C   LIG    1       25.524 -12.351   5.202  0.00  0.00    +0.024 A 
ATOM     30  C   LIG    1       24.921 -12.103   3.931  0.00  0.00    +0.130 A 
ATOM     31  F   LIG    1       25.573 -12.264   2.785  0.00  0.00    -0.205 F 
ATOM     32  C   LIG    1       23.611 -11.643   3.705  0.00  0.00    +0.041 A 
ATOM     33  C   LIG    1       22.746 -11.515   4.758  0.00  0.00    +0.041 A 
ATOM     34  C   LIG    1       23.303 -11.598   6.022  0.00  0.00    +0.124 A 
ATOM     35  F   LIG    1       22.465 -11.447   7.056  0.00  0.00    -0.205 F 
ATOM     36  C   LIG    1       24.685 -11.904   6.249  0.00  0.00    +0.047 A 
ENDBRANCH  28  29
BRANCH  28  37
ATOM     37  O   LIG    1       27.685 -11.790   6.154  0.00  0.00    -0.381 OA
ATOM     38  H   LIG    1       27.985 -12.154   7.010  0.00  0.00    +0.211 HD
ENDBRANCH  28  37
BRANCH  28  39
ATOM     39  C   LIG    1       27.812 -12.832   3.952  0.00  0.00    +0.080 C 
ATOM     40  C   LIG    1       29.303 -12.458   4.051  0.00  0.00    +0.018 C 
BRANCH  39  41
ATOM     41  C   LIG    1       27.768 -14.145   3.177  0.00  0.00    +0.085 A 
ATOM     42  S   LIG    1       28.807 -14.421   1.812  0.00  0.00    -0.080 S 
ATOM     43  C   LIG    1       28.336 -16.070   1.815  0.00  0.00    +0.075 A 
ATOM     44  C   LIG    1       27.232 -16.217   2.632  0.00  0.00    +0.078 A 
ATOM     45  N   LIG    1       26.963 -15.143   3.464  0.00  0.00    -0.244 NA
BRANCH  44  46
ATOM     46  C   LIG    1       26.375 -17.386   2.633  0.00  0.00    +0.001 A 
ATOM     47  C   LIG    1       26.839 -18.631   2.197  0.00  0.00    +0.011 A 
ATOM     48  C   LIG    1       25.972 -19.724   2.134  0.00  0.00    +0.019 A 
ATOM     49  C   LIG    1       24.636 -19.573   2.504  0.00  0.00    +0.052 A 
ATOM     50  C   LIG    1       24.170 -18.339   2.958  0.00  0.00    +0.019 A 
ATOM     51  C   LIG    1       25.036 -17.249   3.026  0.00  0.00    +0.011 A 
BRANCH  49  52
ATOM     52  C   LIG    1       23.717 -20.706   2.395  0.00  0.00    +0.099 C 
ATOM     53  N   LIG    1       23.017 -21.570   2.314  0.00  0.00    -0.191 NA
ENDBRANCH  49  52
ENDBRANCH  44  46
ENDBRANCH  39  41
ENDBRANCH  28  39
ENDBRANCH   1  28
TORSDOF 17
ENDMDL
MODEL 3
REMARK VINA RESULT:      36.4      2.609      5.705
REMARK  Name = *****
REMARK                            x       y       z     vdW  Elec       q    Type
REMARK                         _______ _______ _______ _____ _____    ______ ____
ROOT
ATOM      1  C   LIG    1       26.106 -15.834   3.119  0.00  0.00    +0.190 C 
ENDROOT
BRANCH   1   4
ATOM      2  N   LIG    1       22.803 -17.364   3.555  0.00  0.00    -0.131 N 
ATOM      3  C   LIG    1       24.071 -17.439   3.116  0.00  0.00    +0.430 A 
ATOM      4  N   LIG    1       24.779 -16.410   3.658  0.00  0.00    -0.207 N 
ATOM      5  N   LIG    1       23.975 -15.726   4.538  0.00  0.00    -0.108 NA
ATOM      6  C   LIG    1       22.816 -16.301   4.439  0.00  0.00    +0.452 A 
BRANCH   2   7
ATOM      7  C   LIG    1       21.703 -18.218   3.086  0.00  0.00    +0.465 C 
ATOM      8  C   LIG    1       20.753 -17.496   2.144  0.00  0.00    +0.138 C 
BRANCH   7   9
ATOM      9  O   LIG    1       22.118 -19.578   2.872  0.00  0.00    -0.387 OA
BRANCH   9  11
ATOM     10  N   LIG    1       24.116 -19.807   3.943  0.00  0.00    -0.224 N 
ATOM     11  C   LIG    1       22.813 -20.284   3.798  0.00  0.00    +0.413 C 
ATOM     12  O   LIG    1       22.314 -21.228   4.393  0.00  0.00    -0.226 OA
ATOM     13  C   LIG    1       24.700 -18.886   2.953  0.00  0.00    +0.143 C 
BRANCH  10  15
ATOM     14  C   LIG    1       24.494 -20.951   6.084  0.00  0.00    +0.030 A 
ATOM     15  C   LIG    1       24.980 -20.500   4.849  0.00  0.00    +0.136 A 
ATOM     16  N   LIG    1       26.300 -20.545   4.599  0.00  0.00    -0.239 NA
ATOM     17  C   LIG    1       27.102 -21.079   5.574  0.00  0.00    +0.113 A 
ATOM     18  C   LIG    1       26.691 -21.553   6.808  0.00  0.00    +0.020 A 
ATOM     19  C   LIG    1       25.343 -21.556   7.041  0.00  0.00    +0.012 A 
BRANCH  14  20
ATOM     20  C   LIG    1       23.401 -20.202   6.767  0.00  0.00    +0.271 C 
BRANCH  20  21
ATOM     21  O   LIG    1       23.402 -18.810   6.787  0.00  0.00    -0.459 OA
BRANCH  21  22
ATOM     22  C   LIG    1       22.343 -18.213   6.204  0.00  0.00    +0.321 C 
ATOM     23  O   LIG    1       21.550 -18.759   5.455  0.00  0.00    -0.249 OA
BRANCH  22  24
ATOM     24  C   LIG    1       22.534 -16.714   6.542  0.00  0.00    +0.202 C 
BRANCH  24  26
ATOM     25  C   LIG    1       20.895 -14.665   7.042  0.00  0.00    +0.101 C 
ATOM     26  N   LIG    1       21.245 -16.088   6.994  0.00  0.00    -0.310 NA
ATOM     27  H   LIG    1       20.782 -16.593   7.749  0.00  0.00    +0.122 HD
ENDBRANCH  24  26
ENDBRANCH  22  24
ENDBRANCH  21  22
ENDBRANCH  20  21
ENDBRANCH  14  20
ENDBRANCH  10  15
ENDBRANCH   9  11
ENDBRANCH   7   9
ENDBRANCH   2   7
ENDBRANCH   1   4
BRANCH   1  28
ATOM     28  C   LIG    1       27.745 -16.211   3.440  0.00  0.00    +0.122 C 
BRANCH  28  29
ATOM     29  C   LIG    1       28.362 -17.051   4.674  0.00  0.00    +0.024 A 
ATOM     30  C   LIG    1       28.651 -16.500   5.959  0.00  0.00    +0.130 A 
ATOM     31  F   LIG    1       28.448 -15.222   6.254  0.00  0.00    -0.205 F 
ATOM     32  C   LIG    1       29.199 -17.188   7.058  0.00  0.00    +0.041 A 
ATOM     33  C   LIG    1       29.383 -18.543   6.986  0.00  0.00    +0.041 A 
ATOM     34  C   LIG    1       29.262 -19.112   5.731  0.00  0.00    +0.124 A 
ATOM     35  F   LIG    1       29.467 -20.433   5.649  0.00  0.00    -0.205 F 
ATOM     36  C   LIG    1       28.863 -18.369   4.570  0.00  0.00    +0.047 A 
ENDBRANCH  28  29
BRANCH  28  37
ATOM     37  O   LIG    1       28.214 -16.925   2.254  0.00  0.00    -0.381 OA
ATOM     38  H   LIG    1       27.431 -17.242   1.763  0.00  0.00    +0.211 HD
ENDBRANCH  28  37
BRANCH  28  39
ATOM     39  C   LIG    1       28.524 -14.764   3.342  0.00  0.00    +0.080 C 
ATOM     40  C   LIG    1       28.731 -14.267   1.899  0.00  0.00    +0.018 C 
BRANCH  39  41
ATOM     41  C   LIG    1       27.833 -13.619   4.077  0.00  0.00    +0.085 A 
ATOM     42  S   LIG    1       28.746 -12.318   4.779  0.00  0.00    -0.080 S 
ATOM     43  C   LIG    1       27.282 -11.466   5.047  0.00  0.00    +0.075 A 
ATOM     44  C   LIG    1       26.222 -12.333   4.867  0.00  0.00    +0.078 A 
ATOM     45  N   LIG    1       26.533 -13.528   4.240  0.00  0.00    -0.244 NA
BRANCH  44  46
ATOM     46  C   LIG    1       24.869 -12.060   5.309  0.00  0.00    +0.001 A 
ATOM     47  C   LIG    1       24.590 -11.712   6.634  0.00  0.00    +0.011 A 
ATOM     48  C   LIG    1       23.270 -11.532   7.053  0.00  0.00    +0.019 A 
ATOM     49  C   LIG    1       22.224 -11.703   6.147  0.00  0.00    +0.052 A 
ATOM     50  C   LIG    1       22.494 -12.030   4.818  0.00  0.00    +0.019 A 
ATOM     51  C   LIG    1       23.812 -12.206   4.398  0.00  0.00    +0.011 A 
BRANCH  49  52
ATOM     52  C   LIG    1       20.840 -11.557   6.597  0.00  0.00    +0.099 C 
ATOM     53  N   LIG    1       19.784 -11.448   6.939  0.00  0.00    -0.191 NA
ENDBRANCH  49  52
ENDBRANCH  44  46
ENDBRANCH  39  41
ENDBRANCH  28  39
ENDBRANCH   1  28
TORSDOF 17
ENDMDL
