MODEL 1
REMARK VINA RESULT:      -8.9      0.000      0.000
REMARK  Name = *****
REMARK                            x       y       z     vdW  Elec       q    Type
REMARK                         _______ _______ _______ _____ _____    ______ ____
ROOT
ATOM      1  C   LIG    1       27.727 -20.315   6.565  0.00  0.00    -0.002 A 
ATOM      2  C   LIG    1       28.540 -19.348   5.966  0.00  0.00    +0.012 A 
ATOM      3  C   LIG    1       29.852 -19.152   6.399  0.00  0.00    +0.025 A 
ATOM      4  C   LIG    1       30.381 -19.893   7.459  0.00  0.00    +0.048 A 
ATOM      5  C   LIG    1       29.586 -20.894   8.028  0.00  0.00    +0.025 A 
ATOM      6  C   LIG    1       28.266 -21.094   7.598  0.00  0.00    +0.012 A 
ENDROOT
BRANCH   1   9
ATOM      7  C   LIG    1       25.464 -22.801   6.711  0.00  0.00    +0.014 C 
ATOM      8  C   LIG    1       25.361 -21.311   7.036  0.00  0.00    +0.045 C 
ATOM      9  C   LIG    1       26.305 -20.530   6.130  0.00  0.00    +0.070 C 
ATOM     10  N   LIG    1       25.920 -20.099   4.961  0.00  0.00    -0.184 NA
ATOM     11  N   LIG    1       24.621 -20.295   4.595  0.00  0.00    -0.207 N 
ATOM     12  H   LIG    1       24.383 -20.093   3.629  0.00  0.00    +0.177 HD
ATOM     13  C   LIG    1       23.586 -20.634   5.430  0.00  0.00    +0.233 C 
ATOM     14  O   LIG    1       22.430 -20.742   5.030  0.00  0.00    -0.274 OA
ATOM     15  C   LIG    1       23.951 -20.772   6.877  0.00  0.00    +0.107 C 
ENDBRANCH   1   9
BRANCH   4  16
ATOM     16  N   LIG    1       31.711 -19.700   7.905  0.00  0.00    -0.236 N 
ATOM     17  H   LIG    1       31.948 -20.365   8.647  0.00  0.00    +0.174 HD
BRANCH  16  18
ATOM     18  N   LIG    1       32.106 -18.394   8.038  0.00  0.00    -0.160 NA
ATOM     19  C   LIG    1       31.815 -17.743   9.123  0.00  0.00    +0.234 C 
BRANCH  19  20
ATOM     20  C   LIG    1       32.254 -16.376   9.136  0.00  0.00    +0.132 C 
ATOM     21  N   LIG    1       32.615 -15.274   9.167  0.00  0.00    -0.189 NA
ENDBRANCH  19  20
BRANCH  19  22
ATOM     22  C   LIG    1       31.111 -18.363  10.204  0.00  0.00    +0.132 C 
ATOM     23  N   LIG    1       30.526 -18.845  11.089  0.00  0.00    -0.189 NA
ENDBRANCH  19  22
ENDBRANCH  16  18
ENDBRANCH   4  16
TORSDOF 5
ENDMDL
MODEL 2
REMARK VINA RESULT:      -8.9      1.333      1.934
REMARK  Name = *****
REMARK                            x       y       z     vdW  Elec       q    Type
REMARK                         _______ _______ _______ _____ _____    ______ ____
ROOT
ATOM      1  C   LIG    1       26.704 -20.500   6.006  0.00  0.00    -0.002 A 
ATOM      2  C   LIG    1       27.412 -21.218   6.974  0.00  0.00    +0.012 A 
ATOM      3  C   LIG    1       28.759 -20.946   7.219  0.00  0.00    +0.025 A 
ATOM      4  C   LIG    1       29.443 -19.972   6.488  0.00  0.00    +0.048 A 
ATOM      5  C   LIG    1       28.724 -19.219   5.553  0.00  0.00    +0.025 A 
ATOM      6  C   LIG    1       27.371 -19.489   5.302  0.00  0.00    +0.012 A 
ENDROOT
BRANCH   1   9
ATOM      7  C   LIG    1       24.145 -22.050   7.547  0.00  0.00    +0.014 C 
ATOM      8  C   LIG    1       24.237 -20.698   6.840  0.00  0.00    +0.045 C 
ATOM      9  C   LIG    1       25.259 -20.788   5.711  0.00  0.00    +0.070 C 
ATOM     10  N   LIG    1       24.912 -21.168   4.513  0.00  0.00    -0.184 NA
ATOM     11  N   LIG    1       23.592 -21.411   4.267  0.00  0.00    -0.207 N 
ATOM     12  H   LIG    1       23.366 -21.851   3.380  0.00  0.00    +0.177 HD
ATOM     13  C   LIG    1       22.537 -21.021   5.053  0.00  0.00    +0.233 C 
ATOM     14  O   LIG    1       21.370 -21.234   4.735  0.00  0.00    -0.274 OA
ATOM     15  C   LIG    1       22.906 -20.238   6.277  0.00  0.00    +0.107 C 
ENDBRANCH   1   9
BRANCH   4  16
ATOM     16  N   LIG    1       30.809 -19.690   6.730  0.00  0.00    -0.236 N 
ATOM     17  H   LIG    1       31.359 -20.553   6.776  0.00  0.00    +0.174 HD
BRANCH  16  18
ATOM     18  N   LIG    1       31.056 -18.702   7.648  0.00  0.00    -0.160 NA
ATOM     19  C   LIG    1       31.497 -19.017   8.827  0.00  0.00    +0.234 C 
BRANCH  19  20
ATOM     20  C   LIG    1       31.689 -17.903   9.712  0.00  0.00    +0.132 C 
ATOM     21  N   LIG    1       31.864 -17.007  10.428  0.00  0.00    -0.189 NA
ENDBRANCH  19  20
BRANCH  19  22
ATOM     22  C   LIG    1       31.761 -20.377   9.191  0.00  0.00    +0.132 C 
ATOM     23  N   LIG    1       31.990 -21.485   9.467  0.00  0.00    -0.189 NA
ENDBRANCH  19  22
ENDBRANCH  16  18
ENDBRANCH   4  16
TORSDOF 5
ENDMDL
MODEL 3
REMARK VINA RESULT:      -8.4      3.183      7.935
REMARK  Name = *****
REMARK                            x       y       z     vdW  Elec       q    Type
REMARK                         _______ _______ _______ _____ _____    ______ ____
ROOT
ATOM      1  C   LIG    1       28.747 -19.524   7.597  0.00  0.00    -0.002 A 
ATOM      2  C   LIG    1       27.627 -20.159   8.141  0.00  0.00    +0.012 A 
ATOM      3  C   LIG    1       26.603 -20.630   7.316  0.00  0.00    +0.025 A 
ATOM      4  C   LIG    1       26.655 -20.454   5.931  0.00  0.00    +0.048 A 
ATOM      5  C   LIG    1       27.798 -19.862   5.381  0.00  0.00    +0.025 A 
ATOM      6  C   LIG    1       28.828 -19.387   6.205  0.00  0.00    +0.012 A 
ENDROOT
BRANCH   1   9
ATOM      7  C   LIG    1       31.723 -20.615   8.729  0.00  0.00    +0.014 C 
ATOM      8  C   LIG    1       31.300 -19.291   8.094  0.00  0.00    +0.045 C 
ATOM      9  C   LIG    1       29.852 -18.992   8.467  0.00  0.00    +0.070 C 
ATOM     10  N   LIG    1       29.553 -18.338   9.554  0.00  0.00    -0.184 NA
ATOM     11  N   LIG    1       30.574 -17.854  10.319  0.00  0.00    -0.207 N 
ATOM     12  H   LIG    1       30.325 -17.487  11.232  0.00  0.00    +0.177 HD
ATOM     13  C   LIG    1       31.883 -17.717   9.931  0.00  0.00    +0.233 C 
ATOM     14  O   LIG    1       32.735 -17.223  10.664  0.00  0.00    -0.274 OA
ATOM     15  C   LIG    1       32.177 -18.129   8.520  0.00  0.00    +0.107 C 
ENDBRANCH   1   9
BRANCH   4  16
ATOM     16  N   LIG    1       25.622 -20.927   5.087  0.00  0.00    -0.236 N 
ATOM     17  H   LIG    1       25.134 -20.149   4.633  0.00  0.00    +0.174 HD
BRANCH  16  18
ATOM     18  N   LIG    1       24.881 -21.968   5.586  0.00  0.00    -0.160 NA
ATOM     19  C   LIG    1       23.624 -21.789   5.856  0.00  0.00    +0.234 C 
BRANCH  19  20
ATOM     20  C   LIG    1       22.960 -22.940   6.401  0.00  0.00    +0.132 C 
ATOM     21  N   LIG    1       22.427 -23.879   6.823  0.00  0.00    -0.189 NA
ENDBRANCH  19  20
BRANCH  19  22
ATOM     22  C   LIG    1       22.977 -20.533   5.622  0.00  0.00    +0.132 C 
ATOM     23  N   LIG    1       22.473 -19.502   5.426  0.00  0.00    -0.189 NA
ENDBRANCH  19  22
ENDBRANCH  16  18
ENDBRANCH   4  16
TORSDOF 5
ENDMDL
MODEL 4
REMARK VINA RESULT:      -8.3      3.107      7.735
REMARK  Name = *****
REMARK                            x       y       z     vdW  Elec       q    Type
REMARK                         _______ _______ _______ _____ _____    ______ ____
ROOT
ATOM      1  C   LIG    1       28.672 -19.596   7.535  0.00  0.00    -0.002 A 
ATOM      2  C   LIG    1       27.566 -20.268   8.065  0.00  0.00    +0.012 A 
ATOM      3  C   LIG    1       26.548 -20.733   7.231  0.00  0.00    +0.025 A 
ATOM      4  C   LIG    1       26.590 -20.515   5.851  0.00  0.00    +0.048 A 
ATOM      5  C   LIG    1       27.718 -19.885   5.314  0.00  0.00    +0.025 A 
ATOM      6  C   LIG    1       28.743 -19.415   6.148  0.00  0.00    +0.012 A 
ENDROOT
BRANCH   1   9
ATOM      7  C   LIG    1       31.603 -20.724   8.746  0.00  0.00    +0.014 C 
ATOM      8  C   LIG    1       31.219 -19.404   8.077  0.00  0.00    +0.045 C 
ATOM      9  C   LIG    1       29.770 -19.070   8.416  0.00  0.00    +0.070 C 
ATOM     10  N   LIG    1       29.465 -18.389   9.484  0.00  0.00    -0.184 NA
ATOM     11  N   LIG    1       30.480 -17.910  10.259  0.00  0.00    -0.207 N 
ATOM     12  H   LIG    1       30.222 -17.520  11.161  0.00  0.00    +0.177 HD
ATOM     13  C   LIG    1       31.799 -17.807   9.894  0.00  0.00    +0.233 C 
ATOM     14  O   LIG    1       32.648 -17.316  10.634  0.00  0.00    -0.274 OA
ATOM     15  C   LIG    1       32.112 -18.252   8.497  0.00  0.00    +0.107 C 
ENDBRANCH   1   9
BRANCH   4  16
ATOM     16  N   LIG    1       25.561 -20.982   4.998  0.00  0.00    -0.236 N 
ATOM     17  H   LIG    1       25.941 -21.591   4.267  0.00  0.00    +0.174 HD
BRANCH  16  18
ATOM     18  N   LIG    1       24.610 -20.056   4.656  0.00  0.00    -0.160 NA
ATOM     19  C   LIG    1       23.398 -20.186   5.102  0.00  0.00    +0.234 C 
BRANCH  19  20
ATOM     20  C   LIG    1       22.484 -19.174   4.654  0.00  0.00    +0.132 C 
ATOM     21  N   LIG    1       21.761 -18.344   4.288  0.00  0.00    -0.189 NA
ENDBRANCH  19  20
BRANCH  19  22
ATOM     22  C   LIG    1       23.029 -21.264   5.969  0.00  0.00    +0.132 C 
ATOM     23  N   LIG    1       22.750 -22.153   6.669  0.00  0.00    -0.189 NA
ENDBRANCH  19  22
ENDBRANCH  16  18
ENDBRANCH   4  16
TORSDOF 5
ENDMDL
MODEL 5
REMARK VINA RESULT:      -8.3      1.836      2.416
REMARK  Name = *****
REMARK                            x       y       z     vdW  Elec       q    Type
REMARK                         _______ _______ _______ _____ _____    ______ ____
ROOT
ATOM      1  C   LIG    1       26.810 -21.067   6.647  0.00  0.00    -0.002 A 
ATOM      2  C   LIG    1       27.814 -21.487   7.523  0.00  0.00    +0.012 A 
ATOM      3  C   LIG    1       29.081 -20.902   7.488  0.00  0.00    +0.025 A 
ATOM      4  C   LIG    1       29.389 -19.904   6.560  0.00  0.00    +0.048 A 
ATOM      5  C   LIG    1       28.372 -19.449   5.715  0.00  0.00    +0.025 A 
ATOM      6  C   LIG    1       27.097 -20.034   5.745  0.00  0.00    +0.012 A 
ENDROOT
BRANCH   1   9
ATOM      7  C   LIG    1       24.387 -21.698   4.398  0.00  0.00    +0.014 C 
ATOM      8  C   LIG    1       25.025 -22.572   5.477  0.00  0.00    +0.045 C 
ATOM      9  C   LIG    1       25.445 -21.696   6.653  0.00  0.00    +0.070 C 
ATOM     10  N   LIG    1       24.623 -21.435   7.630  0.00  0.00    -0.184 NA
ATOM     11  N   LIG    1       23.394 -22.029   7.619  0.00  0.00    -0.207 N 
ATOM     12  H   LIG    1       22.719 -21.695   8.299  0.00  0.00    +0.177 HD
ATOM     13  C   LIG    1       23.021 -23.104   6.852  0.00  0.00    +0.233 C 
ATOM     14  O   LIG    1       21.908 -23.615   6.937  0.00  0.00    -0.274 OA
ATOM     15  C   LIG    1       24.097 -23.665   5.972  0.00  0.00    +0.107 C 
ENDBRANCH   1   9
BRANCH   4  16
ATOM     16  N   LIG    1       30.672 -19.305   6.518  0.00  0.00    -0.236 N 
ATOM     17  H   LIG    1       31.406 -20.017   6.452  0.00  0.00    +0.174 HD
BRANCH  16  18
ATOM     18  N   LIG    1       30.857 -18.243   7.365  0.00  0.00    -0.160 NA
ATOM     19  C   LIG    1       31.369 -18.442   8.541  0.00  0.00    +0.234 C 
BRANCH  19  20
ATOM     20  C   LIG    1       31.487 -17.262   9.349  0.00  0.00    +0.132 C 
ATOM     21  N   LIG    1       31.576 -16.297   9.986  0.00  0.00    -0.189 NA
ENDBRANCH  19  20
BRANCH  19  22
ATOM     22  C   LIG    1       31.774 -19.746   8.973  0.00  0.00    +0.132 C 
ATOM     23  N   LIG    1       32.097 -20.816   9.301  0.00  0.00    -0.189 NA
ENDBRANCH  19  22
ENDBRANCH  16  18
ENDBRANCH   4  16
TORSDOF 5
ENDMDL
MODEL 6
REMARK VINA RESULT:      -8.0      5.750      8.425
REMARK  Name = *****
REMARK                            x       y       z     vdW  Elec       q    Type
REMARK                         _______ _______ _______ _____ _____    ______ ____
ROOT
ATOM      1  C   LIG    1       24.788 -23.177   5.754  0.00  0.00    -0.002 A 
ATOM      2  C   LIG    1       25.370 -23.458   6.993  0.00  0.00    +0.012 A 
ATOM      3  C   LIG    1       25.877 -24.728   7.271  0.00  0.00    +0.025 A 
ATOM      4  C   LIG    1       25.791 -25.760   6.333  0.00  0.00    +0.048 A 
ATOM      5  C   LIG    1       25.252 -25.468   5.075  0.00  0.00    +0.025 A 
ATOM      6  C   LIG    1       24.741 -24.194   4.791  0.00  0.00    +0.012 A 
ENDROOT
BRANCH   1   9
ATOM      7  C   LIG    1       25.984 -20.093   5.131  0.00  0.00    +0.014 C 
ATOM      8  C   LIG    1       24.926 -20.937   4.420  0.00  0.00    +0.045 C 
ATOM      9  C   LIG    1       24.218 -21.822   5.439  0.00  0.00    +0.070 C 
ATOM     10  N   LIG    1       23.166 -21.404   6.085  0.00  0.00    -0.184 NA
ATOM     11  N   LIG    1       22.659 -20.176   5.771  0.00  0.00    -0.207 N 
ATOM     12  H   LIG    1       21.941 -19.807   6.387  0.00  0.00    +0.177 HD
ATOM     13  C   LIG    1       22.949 -19.443   4.648  0.00  0.00    +0.233 C 
ATOM     14  O   LIG    1       22.411 -18.364   4.412  0.00  0.00    -0.274 OA
ATOM     15  C   LIG    1       23.899 -20.094   3.687  0.00  0.00    +0.107 C 
ENDBRANCH   1   9
BRANCH   4  16
ATOM     16  N   LIG    1       26.302 -27.052   6.607  0.00  0.00    -0.236 N 
ATOM     17  H   LIG    1       27.171 -27.218   6.091  0.00  0.00    +0.174 HD
BRANCH  16  18
ATOM     18  N   LIG    1       25.369 -28.056   6.668  0.00  0.00    -0.160 NA
ATOM     19  C   LIG    1       25.344 -28.846   7.697  0.00  0.00    +0.234 C 
BRANCH  19  20
ATOM     20  C   LIG    1       24.346 -29.876   7.637  0.00  0.00    +0.132 C 
ATOM     21  N   LIG    1       23.553 -30.721   7.597  0.00  0.00    -0.189 NA
ENDBRANCH  19  20
BRANCH  19  22
ATOM     22  C   LIG    1       26.253 -28.682   8.792  0.00  0.00    +0.132 C 
ATOM     23  N   LIG    1       27.011 -28.546   9.666  0.00  0.00    -0.189 NA
ENDBRANCH  19  22
ENDBRANCH  16  18
ENDBRANCH   4  16
TORSDOF 5
ENDMDL
MODEL 7
REMARK VINA RESULT:      -7.9      3.334      7.776
REMARK  Name = *****
REMARK                            x       y       z     vdW  Elec       q    Type
REMARK                         _______ _______ _______ _____ _____    ______ ____
ROOT
ATOM      1  C   LIG    1       28.501 -19.717   7.551  0.00  0.00    -0.002 A 
ATOM      2  C   LIG    1       28.472 -19.647   6.155  0.00  0.00    +0.012 A 
ATOM      3  C   LIG    1       27.395 -20.168   5.437  0.00  0.00    +0.025 A 
ATOM      4  C   LIG    1       26.332 -20.798   6.088  0.00  0.00    +0.048 A 
ATOM      5  C   LIG    1       26.335 -20.827   7.487  0.00  0.00    +0.025 A 
ATOM      6  C   LIG    1       27.416 -20.306   8.213  0.00  0.00    +0.012 A 
ENDROOT
BRANCH   1   9
ATOM      7  C   LIG    1       31.437 -20.887   8.707  0.00  0.00    +0.014 C 
ATOM      8  C   LIG    1       31.076 -19.600   7.965  0.00  0.00    +0.045 C 
ATOM      9  C   LIG    1       29.660 -19.181   8.343  0.00  0.00    +0.070 C 
ATOM     10  N   LIG    1       29.432 -18.416   9.374  0.00  0.00    -0.184 NA
ATOM     11  N   LIG    1       30.502 -17.931  10.069  0.00  0.00    -0.207 N 
ATOM     12  H   LIG    1       30.302 -17.470  10.952  0.00  0.00    +0.177 HD
ATOM     13  C   LIG    1       31.805 -17.911   9.640  0.00  0.00    +0.233 C 
ATOM     14  O   LIG    1       32.706 -17.409  10.306  0.00  0.00    -0.274 OA
ATOM     15  C   LIG    1       32.034 -18.462   8.265  0.00  0.00    +0.107 C 
ENDBRANCH   1   9
BRANCH   4  16
ATOM     16  N   LIG    1       25.235 -21.330   5.368  0.00  0.00    -0.236 N 
ATOM     17  H   LIG    1       24.397 -20.756   5.500  0.00  0.00    +0.174 HD
BRANCH  16  18
ATOM     18  N   LIG    1       25.110 -22.695   5.403  0.00  0.00    -0.160 NA
ATOM     19  C   LIG    1       24.289 -23.243   6.246  0.00  0.00    +0.234 C 
BRANCH  19  20
ATOM     20  C   LIG    1       24.266 -24.678   6.212  0.00  0.00    +0.132 C 
ATOM     21  N   LIG    1       24.227 -25.837   6.182  0.00  0.00    -0.189 NA
ENDBRANCH  19  20
BRANCH  19  22
ATOM     22  C   LIG    1       23.483 -22.455   7.129  0.00  0.00    +0.132 C 
ATOM     23  N   LIG    1       22.821 -21.799   7.828  0.00  0.00    -0.189 NA
ENDBRANCH  19  22
ENDBRANCH  16  18
ENDBRANCH   4  16
TORSDOF 5
ENDMDL
MODEL 8
REMARK VINA RESULT:      -7.9      5.408      7.684
REMARK  Name = *****
REMARK                            x       y       z     vdW  Elec       q    Type
REMARK                         _______ _______ _______ _____ _____    ______ ____
ROOT
ATOM      1  C   LIG    1       25.012 -26.504   6.444  0.00  0.00    -0.002 A 
ATOM      2  C   LIG    1       23.801 -25.870   6.149  0.00  0.00    +0.012 A 
ATOM      3  C   LIG    1       23.692 -24.479   6.207  0.00  0.00    +0.025 A 
ATOM      4  C   LIG    1       24.777 -23.686   6.588  0.00  0.00    +0.048 A 
ATOM      5  C   LIG    1       26.003 -24.315   6.837  0.00  0.00    +0.025 A 
ATOM      6  C   LIG    1       26.117 -25.711   6.781  0.00  0.00    +0.012 A 
ENDROOT
BRANCH   1   9
ATOM      7  C   LIG    1       25.949 -28.937   8.572  0.00  0.00    +0.014 C 
ATOM      8  C   LIG    1       24.747 -28.812   7.635  0.00  0.00    +0.045 C 
ATOM      9  C   LIG    1       25.147 -28.000   6.408  0.00  0.00    +0.070 C 
ATOM     10  N   LIG    1       25.658 -28.572   5.354  0.00  0.00    -0.184 NA
ATOM     11  N   LIG    1       25.758 -29.933   5.341  0.00  0.00    -0.207 N 
ATOM     12  H   LIG    1       26.296 -30.344   4.584  0.00  0.00    +0.177 HD
ATOM     13  C   LIG    1       25.114 -30.801   6.186  0.00  0.00    +0.233 C 
ATOM     14  O   LIG    1       25.216 -32.020   6.076  0.00  0.00    -0.274 OA
ATOM     15  C   LIG    1       24.207 -30.159   7.192  0.00  0.00    +0.107 C 
ENDBRANCH   1   9
BRANCH   4  16
ATOM     16  N   LIG    1       24.676 -22.275   6.649  0.00  0.00    -0.236 N 
ATOM     17  H   LIG    1       23.720 -21.968   6.447  0.00  0.00    +0.174 HD
BRANCH  16  18
ATOM     18  N   LIG    1       25.722 -21.582   6.097  0.00  0.00    -0.160 NA
ATOM     19  C   LIG    1       26.435 -20.794   6.842  0.00  0.00    +0.234 C 
BRANCH  19  20
ATOM     20  C   LIG    1       27.482 -20.100   6.148  0.00  0.00    +0.132 C 
ATOM     21  N   LIG    1       28.342 -19.553   5.595  0.00  0.00    -0.189 NA
ENDBRANCH  19  20
BRANCH  19  22
ATOM     22  C   LIG    1       26.174 -20.646   8.243  0.00  0.00    +0.132 C 
ATOM     23  N   LIG    1       25.944 -20.510   9.376  0.00  0.00    -0.189 NA
ENDBRANCH  19  22
ENDBRANCH  16  18
ENDBRANCH   4  16
TORSDOF 5
ENDMDL
MODEL 9
REMARK VINA RESULT:      -7.7      1.519      2.372
REMARK  Name = *****
REMARK                            x       y       z     vdW  Elec       q    Type
REMARK                         _______ _______ _______ _____ _____    ______ ____
ROOT
ATOM      1  C   LIG    1       26.256 -20.531   6.177  0.00  0.00    -0.002 A 
ATOM      2  C   LIG    1       27.465 -20.118   5.611  0.00  0.00    +0.012 A 
ATOM      3  C   LIG    1       28.680 -20.401   6.238  0.00  0.00    +0.025 A 
ATOM      4  C   LIG    1       28.720 -21.076   7.461  0.00  0.00    +0.048 A 
ATOM      5  C   LIG    1       27.514 -21.532   8.006  0.00  0.00    +0.025 A 
ATOM      6  C   LIG    1       26.291 -21.250   7.380  0.00  0.00    +0.012 A 
ENDROOT
BRANCH   1   9
ATOM      7  C   LIG    1       23.231 -21.988   5.948  0.00  0.00    +0.014 C 
ATOM      8  C   LIG    1       23.647 -20.553   6.274  0.00  0.00    +0.045 C 
ATOM      9  C   LIG    1       24.936 -20.220   5.530  0.00  0.00    +0.070 C 
ATOM     10  N   LIG    1       24.913 -19.729   4.323  0.00  0.00    -0.184 NA
ATOM     11  N   LIG    1       23.702 -19.443   3.763  0.00  0.00    -0.207 N 
ATOM     12  H   LIG    1       23.700 -19.210   2.774  0.00  0.00    +0.177 HD
ATOM     13  C   LIG    1       22.507 -19.336   4.428  0.00  0.00    +0.233 C 
ATOM     14  O   LIG    1       21.465 -19.024   3.857  0.00  0.00    -0.274 OA
ATOM     15  C   LIG    1       22.581 -19.536   5.912  0.00  0.00    +0.107 C 
ENDBRANCH   1   9
BRANCH   4  16
ATOM     16  N   LIG    1       29.947 -21.366   8.105  0.00  0.00    -0.236 N 
ATOM     17  H   LIG    1       30.029 -22.368   8.302  0.00  0.00    +0.174 HD
BRANCH  16  18
ATOM     18  N   LIG    1       30.336 -20.471   9.068  0.00  0.00    -0.160 NA
ATOM     19  C   LIG    1       31.114 -19.483   8.748  0.00  0.00    +0.234 C 
BRANCH  19  20
ATOM     20  C   LIG    1       31.478 -18.629   9.844  0.00  0.00    +0.132 C 
ATOM     21  N   LIG    1       31.789 -17.933  10.718  0.00  0.00    -0.189 NA
ENDBRANCH  19  20
BRANCH  19  22
ATOM     22  C   LIG    1       31.561 -19.283   7.402  0.00  0.00    +0.132 C 
ATOM     23  N   LIG    1       31.929 -19.097   6.313  0.00  0.00    -0.189 NA
ENDBRANCH  19  22
ENDBRANCH  16  18
ENDBRANCH   4  16
TORSDOF 5
ENDMDL
