MODEL 1
REMARK VINA RESULT:     110.5      0.000      0.000
REMARK  Name = *****
REMARK                            x       y       z     vdW  Elec       q    Type
REMARK                         _______ _______ _______ _____ _____    ______ ____
ROOT
ATOM      1  C   LIG    1       25.075 -17.584   3.866  0.00  0.00    +0.064 C 
ATOM      2  C   LIG    1       25.084 -16.450   4.921  0.00  0.00    +0.119 C 
ATOM      3  C   LIG    1       25.734 -16.785   6.255  0.00  0.00    +0.074 C 
ATOM      4  C   LIG    1       24.607 -17.428   7.010  0.00  0.00    +0.239 C 
ATOM      5  O   LIG    1       23.444 -16.676   6.581  0.00  0.00    -0.464 OA
ATOM      6  C   LIG    1       27.085 -17.491   6.136  0.00  0.00    +0.159 C 
ATOM      7  C   LIG    1       27.143 -18.521   5.029  0.00  0.00    -0.011 A 
ATOM      8  C   LIG    1       28.109 -19.537   5.109  0.00  0.00    +0.056 A 
ATOM      9  C   LIG    1       28.395 -20.276   3.984  0.00  0.00    +0.167 A 
ATOM     10  O   LIG    1       29.369 -21.219   3.881  0.00  0.00    -0.453 OA
ATOM     11  C   LIG    1       29.263 -21.558   2.482  0.00  0.00    +0.466 C 
ATOM     12  O   LIG    1       28.159 -20.903   1.819  0.00  0.00    -0.453 OA
ATOM     13  C   LIG    1       27.714 -20.088   2.812  0.00  0.00    +0.167 A 
ATOM     14  C   LIG    1       26.680 -19.183   2.721  0.00  0.00    +0.054 A 
ATOM     15  C   LIG    1       23.705 -16.035   5.385  0.00  0.00    +0.312 C 
ATOM     16  O   LIG    1       22.947 -15.306   4.813  0.00  0.00    -0.251 OA
ATOM     17  C   LIG    1       26.367 -18.398   3.854  0.00  0.00    -0.030 A 
ENDROOT
BRANCH   1  22
ATOM     18  C   LIG    1       22.787 -20.472   4.926  0.00  0.00    +0.165 A 
ATOM     19  C   LIG    1       21.645 -20.225   4.157  0.00  0.00    +0.201 A 
ATOM     20  C   LIG    1       21.590 -19.137   3.278  0.00  0.00    +0.165 A 
ATOM     21  C   LIG    1       22.703 -18.313   3.139  0.00  0.00    +0.053 A 
ATOM     22  C   LIG    1       23.860 -18.524   3.910  0.00  0.00    -0.032 A 
ATOM     23  C   LIG    1       23.885 -19.619   4.786  0.00  0.00    +0.053 A 
BRANCH  18  25
ATOM     24  C   LIG    1       23.369 -21.323   7.053  0.00  0.00    +0.277 C 
ATOM     25  O   LIG    1       22.777 -21.550   5.774  0.00  0.00    -0.491 OA
ENDBRANCH  18  25
BRANCH  19  26
ATOM     26  O   LIG    1       20.530 -21.016   4.286  0.00  0.00    -0.501 OA
ATOM     27  H   LIG    1       20.192 -20.827   5.182  0.00  0.00    +0.292 HD
ENDBRANCH  19  26
BRANCH  20  28
ATOM     28  O   LIG    1       20.410 -18.958   2.597  0.00  0.00    -0.491 OA
ATOM     29  C   LIG    1       19.357 -18.382   3.370  0.00  0.00    +0.277 C 
ENDBRANCH  20  28
ENDBRANCH   1  22
BRANCH   6  30
ATOM     30  O   LIG    1       28.008 -16.419   5.835  0.00  0.00    -0.340 OA
BRANCH  30  31
ATOM     31  C   LIG    1       27.506 -15.290   5.105  0.00  0.00    +0.282 C 
ATOM     32  C   LIG    1       26.792 -14.363   6.103  0.00  0.00    +0.201 C 
ATOM     33  C   LIG    1       26.277 -13.137   5.361  0.00  0.00    +0.179 C 
ATOM     34  C   LIG    1       27.345 -12.437   4.511  0.00  0.00    +0.184 C 
ATOM     35  C   LIG    1       28.238 -13.417   3.736  0.00  0.00    +0.178 C 
ATOM     36  C   LIG    1       27.640 -13.688   2.352  0.00  0.00    +0.197 C 
ATOM     37  O   LIG    1       26.239 -13.433   2.374  0.00  0.00    -0.344 OA
ATOM     38  C   LIG    1       26.008 -12.031   2.533  0.00  0.00    +0.289 C 
ATOM     39  O   LIG    1       26.753 -11.465   3.626  0.00  0.00    -0.338 OA
ATOM     40  O   LIG    1       28.584 -14.601   4.469  0.00  0.00    -0.341 OA
BRANCH  38  41
ATOM     41  C   LIG    1       24.528 -11.804   2.743  0.00  0.00    +0.045 A 
ATOM     42  S   LIG    1       23.886 -11.732   4.342  0.00  0.00    -0.097 S 
ATOM     43  C   LIG    1       22.297 -11.447   3.776  0.00  0.00    +0.045 A 
ATOM     44  C   LIG    1       22.232 -11.448   2.404  0.00  0.00    +0.008 A 
ATOM     45  C   LIG    1       23.509 -11.668   1.814  0.00  0.00    +0.016 A 
ENDBRANCH  38  41
BRANCH  32  46
ATOM     46  O   LIG    1       25.652 -14.997   6.713  0.00  0.00    -0.384 OA
ATOM     47  H   LIG    1       25.618 -15.902   6.339  0.00  0.00    +0.210 HD
ENDBRANCH  32  46
BRANCH  33  48
ATOM     48  O   LIG    1       25.698 -12.239   6.329  0.00  0.00    -0.386 OA
ATOM     49  H   LIG    1       24.729 -12.284   6.250  0.00  0.00    +0.210 HD
ENDBRANCH  33  48
ENDBRANCH  30  31
ENDBRANCH   6  30
TORSDOF 9
ENDMDL
