MODEL 1
REMARK VINA RESULT:      -5.6      0.000      0.000
REMARK  Name = *****
REMARK                            x       y       z     vdW  Elec       q    Type
REMARK                         _______ _______ _______ _____ _____    ______ ____
ROOT
ATOM      1  C   LIG    1       26.210 -16.412   3.452  0.00  0.00    -0.045 A 
ATOM      2  C   LIG    1       25.171 -15.479   3.382  0.00  0.00    +0.016 A 
ATOM      3  C   LIG    1       25.370 -14.134   3.731  0.00  0.00    +0.055 A 
ATOM      4  C   LIG    1       26.639 -13.732   4.170  0.00  0.00    +0.012 A 
ATOM      5  C   LIG    1       27.683 -14.654   4.248  0.00  0.00    +0.001 A 
ATOM      6  C   LIG    1       27.469 -15.987   3.894  0.00  0.00    +0.003 A 
ENDROOT
BRANCH   3   7
ATOM      7  C   LIG    1       24.218 -13.157   3.620  0.00  0.00    +0.417 C 
ATOM      8  F   LIG    1       23.089 -13.734   3.125  0.00  0.00    -0.166 F 
ATOM      9  F   LIG    1       24.508 -12.121   2.787  0.00  0.00    -0.166 F 
ATOM     10  F   LIG    1       23.867 -12.598   4.807  0.00  0.00    -0.166 F 
ENDBRANCH   3   7
BRANCH   1  11
ATOM     11  C   LIG    1       25.983 -17.851   3.045  0.00  0.00    +0.053 C 
BRANCH  11  12
ATOM     12  C   LIG    1       25.284 -18.730   4.111  0.00  0.00    +0.055 C 
ATOM     13  C   LIG    1       23.877 -19.148   3.657  0.00  0.00    +0.024 C 
BRANCH  12  14
ATOM     14  N   LIG    1       26.034 -19.975   4.391  0.00  0.00    -0.314 NA
ATOM     15  H   LIG    1       26.012 -20.569   3.559  0.00  0.00    +0.122 HD
BRANCH  14  17
ATOM     16  C   LIG    1       26.376 -20.531   6.759  0.00  0.00    +0.020 C 
ATOM     17  C   LIG    1       25.507 -20.734   5.525  0.00  0.00    +0.077 C 
ENDBRANCH  14  17
ENDBRANCH  12  14
ENDBRANCH  11  12
ENDBRANCH   1  11
TORSDOF 5
ENDMDL
MODEL 2
REMARK VINA RESULT:      -5.6      1.911      2.626
REMARK  Name = *****
REMARK                            x       y       z     vdW  Elec       q    Type
REMARK                         _______ _______ _______ _____ _____    ______ ____
ROOT
ATOM      1  C   LIG    1       25.673 -16.365   3.484  0.00  0.00    -0.045 A 
ATOM      2  C   LIG    1       26.766 -15.494   3.525  0.00  0.00    +0.016 A 
ATOM      3  C   LIG    1       26.616 -14.150   3.901  0.00  0.00    +0.055 A 
ATOM      4  C   LIG    1       25.336 -13.679   4.227  0.00  0.00    +0.012 A 
ATOM      5  C   LIG    1       24.238 -14.537   4.185  0.00  0.00    +0.001 A 
ATOM      6  C   LIG    1       24.404 -15.872   3.813  0.00  0.00    +0.003 A 
ENDROOT
BRANCH   3   7
ATOM      7  C   LIG    1       27.833 -13.250   3.949  0.00  0.00    +0.417 C 
ATOM      8  F   LIG    1       28.010 -12.674   5.169  0.00  0.00    -0.166 F 
ATOM      9  F   LIG    1       27.743 -12.225   3.058  0.00  0.00    -0.166 F 
ATOM     10  F   LIG    1       28.995 -13.895   3.663  0.00  0.00    -0.166 F 
ENDBRANCH   3   7
BRANCH   1  11
ATOM     11  C   LIG    1       25.859 -17.818   3.104  0.00  0.00    +0.053 C 
BRANCH  11  12
ATOM     12  C   LIG    1       25.203 -18.836   4.069  0.00  0.00    +0.055 C 
ATOM     13  C   LIG    1       23.910 -19.416   3.476  0.00  0.00    +0.024 C 
BRANCH  12  14
ATOM     14  N   LIG    1       26.093 -19.981   4.366  0.00  0.00    -0.314 NA
ATOM     15  H   LIG    1       26.066 -20.634   3.581  0.00  0.00    +0.122 HD
BRANCH  14  17
ATOM     16  C   LIG    1       26.740 -20.416   6.695  0.00  0.00    +0.020 C 
ATOM     17  C   LIG    1       25.734 -20.700   5.589  0.00  0.00    +0.077 C 
ENDBRANCH  14  17
ENDBRANCH  12  14
ENDBRANCH  11  12
ENDBRANCH   1  11
TORSDOF 5
ENDMDL
MODEL 3
REMARK VINA RESULT:      -5.4      4.293      6.428
REMARK  Name = *****
REMARK                            x       y       z     vdW  Elec       q    Type
REMARK                         _______ _______ _______ _____ _____    ______ ____
ROOT
ATOM      1  C   LIG    1       24.932 -17.367   3.641  0.00  0.00    -0.045 A 
ATOM      2  C   LIG    1       24.928 -18.763   3.718  0.00  0.00    +0.016 A 
ATOM      3  C   LIG    1       23.783 -19.471   4.114  0.00  0.00    +0.055 A 
ATOM      4  C   LIG    1       22.628 -18.751   4.449  0.00  0.00    +0.012 A 
ATOM      5  C   LIG    1       22.620 -17.358   4.380  0.00  0.00    +0.001 A 
ATOM      6  C   LIG    1       23.766 -16.670   3.980  0.00  0.00    +0.003 A 
ENDROOT
BRANCH   3   7
ATOM      7  C   LIG    1       23.822 -20.984   4.164  0.00  0.00    +0.417 C 
ATOM      8  F   LIG    1       22.782 -21.511   4.866  0.00  0.00    -0.166 F 
ATOM      9  F   LIG    1       24.953 -21.444   4.765  0.00  0.00    -0.166 F 
ATOM     10  F   LIG    1       23.785 -21.568   2.938  0.00  0.00    -0.166 F 
ENDBRANCH   3   7
BRANCH   1  11
ATOM     11  C   LIG    1       26.169 -16.624   3.185  0.00  0.00    +0.053 C 
BRANCH  11  12
ATOM     12  C   LIG    1       26.133 -15.093   3.414  0.00  0.00    +0.055 C 
ATOM     13  C   LIG    1       27.375 -14.612   4.181  0.00  0.00    +0.024 C 
BRANCH  12  14
ATOM     14  N   LIG    1       26.092 -14.336   2.142  0.00  0.00    -0.314 NA
ATOM     15  H   LIG    1       27.049 -14.149   1.837  0.00  0.00    +0.122 HD
BRANCH  14  17
ATOM     16  C   LIG    1       24.114 -13.224   3.082  0.00  0.00    +0.020 C 
ATOM     17  C   LIG    1       25.372 -13.066   2.239  0.00  0.00    +0.077 C 
ENDBRANCH  14  17
ENDBRANCH  12  14
ENDBRANCH  11  12
ENDBRANCH   1  11
TORSDOF 5
ENDMDL
MODEL 4
REMARK VINA RESULT:      -5.3      3.810      5.858
REMARK  Name = *****
REMARK                            x       y       z     vdW  Elec       q    Type
REMARK                         _______ _______ _______ _____ _____    ______ ____
ROOT
ATOM      1  C   LIG    1       24.165 -16.158   3.926  0.00  0.00    -0.045 A 
ATOM      2  C   LIG    1       23.256 -17.144   4.322  0.00  0.00    +0.016 A 
ATOM      3  C   LIG    1       23.560 -18.509   4.205  0.00  0.00    +0.055 A 
ATOM      4  C   LIG    1       24.800 -18.880   3.667  0.00  0.00    +0.012 A 
ATOM      5  C   LIG    1       25.714 -17.906   3.265  0.00  0.00    +0.001 A 
ATOM      6  C   LIG    1       25.397 -16.553   3.391  0.00  0.00    +0.003 A 
ENDROOT
BRANCH   3   7
ATOM      7  C   LIG    1       22.550 -19.540   4.665  0.00  0.00    +0.417 C 
ATOM      8  F   LIG    1       22.470 -19.625   6.021  0.00  0.00    -0.166 F 
ATOM      9  F   LIG    1       22.863 -20.790   4.227  0.00  0.00    -0.166 F 
ATOM     10  F   LIG    1       21.287 -19.294   4.227  0.00  0.00    -0.166 F 
ENDBRANCH   3   7
BRANCH   1  11
ATOM     11  C   LIG    1       23.829 -14.692   4.086  0.00  0.00    +0.053 C 
BRANCH  11  12
ATOM     12  C   LIG    1       24.942 -13.713   3.637  0.00  0.00    +0.055 C 
ATOM     13  C   LIG    1       24.370 -12.563   2.794  0.00  0.00    +0.024 C 
BRANCH  12  14
ATOM     14  N   LIG    1       25.644 -13.097   4.786  0.00  0.00    -0.314 NA
ATOM     15  H   LIG    1       25.714 -12.090   4.630  0.00  0.00    +0.122 HD
BRANCH  14  17
ATOM     16  C   LIG    1       27.772 -13.669   3.702  0.00  0.00    +0.020 C 
ATOM     17  C   LIG    1       26.988 -13.633   5.006  0.00  0.00    +0.077 C 
ENDBRANCH  14  17
ENDBRANCH  12  14
ENDBRANCH  11  12
ENDBRANCH   1  11
TORSDOF 5
ENDMDL
MODEL 5
REMARK VINA RESULT:      -5.1      2.908      5.579
REMARK  Name = *****
REMARK                            x       y       z     vdW  Elec       q    Type
REMARK                         _______ _______ _______ _____ _____    ______ ____
ROOT
ATOM      1  C   LIG    1       25.780 -17.568   3.449  0.00  0.00    -0.045 A 
ATOM      2  C   LIG    1       24.449 -17.366   3.830  0.00  0.00    +0.016 A 
ATOM      3  C   LIG    1       23.580 -18.445   4.052  0.00  0.00    +0.055 A 
ATOM      4  C   LIG    1       24.064 -19.749   3.874  0.00  0.00    +0.012 A 
ATOM      5  C   LIG    1       25.388 -19.964   3.491  0.00  0.00    +0.001 A 
ATOM      6  C   LIG    1       26.240 -18.879   3.277  0.00  0.00    +0.003 A 
ENDROOT
BRANCH   3   7
ATOM      7  C   LIG    1       22.153 -18.176   4.481  0.00  0.00    +0.417 C 
ATOM      8  F   LIG    1       21.999 -16.946   5.043  0.00  0.00    -0.166 F 
ATOM      9  F   LIG    1       21.724 -19.071   5.412  0.00  0.00    -0.166 F 
ATOM     10  F   LIG    1       21.259 -18.240   3.459  0.00  0.00    -0.166 F 
ENDBRANCH   3   7
BRANCH   1  11
ATOM     11  C   LIG    1       26.709 -16.392   3.241  0.00  0.00    +0.053 C 
BRANCH  11  12
ATOM     12  C   LIG    1       26.058 -15.001   3.441  0.00  0.00    +0.055 C 
ATOM     13  C   LIG    1       26.804 -14.181   4.505  0.00  0.00    +0.024 C 
BRANCH  12  14
ATOM     14  N   LIG    1       26.059 -14.198   2.197  0.00  0.00    -0.314 NA
ATOM     15  H   LIG    1       27.023 -13.957   1.960  0.00  0.00    +0.122 HD
BRANCH  14  17
ATOM     16  C   LIG    1       23.928 -13.235   2.950  0.00  0.00    +0.020 C 
ATOM     17  C   LIG    1       25.276 -12.965   2.296  0.00  0.00    +0.077 C 
ENDBRANCH  14  17
ENDBRANCH  12  14
ENDBRANCH  11  12
ENDBRANCH   1  11
TORSDOF 5
ENDMDL
MODEL 6
REMARK VINA RESULT:      -4.9      3.082      5.801
REMARK  Name = *****
REMARK                            x       y       z     vdW  Elec       q    Type
REMARK                         _______ _______ _______ _____ _____    ______ ____
ROOT
ATOM      1  C   LIG    1       26.241 -20.289   5.610  0.00  0.00    -0.045 A 
ATOM      2  C   LIG    1       25.174 -19.699   4.925  0.00  0.00    +0.016 A 
ATOM      3  C   LIG    1       23.842 -19.945   5.295  0.00  0.00    +0.055 A 
ATOM      4  C   LIG    1       23.589 -20.812   6.367  0.00  0.00    +0.012 A 
ATOM      5  C   LIG    1       24.645 -21.409   7.056  0.00  0.00    +0.001 A 
ATOM      6  C   LIG    1       25.963 -21.151   6.678  0.00  0.00    +0.003 A 
ENDROOT
BRANCH   3   7
ATOM      7  C   LIG    1       22.721 -19.269   4.534  0.00  0.00    +0.417 C 
ATOM      8  F   LIG    1       23.082 -18.925   3.268  0.00  0.00    -0.166 F 
ATOM      9  F   LIG    1       22.320 -18.117   5.137  0.00  0.00    -0.166 F 
ATOM     10  F   LIG    1       21.607 -20.038   4.414  0.00  0.00    -0.166 F 
ENDBRANCH   3   7
BRANCH   1  11
ATOM     11  C   LIG    1       27.670 -19.989   5.215  0.00  0.00    +0.053 C 
BRANCH  11  12
ATOM     12  C   LIG    1       28.113 -18.520   5.427  0.00  0.00    +0.055 C 
ATOM     13  C   LIG    1       29.465 -18.443   6.152  0.00  0.00    +0.024 C 
BRANCH  12  14
ATOM     14  N   LIG    1       28.267 -17.791   4.147  0.00  0.00    -0.314 NA
ATOM     15  H   LIG    1       29.041 -17.130   4.235  0.00  0.00    +0.122 HD
BRANCH  14  17
ATOM     16  C   LIG    1       27.250 -15.563   3.962  0.00  0.00    +0.020 C 
ATOM     17  C   LIG    1       27.066 -17.058   3.743  0.00  0.00    +0.077 C 
ENDBRANCH  14  17
ENDBRANCH  12  14
ENDBRANCH  11  12
ENDBRANCH   1  11
TORSDOF 5
ENDMDL
MODEL 7
REMARK VINA RESULT:      -4.9      1.287      1.921
REMARK  Name = *****
REMARK                            x       y       z     vdW  Elec       q    Type
REMARK                         _______ _______ _______ _____ _____    ______ ____
ROOT
ATOM      1  C   LIG    1       24.676 -17.997   3.636  0.00  0.00    -0.045 A 
ATOM      2  C   LIG    1       24.049 -16.770   3.875  0.00  0.00    +0.016 A 
ATOM      3  C   LIG    1       24.765 -15.563   3.834  0.00  0.00    +0.055 A 
ATOM      4  C   LIG    1       26.140 -15.603   3.560  0.00  0.00    +0.012 A 
ATOM      5  C   LIG    1       26.776 -16.821   3.323  0.00  0.00    +0.001 A 
ATOM      6  C   LIG    1       26.049 -18.011   3.363  0.00  0.00    +0.003 A 
ENDROOT
BRANCH   3   7
ATOM      7  C   LIG    1       24.039 -14.258   4.082  0.00  0.00    +0.417 C 
ATOM      8  F   LIG    1       23.402 -13.794   2.971  0.00  0.00    -0.166 F 
ATOM      9  F   LIG    1       24.889 -13.268   4.468  0.00  0.00    -0.166 F 
ATOM     10  F   LIG    1       23.092 -14.340   5.053  0.00  0.00    -0.166 F 
ENDBRANCH   3   7
BRANCH   1  11
ATOM     11  C   LIG    1       23.881 -19.284   3.656  0.00  0.00    +0.053 C 
BRANCH  11  12
ATOM     12  C   LIG    1       23.981 -20.094   4.973  0.00  0.00    +0.055 C 
ATOM     13  C   LIG    1       22.660 -20.809   5.292  0.00  0.00    +0.024 C 
BRANCH  12  14
ATOM     14  N   LIG    1       25.032 -21.136   4.911  0.00  0.00    -0.314 NA
ATOM     15  H   LIG    1       24.601 -22.024   4.649  0.00  0.00    +0.122 HD
BRANCH  14  17
ATOM     16  C   LIG    1       26.959 -20.392   6.240  0.00  0.00    +0.020 C 
ATOM     17  C   LIG    1       25.751 -21.317   6.173  0.00  0.00    +0.077 C 
ENDBRANCH  14  17
ENDBRANCH  12  14
ENDBRANCH  11  12
ENDBRANCH   1  11
TORSDOF 5
ENDMDL
MODEL 8
REMARK VINA RESULT:      -4.8      2.836      3.645
REMARK  Name = *****
REMARK                            x       y       z     vdW  Elec       q    Type
REMARK                         _______ _______ _______ _____ _____    ______ ____
ROOT
ATOM      1  C   LIG    1       24.002 -14.513   4.000  0.00  0.00    -0.045 A 
ATOM      2  C   LIG    1       25.352 -14.431   4.354  0.00  0.00    +0.016 A 
ATOM      3  C   LIG    1       26.218 -13.521   3.729  0.00  0.00    +0.055 A 
ATOM      4  C   LIG    1       25.709 -12.689   2.721  0.00  0.00    +0.012 A 
ATOM      5  C   LIG    1       24.365 -12.763   2.357  0.00  0.00    +0.001 A 
ATOM      6  C   LIG    1       23.517 -13.672   2.991  0.00  0.00    +0.003 A 
ENDROOT
BRANCH   3   7
ATOM      7  C   LIG    1       27.669 -13.457   4.159  0.00  0.00    +0.417 C 
ATOM      8  F   LIG    1       27.818 -12.973   5.422  0.00  0.00    -0.166 F 
ATOM      9  F   LIG    1       28.403 -12.641   3.354  0.00  0.00    -0.166 F 
ATOM     10  F   LIG    1       28.293 -14.663   4.141  0.00  0.00    -0.166 F 
ENDBRANCH   3   7
BRANCH   1  11
ATOM     11  C   LIG    1       23.078 -15.481   4.705  0.00  0.00    +0.053 C 
BRANCH  11  12
ATOM     12  C   LIG    1       22.928 -16.861   4.017  0.00  0.00    +0.055 C 
ATOM     13  C   LIG    1       24.297 -17.509   3.758  0.00  0.00    +0.024 C 
BRANCH  12  14
ATOM     14  N   LIG    1       22.147 -17.815   4.837  0.00  0.00    -0.314 NA
ATOM     15  H   LIG    1       22.362 -17.656   5.824  0.00  0.00    +0.122 HD
BRANCH  14  17
ATOM     16  C   LIG    1       22.750 -20.001   5.779  0.00  0.00    +0.020 C 
ATOM     17  C   LIG    1       22.415 -19.217   4.518  0.00  0.00    +0.077 C 
ENDBRANCH  14  17
ENDBRANCH  12  14
ENDBRANCH  11  12
ENDBRANCH   1  11
TORSDOF 5
ENDMDL
MODEL 9
REMARK VINA RESULT:      -4.7      2.047      2.802
REMARK  Name = *****
REMARK                            x       y       z     vdW  Elec       q    Type
REMARK                         _______ _______ _______ _____ _____    ______ ____
ROOT
ATOM      1  C   LIG    1       24.755 -16.862   3.716  0.00  0.00    -0.045 A 
ATOM      2  C   LIG    1       25.734 -15.945   3.320  0.00  0.00    +0.016 A 
ATOM      3  C   LIG    1       25.523 -14.561   3.421  0.00  0.00    +0.055 A 
ATOM      4  C   LIG    1       24.297 -14.100   3.919  0.00  0.00    +0.012 A 
ATOM      5  C   LIG    1       23.311 -15.004   4.314  0.00  0.00    +0.001 A 
ATOM      6  C   LIG    1       23.538 -16.377   4.211  0.00  0.00    +0.003 A 
ENDROOT
BRANCH   3   7
ATOM      7  C   LIG    1       26.621 -13.608   2.996  0.00  0.00    +0.417 C 
ATOM      8  F   LIG    1       27.480 -14.165   2.100  0.00  0.00    -0.166 F 
ATOM      9  F   LIG    1       27.383 -13.208   4.051  0.00  0.00    -0.166 F 
ATOM     10  F   LIG    1       26.156 -12.471   2.416  0.00  0.00    -0.166 F 
ENDBRANCH   3   7
BRANCH   1  11
ATOM     11  C   LIG    1       25.011 -18.350   3.626  0.00  0.00    +0.053 C 
BRANCH  11  12
ATOM     12  C   LIG    1       23.739 -19.233   3.610  0.00  0.00    +0.055 C 
ATOM     13  C   LIG    1       24.068 -20.682   3.218  0.00  0.00    +0.024 C 
BRANCH  12  14
ATOM     14  N   LIG    1       23.076 -19.284   4.933  0.00  0.00    -0.314 NA
ATOM     15  H   LIG    1       23.652 -18.781   5.611  0.00  0.00    +0.122 HD
BRANCH  14  17
ATOM     16  C   LIG    1       23.340 -20.785   6.858  0.00  0.00    +0.020 C 
ATOM     17  C   LIG    1       22.852 -20.645   5.424  0.00  0.00    +0.077 C 
ENDBRANCH  14  17
ENDBRANCH  12  14
ENDBRANCH  11  12
ENDBRANCH   1  11
TORSDOF 5
ENDMDL
