MODEL 1
REMARK VINA RESULT:      -3.0      0.000      0.000
REMARK  Name = *****
REMARK                            x       y       z     vdW  Elec       q    Type
REMARK                         _______ _______ _______ _____ _____    ______ ____
ROOT
ATOM      1  C   LIG    1       31.969 -17.773   9.008  0.00  0.00    +0.121 C 
ATOM      2  S   LIG    1       31.193 -19.404   8.894  0.00  0.00    +0.016 S 
ATOM      3  O   LIG    1       32.222 -20.421   9.288  0.00  0.00    -0.258 OA
ATOM      4  C   LIG    1       31.070 -19.424   7.089  0.00  0.00    +0.121 C 
ENDROOT
TORSDOF 0
ENDMDL
MODEL 2
REMARK VINA RESULT:      -2.9      1.135      2.055
REMARK  Name = *****
REMARK                            x       y       z     vdW  Elec       q    Type
REMARK                         _______ _______ _______ _____ _____    ______ ____
ROOT
ATOM      1  C   LIG    1       30.808 -19.245   6.975  0.00  0.00    +0.121 C 
ATOM      2  S   LIG    1       31.631 -18.570   8.438  0.00  0.00    +0.016 S 
ATOM      3  O   LIG    1       32.103 -19.729   9.264  0.00  0.00    -0.258 OA
ATOM      4  C   LIG    1       30.129 -17.924   9.213  0.00  0.00    +0.121 C 
ENDROOT
TORSDOF 0
ENDMDL
MODEL 3
REMARK VINA RESULT:      -2.7      2.355      2.542
REMARK  Name = *****
REMARK                            x       y       z     vdW  Elec       q    Type
REMARK                         _______ _______ _______ _____ _____    ______ ____
ROOT
ATOM      1  C   LIG    1       30.335 -17.641  10.600  0.00  0.00    +0.121 C 
ATOM      2  S   LIG    1       31.416 -17.889   9.170  0.00  0.00    +0.016 S 
ATOM      3  O   LIG    1       32.144 -19.184   9.374  0.00  0.00    -0.258 OA
ATOM      4  C   LIG    1       32.564 -16.550   9.573  0.00  0.00    +0.121 C 
ENDROOT
TORSDOF 0
ENDMDL
MODEL 4
REMARK VINA RESULT:      -2.6      1.445      1.901
REMARK  Name = *****
REMARK                            x       y       z     vdW  Elec       q    Type
REMARK                         _______ _______ _______ _____ _____    ______ ____
ROOT
ATOM      1  C   LIG    1       31.000 -19.266   6.883  0.00  0.00    +0.121 C 
ATOM      2  S   LIG    1       30.792 -19.672   8.634  0.00  0.00    +0.016 S 
ATOM      3  O   LIG    1       32.159 -19.884   9.213  0.00  0.00    -0.258 OA
ATOM      4  C   LIG    1       30.057 -21.302   8.359  0.00  0.00    +0.121 C 
ENDROOT
TORSDOF 0
ENDMDL
MODEL 5
REMARK VINA RESULT:      -2.5      2.922      3.367
REMARK  Name = *****
REMARK                            x       y       z     vdW  Elec       q    Type
REMARK                         _______ _______ _______ _____ _____    ______ ____
ROOT
ATOM      1  C   LIG    1       31.748 -16.257  12.163  0.00  0.00    +0.121 C 
ATOM      2  S   LIG    1       30.787 -17.025  10.836  0.00  0.00    +0.016 S 
ATOM      3  O   LIG    1       30.631 -18.477  11.175  0.00  0.00    -0.258 OA
ATOM      4  C   LIG    1       32.079 -16.896   9.575  0.00  0.00    +0.121 C 
ENDROOT
TORSDOF 0
ENDMDL
MODEL 6
REMARK VINA RESULT:      -2.5      6.101      6.511
REMARK  Name = *****
REMARK                            x       y       z     vdW  Elec       q    Type
REMARK                         _______ _______ _______ _____ _____    ______ ____
ROOT
ATOM      1  C   LIG    1       26.634 -22.231   7.350  0.00  0.00    +0.121 C 
ATOM      2  S   LIG    1       25.957 -20.645   7.897  0.00  0.00    +0.016 S 
ATOM      3  O   LIG    1       25.885 -20.678   9.395  0.00  0.00    -0.258 OA
ATOM      4  C   LIG    1       24.286 -20.929   7.265  0.00  0.00    +0.121 C 
ENDROOT
TORSDOF 0
ENDMDL
MODEL 7
REMARK VINA RESULT:      -2.5      2.915      3.043
REMARK  Name = *****
REMARK                            x       y       z     vdW  Elec       q    Type
REMARK                         _______ _______ _______ _____ _____    ______ ____
ROOT
ATOM      1  C   LIG    1       30.498 -16.956  10.392  0.00  0.00    +0.121 C 
ATOM      2  S   LIG    1       32.171 -17.064   9.714  0.00  0.00    +0.016 S 
ATOM      3  O   LIG    1       32.432 -15.798   8.953  0.00  0.00    -0.258 OA
ATOM      4  C   LIG    1       31.798 -18.359   8.507  0.00  0.00    +0.121 C 
ENDROOT
TORSDOF 0
ENDMDL
MODEL 8
REMARK VINA RESULT:      -2.5      2.277      2.277
REMARK  Name = *****
REMARK                            x       y       z     vdW  Elec       q    Type
REMARK                         _______ _______ _______ _____ _____    ______ ____
ROOT
ATOM      1  C   LIG    1       32.148 -17.017   9.456  0.00  0.00    +0.121 C 
ATOM      2  S   LIG    1       30.486 -17.462  10.016  0.00  0.00    +0.016 S 
ATOM      3  O   LIG    1       30.637 -18.380  11.192  0.00  0.00    -0.258 OA
ATOM      4  C   LIG    1       30.074 -18.481   8.579  0.00  0.00    +0.121 C 
ENDROOT
TORSDOF 0
ENDMDL
MODEL 9
REMARK VINA RESULT:      -2.5      5.568      6.063
REMARK  Name = *****
REMARK                            x       y       z     vdW  Elec       q    Type
REMARK                         _______ _______ _______ _____ _____    ______ ____
ROOT
ATOM      1  C   LIG    1       25.227 -20.772   6.856  0.00  0.00    +0.121 C 
ATOM      2  S   LIG    1       25.980 -21.520   8.321  0.00  0.00    +0.016 S 
ATOM      3  O   LIG    1       25.930 -20.502   9.422  0.00  0.00    -0.258 OA
ATOM      4  C   LIG    1       27.669 -21.538   7.673  0.00  0.00    +0.121 C 
ENDROOT
TORSDOF 0
ENDMDL
