MODEL 1
REMARK VINA RESULT:      -7.9      0.000      0.000
REMARK  Name = *****
REMARK                            x       y       z     vdW  Elec       q    Type
REMARK                         _______ _______ _______ _____ _____    ______ ____
ROOT
ATOM      1  C   LIG    1       28.941 -19.971   6.659  0.00  0.00    -0.017 A 
ATOM      2  C   LIG    1       29.382 -21.031   7.473  0.00  0.00    +0.015 A 
ATOM      3  C   LIG    1       30.464 -20.873   8.361  0.00  0.00    +0.019 A 
ATOM      4  C   LIG    1       31.097 -19.630   8.421  0.00  0.00    +0.122 A 
ATOM      5  C   LIG    1       30.666 -18.559   7.640  0.00  0.00    +0.046 A 
ATOM      6  C   LIG    1       29.586 -18.733   6.770  0.00  0.00    +0.010 A 
ENDROOT
BRANCH   4   7
ATOM      7  O   LIG    1       32.151 -19.466   9.278  0.00  0.00    -0.506 OA
ATOM      8  H   LIG    1       32.981 -19.526   8.766  0.00  0.00    +0.292 HD
ENDBRANCH   4   7
BRANCH   1   9
ATOM      9  C   LIG    1       27.810 -20.191   5.670  0.00  0.00    +0.158 C 
BRANCH   9  10
ATOM     10  O   LIG    1       27.712 -19.041   4.818  0.00  0.00    -0.386 OA
ATOM     11  H   LIG    1       26.912 -18.569   5.105  0.00  0.00    +0.210 HD
ENDBRANCH   9  10
BRANCH   9  12
ATOM     12  C   LIG    1       26.442 -20.445   6.354  0.00  0.00    +0.117 C 
BRANCH  12  13
ATOM     13  N   LIG    1       25.899 -21.776   5.998  0.00  0.00    -0.309 NA
ATOM     14  H   LIG    1       25.168 -21.633   5.298  0.00  0.00    +0.122 HD
BRANCH  13  16
ATOM     15  C   LIG    1       25.887 -21.947   8.425  0.00  0.00    +0.027 C 
ATOM     16  C   LIG    1       25.332 -22.558   7.120  0.00  0.00    +0.011 C 
ATOM     17  C   LIG    1       23.798 -22.457   7.166  0.00  0.00    +0.027 C 
ATOM     18  C   LIG    1       25.764 -24.034   7.067  0.00  0.00    +0.027 C 
ENDBRANCH  13  16
ENDBRANCH  12  13
ENDBRANCH   9  12
ENDBRANCH   1   9
BRANCH   3  19
ATOM     19  C   LIG    1       30.929 -22.044   9.190  0.00  0.00    +0.194 C 
BRANCH  19  20
ATOM     20  O   LIG    1       32.191 -22.529   8.747  0.00  0.00    -0.390 OA
ATOM     21  H   LIG    1       32.071 -22.766   7.809  0.00  0.00    +0.210 HD
ENDBRANCH  19  20
ENDBRANCH   3  19
TORSDOF 8
ENDMDL
MODEL 2
REMARK VINA RESULT:      -7.6      0.493      1.221
REMARK  Name = *****
REMARK                            x       y       z     vdW  Elec       q    Type
REMARK                         _______ _______ _______ _____ _____    ______ ____
ROOT
ATOM      1  C   LIG    1       28.862 -20.014   6.627  0.00  0.00    -0.017 A 
ATOM      2  C   LIG    1       29.313 -21.056   7.459  0.00  0.00    +0.015 A 
ATOM      3  C   LIG    1       30.407 -20.879   8.327  0.00  0.00    +0.019 A 
ATOM      4  C   LIG    1       31.043 -19.637   8.351  0.00  0.00    +0.122 A 
ATOM      5  C   LIG    1       30.603 -18.583   7.552  0.00  0.00    +0.046 A 
ATOM      6  C   LIG    1       29.510 -18.775   6.701  0.00  0.00    +0.010 A 
ENDROOT
BRANCH   4   7
ATOM      7  O   LIG    1       32.109 -19.455   9.190  0.00  0.00    -0.506 OA
ATOM      8  H   LIG    1       31.774 -19.171  10.062  0.00  0.00    +0.292 HD
ENDBRANCH   4   7
BRANCH   1   9
ATOM      9  C   LIG    1       27.718 -20.255   5.659  0.00  0.00    +0.158 C 
BRANCH   9  10
ATOM     10  O   LIG    1       27.603 -19.119   4.790  0.00  0.00    -0.386 OA
ATOM     11  H   LIG    1       28.296 -19.233   4.116  0.00  0.00    +0.210 HD
ENDBRANCH   9  10
BRANCH   9  12
ATOM     12  C   LIG    1       26.361 -20.502   6.368  0.00  0.00    +0.117 C 
BRANCH  12  13
ATOM     13  N   LIG    1       25.570 -21.543   5.671  0.00  0.00    -0.309 NA
ATOM     14  H   LIG    1       24.773 -21.079   5.231  0.00  0.00    +0.122 HD
BRANCH  13  16
ATOM     15  C   LIG    1       25.113 -23.933   5.679  0.00  0.00    +0.027 C 
ATOM     16  C   LIG    1       25.065 -22.642   6.525  0.00  0.00    +0.011 C 
ATOM     17  C   LIG    1       25.952 -22.855   7.763  0.00  0.00    +0.027 C 
ATOM     18  C   LIG    1       23.604 -22.411   6.953  0.00  0.00    +0.027 C 
ENDBRANCH  13  16
ENDBRANCH  12  13
ENDBRANCH   9  12
ENDBRANCH   1   9
BRANCH   3  19
ATOM     19  C   LIG    1       30.883 -22.033   9.176  0.00  0.00    +0.194 C 
BRANCH  19  20
ATOM     20  O   LIG    1       32.163 -22.494   8.761  0.00  0.00    -0.390 OA
ATOM     21  H   LIG    1       32.763 -22.326   9.512  0.00  0.00    +0.210 HD
ENDBRANCH  19  20
ENDBRANCH   3  19
TORSDOF 8
ENDMDL
MODEL 3
REMARK VINA RESULT:      -7.5      4.281      6.444
REMARK  Name = *****
REMARK                            x       y       z     vdW  Elec       q    Type
REMARK                         _______ _______ _______ _____ _____    ______ ____
ROOT
ATOM      1  C   LIG    1       25.214 -23.090   7.135  0.00  0.00    -0.017 A 
ATOM      2  C   LIG    1       26.094 -24.136   6.800  0.00  0.00    +0.015 A 
ATOM      3  C   LIG    1       25.614 -25.380   6.345  0.00  0.00    +0.019 A 
ATOM      4  C   LIG    1       24.234 -25.558   6.229  0.00  0.00    +0.122 A 
ATOM      5  C   LIG    1       23.343 -24.530   6.536  0.00  0.00    +0.046 A 
ATOM      6  C   LIG    1       23.838 -23.300   6.978  0.00  0.00    +0.010 A 
ENDROOT
BRANCH   4   7
ATOM      7  O   LIG    1       23.758 -26.763   5.791  0.00  0.00    -0.506 OA
ATOM      8  H   LIG    1       24.245 -27.476   6.249  0.00  0.00    +0.292 HD
ENDBRANCH   4   7
BRANCH   1   9
ATOM      9  C   LIG    1       25.760 -21.781   7.679  0.00  0.00    +0.158 C 
BRANCH   9  10
ATOM     10  O   LIG    1       25.583 -21.764   9.102  0.00  0.00    -0.386 OA
ATOM     11  H   LIG    1       25.912 -22.623   9.418  0.00  0.00    +0.210 HD
ENDBRANCH   9  10
BRANCH   9  12
ATOM     12  C   LIG    1       25.080 -20.533   7.058  0.00  0.00    +0.117 C 
BRANCH  12  13
ATOM     13  N   LIG    1       25.405 -20.402   5.619  0.00  0.00    -0.309 NA
ATOM     14  H   LIG    1       26.039 -19.606   5.519  0.00  0.00    +0.122 HD
BRANCH  13  16
ATOM     15  C   LIG    1       24.104 -21.482   3.870  0.00  0.00    +0.027 C 
ATOM     16  C   LIG    1       24.248 -20.200   4.718  0.00  0.00    +0.011 C 
ATOM     17  C   LIG    1       22.941 -20.004   5.504  0.00  0.00    +0.027 C 
ATOM     18  C   LIG    1       24.470 -19.019   3.755  0.00  0.00    +0.027 C 
ENDBRANCH  13  16
ENDBRANCH  12  13
ENDBRANCH   9  12
ENDBRANCH   1   9
BRANCH   3  19
ATOM     19  C   LIG    1       26.588 -26.488   6.031  0.00  0.00    +0.194 C 
BRANCH  19  20
ATOM     20  O   LIG    1       26.520 -26.871   4.663  0.00  0.00    -0.390 OA
ATOM     21  H   LIG    1       26.194 -27.790   4.659  0.00  0.00    +0.210 HD
ENDBRANCH  19  20
ENDBRANCH   3  19
TORSDOF 8
ENDMDL
MODEL 4
REMARK VINA RESULT:      -7.4      2.968      6.439
REMARK  Name = *****
REMARK                            x       y       z     vdW  Elec       q    Type
REMARK                         _______ _______ _______ _____ _____    ______ ____
ROOT
ATOM      1  C   LIG    1       25.506 -21.287   6.458  0.00  0.00    -0.017 A 
ATOM      2  C   LIG    1       25.651 -22.682   6.339  0.00  0.00    +0.015 A 
ATOM      3  C   LIG    1       24.543 -23.545   6.442  0.00  0.00    +0.019 A 
ATOM      4  C   LIG    1       23.283 -22.985   6.664  0.00  0.00    +0.122 A 
ATOM      5  C   LIG    1       23.111 -21.606   6.765  0.00  0.00    +0.046 A 
ATOM      6  C   LIG    1       24.221 -20.764   6.653  0.00  0.00    +0.010 A 
ENDROOT
BRANCH   4   7
ATOM      7  O   LIG    1       22.200 -23.816   6.769  0.00  0.00    -0.506 OA
ATOM      8  H   LIG    1       21.845 -23.978   5.873  0.00  0.00    +0.292 HD
ENDBRANCH   4   7
BRANCH   1   9
ATOM      9  C   LIG    1       26.728 -20.387   6.402  0.00  0.00    +0.158 C 
BRANCH   9  10
ATOM     10  O   LIG    1       27.110 -20.213   5.031  0.00  0.00    -0.386 OA
ATOM     11  H   LIG    1       26.278 -20.098   4.539  0.00  0.00    +0.210 HD
ENDBRANCH   9  10
BRANCH   9  12
ATOM     12  C   LIG    1       27.932 -20.944   7.207  0.00  0.00    +0.117 C 
BRANCH  12  13
ATOM     13  N   LIG    1       28.419 -19.958   8.199  0.00  0.00    -0.309 NA
ATOM     14  H   LIG    1       27.798 -19.147   8.156  0.00  0.00    +0.122 HD
BRANCH  13  16
ATOM     15  C   LIG    1       30.737 -20.673   8.393  0.00  0.00    +0.027 C 
ATOM     16  C   LIG    1       29.813 -19.496   8.011  0.00  0.00    +0.011 C 
ATOM     17  C   LIG    1       30.098 -19.128   6.546  0.00  0.00    +0.027 C 
ATOM     18  C   LIG    1       30.153 -18.310   8.932  0.00  0.00    +0.027 C 
ENDBRANCH  13  16
ENDBRANCH  12  13
ENDBRANCH   9  12
ENDBRANCH   1   9
BRANCH   3  19
ATOM     19  C   LIG    1       24.745 -25.037   6.346  0.00  0.00    +0.194 C 
BRANCH  19  20
ATOM     20  O   LIG    1       23.953 -25.605   5.310  0.00  0.00    -0.390 OA
ATOM     21  H   LIG    1       23.491 -26.364   5.713  0.00  0.00    +0.210 HD
ENDBRANCH  19  20
ENDBRANCH   3  19
TORSDOF 8
ENDMDL
MODEL 5
REMARK VINA RESULT:      -7.3      1.596      2.267
REMARK  Name = *****
REMARK                            x       y       z     vdW  Elec       q    Type
REMARK                         _______ _______ _______ _____ _____    ______ ____
ROOT
ATOM      1  C   LIG    1       27.920 -20.604   6.972  0.00  0.00    -0.017 A 
ATOM      2  C   LIG    1       28.744 -21.244   7.917  0.00  0.00    +0.015 A 
ATOM      3  C   LIG    1       30.101 -20.896   8.061  0.00  0.00    +0.019 A 
ATOM      4  C   LIG    1       30.620 -19.892   7.242  0.00  0.00    +0.122 A 
ATOM      5  C   LIG    1       29.820 -19.230   6.313  0.00  0.00    +0.046 A 
ATOM      6  C   LIG    1       28.473 -19.583   6.189  0.00  0.00    +0.010 A 
ENDROOT
BRANCH   4   7
ATOM      7  O   LIG    1       31.938 -19.549   7.373  0.00  0.00    -0.506 OA
ATOM      8  H   LIG    1       32.257 -19.207   6.515  0.00  0.00    +0.292 HD
ENDBRANCH   4   7
BRANCH   1   9
ATOM      9  C   LIG    1       26.477 -21.043   6.799  0.00  0.00    +0.158 C 
BRANCH   9  10
ATOM     10  O   LIG    1       25.667 -20.354   7.762  0.00  0.00    -0.386 OA
ATOM     11  H   LIG    1       25.601 -20.954   8.526  0.00  0.00    +0.210 HD
ENDBRANCH   9  10
BRANCH   9  12
ATOM     12  C   LIG    1       26.282 -22.573   6.960  0.00  0.00    +0.117 C 
BRANCH  12  13
ATOM     13  N   LIG    1       25.507 -23.140   5.832  0.00  0.00    -0.309 NA
ATOM     14  H   LIG    1       24.723 -22.509   5.650  0.00  0.00    +0.122 HD
BRANCH  13  16
ATOM     15  C   LIG    1       24.983 -25.212   4.670  0.00  0.00    +0.027 C 
ATOM     16  C   LIG    1       24.974 -24.505   6.042  0.00  0.00    +0.011 C 
ATOM     17  C   LIG    1       25.860 -25.320   6.999  0.00  0.00    +0.027 C 
ATOM     18  C   LIG    1       23.523 -24.482   6.553  0.00  0.00    +0.027 C 
ENDBRANCH  13  16
ENDBRANCH  12  13
ENDBRANCH   9  12
ENDBRANCH   1   9
BRANCH   3  19
ATOM     19  C   LIG    1       30.959 -21.631   9.061  0.00  0.00    +0.194 C 
BRANCH  19  20
ATOM     20  O   LIG    1       32.150 -22.129   8.461  0.00  0.00    -0.390 OA
ATOM     21  H   LIG    1       31.951 -22.222   7.511  0.00  0.00    +0.210 HD
ENDBRANCH  19  20
ENDBRANCH   3  19
TORSDOF 8
ENDMDL
MODEL 6
REMARK VINA RESULT:      -7.3      2.200      3.459
REMARK  Name = *****
REMARK                            x       y       z     vdW  Elec       q    Type
REMARK                         _______ _______ _______ _____ _____    ______ ____
ROOT
ATOM      1  C   LIG    1       26.278 -20.526   5.837  0.00  0.00    -0.017 A 
ATOM      2  C   LIG    1       27.519 -19.972   5.469  0.00  0.00    +0.015 A 
ATOM      3  C   LIG    1       28.488 -19.642   6.435  0.00  0.00    +0.019 A 
ATOM      4  C   LIG    1       28.195 -19.878   7.780  0.00  0.00    +0.122 A 
ATOM      5  C   LIG    1       26.982 -20.444   8.167  0.00  0.00    +0.046 A 
ATOM      6  C   LIG    1       26.034 -20.773   7.194  0.00  0.00    +0.010 A 
ENDROOT
BRANCH   4   7
ATOM      7  O   LIG    1       29.130 -19.557   8.726  0.00  0.00    -0.506 OA
ATOM      8  H   LIG    1       29.839 -19.038   8.300  0.00  0.00    +0.292 HD
ENDBRANCH   4   7
BRANCH   1   9
ATOM      9  C   LIG    1       25.230 -20.816   4.777  0.00  0.00    +0.158 C 
BRANCH   9  10
ATOM     10  O   LIG    1       24.489 -19.615   4.520  0.00  0.00    -0.386 OA
ATOM     11  H   LIG    1       24.814 -18.963   5.164  0.00  0.00    +0.210 HD
ENDBRANCH   9  10
BRANCH   9  12
ATOM     12  C   LIG    1       24.252 -21.950   5.182  0.00  0.00    +0.117 C 
BRANCH  12  13
ATOM     13  N   LIG    1       24.842 -23.286   4.933  0.00  0.00    -0.309 NA
ATOM     14  H   LIG    1       24.441 -23.642   4.063  0.00  0.00    +0.122 HD
BRANCH  13  16
ATOM     15  C   LIG    1       23.364 -23.861   6.778  0.00  0.00    +0.027 C 
ATOM     16  C   LIG    1       24.625 -24.290   5.999  0.00  0.00    +0.011 C 
ATOM     17  C   LIG    1       24.368 -25.690   5.418  0.00  0.00    +0.027 C 
ATOM     18  C   LIG    1       25.802 -24.336   6.991  0.00  0.00    +0.027 C 
ENDBRANCH  13  16
ENDBRANCH  12  13
ENDBRANCH   9  12
ENDBRANCH   1   9
BRANCH   3  19
ATOM     19  C   LIG    1       29.792 -19.016   6.003  0.00  0.00    +0.194 C 
BRANCH  19  20
ATOM     20  O   LIG    1       29.579 -17.940   5.096  0.00  0.00    -0.390 OA
ATOM     21  H   LIG    1       30.319 -17.321   5.239  0.00  0.00    +0.210 HD
ENDBRANCH  19  20
ENDBRANCH   3  19
TORSDOF 8
ENDMDL
MODEL 7
REMARK VINA RESULT:      -7.3      3.217      6.523
REMARK  Name = *****
REMARK                            x       y       z     vdW  Elec       q    Type
REMARK                         _______ _______ _______ _____ _____    ______ ____
ROOT
ATOM      1  C   LIG    1       25.415 -22.617   7.603  0.00  0.00    -0.017 A 
ATOM      2  C   LIG    1       26.116 -23.765   7.188  0.00  0.00    +0.015 A 
ATOM      3  C   LIG    1       25.460 -24.828   6.537  0.00  0.00    +0.019 A 
ATOM      4  C   LIG    1       24.087 -24.721   6.306  0.00  0.00    +0.122 A 
ATOM      5  C   LIG    1       23.375 -23.586   6.690  0.00  0.00    +0.046 A 
ATOM      6  C   LIG    1       24.044 -22.537   7.328  0.00  0.00    +0.010 A 
ENDROOT
BRANCH   4   7
ATOM      7  O   LIG    1       23.440 -25.749   5.677  0.00  0.00    -0.506 OA
ATOM      8  H   LIG    1       23.088 -25.422   4.826  0.00  0.00    +0.292 HD
ENDBRANCH   4   7
BRANCH   1   9
ATOM      9  C   LIG    1       26.140 -21.515   8.356  0.00  0.00    +0.158 C 
BRANCH   9  10
ATOM     10  O   LIG    1       25.192 -20.496   8.705  0.00  0.00    -0.386 OA
ATOM     11  H   LIG    1       24.391 -20.696   8.191  0.00  0.00    +0.210 HD
ENDBRANCH   9  10
BRANCH   9  12
ATOM     12  C   LIG    1       27.301 -20.885   7.544  0.00  0.00    +0.117 C 
BRANCH  12  13
ATOM     13  N   LIG    1       28.064 -19.912   8.360  0.00  0.00    -0.309 NA
ATOM     14  H   LIG    1       27.510 -19.055   8.414  0.00  0.00    +0.122 HD
BRANCH  13  16
ATOM     15  C   LIG    1       30.299 -20.821   8.049  0.00  0.00    +0.027 C 
ATOM     16  C   LIG    1       29.414 -19.572   7.856  0.00  0.00    +0.011 C 
ATOM     17  C   LIG    1       29.392 -19.236   6.355  0.00  0.00    +0.027 C 
ATOM     18  C   LIG    1       30.047 -18.414   8.649  0.00  0.00    +0.027 C 
ENDBRANCH  13  16
ENDBRANCH  12  13
ENDBRANCH   9  12
ENDBRANCH   1   9
BRANCH   3  19
ATOM     19  C   LIG    1       26.240 -26.057   6.140  0.00  0.00    +0.194 C 
BRANCH  19  20
ATOM     20  O   LIG    1       26.096 -26.342   4.753  0.00  0.00    -0.390 OA
ATOM     21  H   LIG    1       25.151 -26.215   4.552  0.00  0.00    +0.210 HD
ENDBRANCH  19  20
ENDBRANCH   3  19
TORSDOF 8
ENDMDL
MODEL 8
REMARK VINA RESULT:      -7.3      3.128      6.599
REMARK  Name = *****
REMARK                            x       y       z     vdW  Elec       q    Type
REMARK                         _______ _______ _______ _____ _____    ______ ____
ROOT
ATOM      1  C   LIG    1       25.758 -22.041   7.604  0.00  0.00    -0.017 A 
ATOM      2  C   LIG    1       25.704 -23.377   7.164  0.00  0.00    +0.015 A 
ATOM      3  C   LIG    1       24.487 -23.974   6.782  0.00  0.00    +0.019 A 
ATOM      4  C   LIG    1       23.322 -23.208   6.845  0.00  0.00    +0.122 A 
ATOM      5  C   LIG    1       23.352 -21.877   7.258  0.00  0.00    +0.046 A 
ATOM      6  C   LIG    1       24.570 -21.298   7.627  0.00  0.00    +0.010 A 
ENDROOT
BRANCH   4   7
ATOM      7  O   LIG    1       22.134 -23.779   6.477  0.00  0.00    -0.506 OA
ATOM      8  H   LIG    1       21.790 -23.306   5.695  0.00  0.00    +0.292 HD
ENDBRANCH   4   7
BRANCH   1   9
ATOM      9  C   LIG    1       27.075 -21.445   8.067  0.00  0.00    +0.158 C 
BRANCH   9  10
ATOM     10  O   LIG    1       26.802 -20.383   8.992  0.00  0.00    -0.386 OA
ATOM     11  H   LIG    1       25.848 -20.207   8.915  0.00  0.00    +0.210 HD
ENDBRANCH   9  10
BRANCH   9  12
ATOM     12  C   LIG    1       27.942 -20.903   6.900  0.00  0.00    +0.117 C 
BRANCH  12  13
ATOM     13  N   LIG    1       29.366 -20.790   7.293  0.00  0.00    -0.309 NA
ATOM     14  H   LIG    1       29.450 -21.145   8.248  0.00  0.00    +0.122 HD
BRANCH  13  16
ATOM     15  C   LIG    1       29.349 -18.730   5.999  0.00  0.00    +0.027 C 
ATOM     16  C   LIG    1       29.936 -19.424   7.246  0.00  0.00    +0.011 C 
ATOM     17  C   LIG    1       29.537 -18.597   8.479  0.00  0.00    +0.027 C 
ATOM     18  C   LIG    1       31.468 -19.448   7.097  0.00  0.00    +0.027 C 
ENDBRANCH  13  16
ENDBRANCH  12  13
ENDBRANCH   9  12
ENDBRANCH   1   9
BRANCH   3  19
ATOM     19  C   LIG    1       24.466 -25.420   6.351  0.00  0.00    +0.194 C 
BRANCH  19  20
ATOM     20  O   LIG    1       24.050 -25.555   4.997  0.00  0.00    -0.390 OA
ATOM     21  H   LIG    1       24.352 -26.438   4.712  0.00  0.00    +0.210 HD
ENDBRANCH  19  20
ENDBRANCH   3  19
TORSDOF 8
ENDMDL
MODEL 9
REMARK VINA RESULT:      -7.2      3.000      6.217
REMARK  Name = *****
REMARK                            x       y       z     vdW  Elec       q    Type
REMARK                         _______ _______ _______ _____ _____    ______ ____
ROOT
ATOM      1  C   LIG    1       29.631 -20.441   7.581  0.00  0.00    -0.017 A 
ATOM      2  C   LIG    1       28.582 -21.214   8.113  0.00  0.00    +0.015 A 
ATOM      3  C   LIG    1       27.308 -21.232   7.513  0.00  0.00    +0.019 A 
ATOM      4  C   LIG    1       27.102 -20.462   6.366  0.00  0.00    +0.122 A 
ATOM      5  C   LIG    1       28.131 -19.705   5.809  0.00  0.00    +0.046 A 
ATOM      6  C   LIG    1       29.391 -19.705   6.413  0.00  0.00    +0.010 A 
ENDROOT
BRANCH   4   7
ATOM      7  O   LIG    1       25.867 -20.471   5.778  0.00  0.00    -0.506 OA
ATOM      8  H   LIG    1       25.942 -20.066   4.891  0.00  0.00    +0.292 HD
ENDBRANCH   4   7
BRANCH   1   9
ATOM      9  C   LIG    1       30.976 -20.396   8.285  0.00  0.00    +0.158 C 
BRANCH   9  10
ATOM     10  O   LIG    1       30.810 -20.871   9.628  0.00  0.00    -0.386 OA
ATOM     11  H   LIG    1       30.771 -21.840   9.561  0.00  0.00    +0.210 HD
ENDBRANCH   9  10
BRANCH   9  12
ATOM     12  C   LIG    1       31.602 -18.978   8.311  0.00  0.00    +0.117 C 
BRANCH  12  13
ATOM     13  N   LIG    1       32.042 -18.608   9.676  0.00  0.00    -0.309 NA
ATOM     14  H   LIG    1       31.672 -19.311  10.319  0.00  0.00    +0.122 HD
BRANCH  13  16
ATOM     15  C   LIG    1       30.222 -16.999   9.542  0.00  0.00    +0.027 C 
ATOM     16  C   LIG    1       31.617 -17.269  10.145  0.00  0.00    +0.011 C 
ATOM     17  C   LIG    1       31.488 -17.217  11.677  0.00  0.00    +0.027 C 
ATOM     18  C   LIG    1       32.567 -16.162   9.655  0.00  0.00    +0.027 C 
ENDBRANCH  13  16
ENDBRANCH  12  13
ENDBRANCH   9  12
ENDBRANCH   1   9
BRANCH   3  19
ATOM     19  C   LIG    1       26.199 -22.045   8.135  0.00  0.00    +0.194 C 
BRANCH  19  20
ATOM     20  O   LIG    1       25.650 -21.392   9.274  0.00  0.00    -0.390 OA
ATOM     21  H   LIG    1       26.017 -20.489   9.267  0.00  0.00    +0.210 HD
ENDBRANCH  19  20
ENDBRANCH   3  19
TORSDOF 8
ENDMDL
