MODEL 1
REMARK VINA RESULT:      -6.0      0.000      0.000
REMARK  Name = *****
REMARK                            x       y       z     vdW  Elec       q    Type
REMARK                         _______ _______ _______ _____ _____    ______ ____
ROOT
ATOM      1  C   LIG    1       26.128 -20.767   5.773  0.00  0.00    -0.018 A 
ATOM      2  C   LIG    1       26.758 -19.709   5.050  0.00  0.00    +0.039 A 
ATOM      3  I   LIG    1       25.749 -18.650   3.453  0.00  0.00    -0.042 I 
ATOM      4  C   LIG    1       28.077 -19.262   5.341  0.00  0.00    +0.051 A 
ATOM      5  C   LIG    1       28.728 -19.820   6.449  0.00  0.00    +0.036 A 
ATOM      6  I   LIG    1       30.622 -19.141   7.073  0.00  0.00    -0.042 I 
ATOM      7  C   LIG    1       28.142 -20.849   7.182  0.00  0.00    +0.030 A 
ATOM      8  C   LIG    1       26.864 -21.321   6.846  0.00  0.00    +0.019 A 
ATOM      9  I   LIG    1       26.134 -22.849   8.115  0.00  0.00    -0.043 I 
ENDROOT
BRANCH   4  10
ATOM     10  N   LIG    1       28.622 -18.132   4.693  0.00  0.00    -0.356 N 
ATOM     11  H   LIG    1       27.918 -17.518   4.293  0.00  0.00    +0.142 HD
ATOM     12  H   LIG    1       29.377 -18.351   4.048  0.00  0.00    +0.142 HD
ENDBRANCH   4  10
BRANCH   1  13
ATOM     13  C   LIG    1       24.726 -21.265   5.437  0.00  0.00    +0.052 C 
BRANCH  13  14
ATOM     14  C   LIG    1       23.566 -20.648   6.260  0.00  0.00    +0.102 C 
BRANCH  14  16
ATOM     15  C   LIG    1       22.924 -23.094   6.752  0.00  0.00    +0.004 C 
ATOM     16  C   LIG    1       22.928 -21.652   7.231  0.00  0.00    +0.011 C 
ENDBRANCH  14  16
BRANCH  14  17
ATOM     17  C   LIG    1       22.512 -20.156   5.283  0.00  0.00    +0.308 C 
ATOM     18  O   LIG    1       22.313 -18.972   5.023  0.00  0.00    -0.251 OA
BRANCH  17  19
ATOM     19  O   LIG    1       21.799 -21.140   4.695  0.00  0.00    -0.480 OA
ATOM     20  H   LIG    1       21.745 -21.087   3.722  0.00  0.00    +0.295 HD
ENDBRANCH  17  19
ENDBRANCH  14  17
ENDBRANCH  13  14
ENDBRANCH   1  13
TORSDOF 6
ENDMDL
MODEL 2
REMARK VINA RESULT:      -5.6      1.848      3.350
REMARK  Name = *****
REMARK                            x       y       z     vdW  Elec       q    Type
REMARK                         _______ _______ _______ _____ _____    ______ ____
ROOT
ATOM      1  C   LIG    1       25.614 -21.134   5.328  0.00  0.00    -0.018 A 
ATOM      2  C   LIG    1       26.360 -21.740   6.383  0.00  0.00    +0.039 A 
ATOM      3  I   LIG    1       25.796 -23.646   7.242  0.00  0.00    -0.042 I 
ATOM      4  C   LIG    1       27.534 -21.148   6.927  0.00  0.00    +0.051 A 
ATOM      5  C   LIG    1       28.021 -19.981   6.323  0.00  0.00    +0.036 A 
ATOM      6  I   LIG    1       29.827 -19.091   6.939  0.00  0.00    -0.042 I 
ATOM      7  C   LIG    1       27.324 -19.367   5.286  0.00  0.00    +0.030 A 
ATOM      8  C   LIG    1       26.134 -19.930   4.799  0.00  0.00    +0.019 A 
ATOM      9  I   LIG    1       25.259 -18.870   3.190  0.00  0.00    -0.043 I 
ENDROOT
BRANCH   4  10
ATOM     10  N   LIG    1       28.319 -21.832   7.882  0.00  0.00    -0.356 N 
ATOM     11  H   LIG    1       28.924 -21.217   8.420  0.00  0.00    +0.142 HD
ATOM     12  H   LIG    1       28.801 -22.647   7.512  0.00  0.00    +0.142 HD
ENDBRANCH   4  10
BRANCH   1  13
ATOM     13  C   LIG    1       24.338 -21.755   4.768  0.00  0.00    +0.052 C 
BRANCH  13  14
ATOM     14  C   LIG    1       23.010 -21.295   5.422  0.00  0.00    +0.102 C 
BRANCH  14  16
ATOM     15  C   LIG    1       22.205 -18.903   4.905  0.00  0.00    +0.004 C 
ATOM     16  C   LIG    1       23.023 -19.809   5.811  0.00  0.00    +0.011 C 
ENDBRANCH  14  16
BRANCH  14  17
ATOM     17  C   LIG    1       22.788 -22.137   6.668  0.00  0.00    +0.308 C 
ATOM     18  O   LIG    1       22.984 -21.737   7.813  0.00  0.00    -0.251 OA
BRANCH  17  19
ATOM     19  O   LIG    1       22.336 -23.384   6.421  0.00  0.00    -0.480 OA
ATOM     20  H   LIG    1       23.003 -24.091   6.512  0.00  0.00    +0.295 HD
ENDBRANCH  17  19
ENDBRANCH  14  17
ENDBRANCH  13  14
ENDBRANCH   1  13
TORSDOF 6
ENDMDL
MODEL 3
REMARK VINA RESULT:      -5.4      1.220      2.740
REMARK  Name = *****
REMARK                            x       y       z     vdW  Elec       q    Type
REMARK                         _______ _______ _______ _____ _____    ______ ____
ROOT
ATOM      1  C   LIG    1       25.871 -20.880   5.683  0.00  0.00    -0.018 A 
ATOM      2  C   LIG    1       26.677 -21.443   6.718  0.00  0.00    +0.039 A 
ATOM      3  I   LIG    1       26.073 -23.211   7.813  0.00  0.00    -0.042 I 
ATOM      4  C   LIG    1       27.940 -20.899   7.086  0.00  0.00    +0.051 A 
ATOM      5  C   LIG    1       28.441 -19.835   6.324  0.00  0.00    +0.036 A 
ATOM      6  I   LIG    1       30.360 -19.038   6.672  0.00  0.00    -0.042 I 
ATOM      7  C   LIG    1       27.686 -19.266   5.302  0.00  0.00    +0.030 A 
ATOM      8  C   LIG    1       26.417 -19.776   4.989  0.00  0.00    +0.019 A 
ATOM      9  I   LIG    1       25.457 -18.803   3.373  0.00  0.00    -0.043 I 
ENDROOT
BRANCH   4  10
ATOM     10  N   LIG    1       28.769 -21.551   8.024  0.00  0.00    -0.356 N 
ATOM     11  H   LIG    1       28.790 -22.562   7.909  0.00  0.00    +0.142 HD
ATOM     12  H   LIG    1       28.612 -21.260   8.985  0.00  0.00    +0.142 HD
ENDBRANCH   4  10
BRANCH   1  13
ATOM     13  C   LIG    1       24.503 -21.447   5.313  0.00  0.00    +0.052 C 
BRANCH  13  14
ATOM     14  C   LIG    1       23.296 -20.897   6.113  0.00  0.00    +0.102 C 
BRANCH  14  16
ATOM     15  C   LIG    1       22.773 -23.366   6.627  0.00  0.00    +0.004 C 
ATOM     16  C   LIG    1       22.720 -21.923   7.101  0.00  0.00    +0.011 C 
ENDBRANCH  14  16
BRANCH  14  17
ATOM     17  C   LIG    1       22.219 -20.500   5.118  0.00  0.00    +0.308 C 
ATOM     18  O   LIG    1       22.057 -19.356   4.698  0.00  0.00    -0.251 OA
BRANCH  17  19
ATOM     19  O   LIG    1       21.440 -21.523   4.706  0.00  0.00    -0.480 OA
ATOM     20  H   LIG    1       21.911 -22.363   4.550  0.00  0.00    +0.295 HD
ENDBRANCH  17  19
ENDBRANCH  14  17
ENDBRANCH  13  14
ENDBRANCH   1  13
TORSDOF 6
ENDMDL
MODEL 4
REMARK VINA RESULT:      -5.2     10.290     11.924
REMARK  Name = *****
REMARK                            x       y       z     vdW  Elec       q    Type
REMARK                         _______ _______ _______ _____ _____    ______ ____
ROOT
ATOM      1  C   LIG    1       23.558 -29.576  11.797  0.00  0.00    -0.018 A 
ATOM      2  C   LIG    1       22.183 -29.949  11.705  0.00  0.00    +0.039 A 
ATOM      3  I   LIG    1       21.540 -31.707  10.619  0.00  0.00    -0.042 I 
ATOM      4  C   LIG    1       21.146 -29.208  12.338  0.00  0.00    +0.051 A 
ATOM      5  C   LIG    1       21.515 -28.137  13.163  0.00  0.00    +0.036 A 
ATOM      6  I   LIG    1       20.087 -27.055  14.270  0.00  0.00    -0.042 I 
ATOM      7  C   LIG    1       22.847 -27.750  13.282  0.00  0.00    +0.030 A 
ATOM      8  C   LIG    1       23.855 -28.454  12.604  0.00  0.00    +0.019 A 
ATOM      9  I   LIG    1       25.813 -27.736  12.960  0.00  0.00    -0.043 I 
ENDROOT
BRANCH   4  10
ATOM     10  N   LIG    1       19.813 -29.673  12.334  0.00  0.00    -0.356 N 
ATOM     11  H   LIG    1       19.404 -29.732  13.263  0.00  0.00    +0.142 HD
ATOM     12  H   LIG    1       19.671 -30.512  11.779  0.00  0.00    +0.142 HD
ENDBRANCH   4  10
BRANCH   1  13
ATOM     13  C   LIG    1       24.665 -30.354  11.091  0.00  0.00    +0.052 C 
BRANCH  13  14
ATOM     14  C   LIG    1       25.189 -29.746   9.764  0.00  0.00    +0.102 C 
BRANCH  14  16
ATOM     15  C   LIG    1       24.389 -29.400   7.340  0.00  0.00    +0.004 C 
ATOM     16  C   LIG    1       24.502 -30.343   8.527  0.00  0.00    +0.011 C 
ENDBRANCH  14  16
BRANCH  14  17
ATOM     17  C   LIG    1       26.682 -30.014   9.687  0.00  0.00    +0.308 C 
ATOM     18  O   LIG    1       27.205 -31.088   9.975  0.00  0.00    -0.251 OA
BRANCH  17  19
ATOM     19  O   LIG    1       27.412 -28.963   9.256  0.00  0.00    -0.480 OA
ATOM     20  H   LIG    1       27.961 -29.136   8.469  0.00  0.00    +0.295 HD
ENDBRANCH  17  19
ENDBRANCH  14  17
ENDBRANCH  13  14
ENDBRANCH   1  13
TORSDOF 6
ENDMDL
MODEL 5
REMARK VINA RESULT:      -5.1      1.610      2.213
REMARK  Name = *****
REMARK                            x       y       z     vdW  Elec       q    Type
REMARK                         _______ _______ _______ _____ _____    ______ ____
ROOT
ATOM      1  C   LIG    1       26.192 -20.326   6.200  0.00  0.00    -0.018 A 
ATOM      2  C   LIG    1       26.962 -19.479   5.347  0.00  0.00    +0.039 A 
ATOM      3  I   LIG    1       26.092 -18.470   3.640  0.00  0.00    -0.042 I 
ATOM      4  C   LIG    1       28.343 -19.220   5.572  0.00  0.00    +0.051 A 
ATOM      5  C   LIG    1       28.927 -19.740   6.735  0.00  0.00    +0.036 A 
ATOM      6  I   LIG    1       30.921 -19.308   7.256  0.00  0.00    -0.042 I 
ATOM      7  C   LIG    1       28.204 -20.564   7.594  0.00  0.00    +0.030 A 
ATOM      8  C   LIG    1       26.858 -20.859   7.328  0.00  0.00    +0.019 A 
ATOM      9  I   LIG    1       25.928 -22.085   8.780  0.00  0.00    -0.043 I 
ENDROOT
BRANCH   4  10
ATOM     10  N   LIG    1       29.045 -18.280   4.786  0.00  0.00    -0.356 N 
ATOM     11  H   LIG    1       29.713 -17.729   5.318  0.00  0.00    +0.142 HD
ATOM     12  H   LIG    1       28.448 -17.718   4.185  0.00  0.00    +0.142 HD
ENDBRANCH   4  10
BRANCH   1  13
ATOM     13  C   LIG    1       24.719 -20.627   5.939  0.00  0.00    +0.052 C 
BRANCH  13  14
ATOM     14  C   LIG    1       24.418 -21.641   4.806  0.00  0.00    +0.102 C 
BRANCH  14  16
ATOM     15  C   LIG    1       22.267 -20.228   4.684  0.00  0.00    +0.004 C 
ATOM     16  C   LIG    1       23.106 -21.336   4.068  0.00  0.00    +0.011 C 
ENDBRANCH  14  16
BRANCH  14  17
ATOM     17  C   LIG    1       24.333 -23.024   5.429  0.00  0.00    +0.308 C 
ATOM     18  O   LIG    1       25.210 -23.879   5.329  0.00  0.00    -0.251 OA
BRANCH  17  19
ATOM     19  O   LIG    1       23.201 -23.247   6.130  0.00  0.00    -0.480 OA
ATOM     20  H   LIG    1       22.481 -22.611   5.966  0.00  0.00    +0.295 HD
ENDBRANCH  17  19
ENDBRANCH  14  17
ENDBRANCH  13  14
ENDBRANCH   1  13
TORSDOF 6
ENDMDL
MODEL 6
REMARK VINA RESULT:      -5.1      1.403      1.945
REMARK  Name = *****
REMARK                            x       y       z     vdW  Elec       q    Type
REMARK                         _______ _______ _______ _____ _____    ______ ____
ROOT
ATOM      1  C   LIG    1       26.022 -20.654   6.152  0.00  0.00    -0.018 A 
ATOM      2  C   LIG    1       26.707 -19.770   5.263  0.00  0.00    +0.039 A 
ATOM      3  I   LIG    1       25.752 -18.941   3.506  0.00  0.00    -0.042 I 
ATOM      4  C   LIG    1       28.050 -19.356   5.481  0.00  0.00    +0.051 A 
ATOM      5  C   LIG    1       28.675 -19.756   6.670  0.00  0.00    +0.036 A 
ATOM      6  I   LIG    1       30.607 -19.090   7.179  0.00  0.00    -0.042 I 
ATOM      7  C   LIG    1       28.035 -20.610   7.565  0.00  0.00    +0.030 A 
ATOM      8  C   LIG    1       26.730 -21.059   7.307  0.00  0.00    +0.019 A 
ATOM      9  I   LIG    1       25.922 -22.307   8.813  0.00  0.00    -0.043 I 
ENDROOT
BRANCH   4  10
ATOM     10  N   LIG    1       28.656 -18.385   4.654  0.00  0.00    -0.356 N 
ATOM     11  H   LIG    1       29.590 -18.644   4.346  0.00  0.00    +0.142 HD
ATOM     12  H   LIG    1       28.603 -17.439   5.023  0.00  0.00    +0.142 HD
ENDBRANCH   4  10
BRANCH   1  13
ATOM     13  C   LIG    1       24.592 -21.121   5.899  0.00  0.00    +0.052 C 
BRANCH  13  14
ATOM     14  C   LIG    1       24.312 -22.626   6.141  0.00  0.00    +0.102 C 
BRANCH  14  16
ATOM     15  C   LIG    1       25.300 -24.917   5.496  0.00  0.00    +0.004 C 
ATOM     16  C   LIG    1       24.900 -23.523   5.041  0.00  0.00    +0.011 C 
ENDBRANCH  14  16
BRANCH  14  17
ATOM     17  C   LIG    1       22.806 -22.818   6.193  0.00  0.00    +0.308 C 
ATOM     18  O   LIG    1       22.247 -23.711   6.825  0.00  0.00    -0.251 OA
BRANCH  17  19
ATOM     19  O   LIG    1       22.107 -21.905   5.486  0.00  0.00    -0.480 OA
ATOM     20  H   LIG    1       21.549 -22.272   4.775  0.00  0.00    +0.295 HD
ENDBRANCH  17  19
ENDBRANCH  14  17
ENDBRANCH  13  14
ENDBRANCH   1  13
TORSDOF 6
ENDMDL
MODEL 7
REMARK VINA RESULT:      -5.0      8.959     10.881
REMARK  Name = *****
REMARK                            x       y       z     vdW  Elec       q    Type
REMARK                         _______ _______ _______ _____ _____    ______ ____
ROOT
ATOM      1  C   LIG    1       25.460 -30.226   8.339  0.00  0.00    -0.018 A 
ATOM      2  C   LIG    1       24.818 -30.266   7.065  0.00  0.00    +0.039 A 
ATOM      3  I   LIG    1       23.895 -32.068   6.299  0.00  0.00    -0.042 I 
ATOM      4  C   LIG    1       24.719 -29.123   6.222  0.00  0.00    +0.051 A 
ATOM      5  C   LIG    1       25.182 -27.899   6.722  0.00  0.00    +0.036 A 
ATOM      6  I   LIG    1       24.960 -26.109   5.634  0.00  0.00    -0.042 I 
ATOM      7  C   LIG    1       25.806 -27.821   7.964  0.00  0.00    +0.030 A 
ATOM      8  C   LIG    1       25.950 -28.968   8.759  0.00  0.00    +0.019 A 
ATOM      9  I   LIG    1       26.880 -28.625  10.629  0.00  0.00    -0.043 I 
ENDROOT
BRANCH   4  10
ATOM     10  N   LIG    1       23.970 -29.163   5.026  0.00  0.00    -0.356 N 
ATOM     11  H   LIG    1       23.290 -29.919   5.002  0.00  0.00    +0.142 HD
ATOM     12  H   LIG    1       24.535 -29.103   4.183  0.00  0.00    +0.142 HD
ENDBRANCH   4  10
BRANCH   1  13
ATOM     13  C   LIG    1       25.592 -31.460   9.227  0.00  0.00    +0.052 C 
BRANCH  13  14
ATOM     14  C   LIG    1       24.399 -31.753  10.173  0.00  0.00    +0.102 C 
BRANCH  14  16
ATOM     15  C   LIG    1       21.950 -30.970  10.327  0.00  0.00    +0.004 C 
ATOM     16  C   LIG    1       23.417 -30.576  10.270  0.00  0.00    +0.011 C 
ENDBRANCH  14  16
BRANCH  14  17
ATOM     17  C   LIG    1       24.961 -32.052  11.552  0.00  0.00    +0.308 C 
ATOM     18  O   LIG    1       24.734 -31.372  12.550  0.00  0.00    -0.251 OA
BRANCH  17  19
ATOM     19  O   LIG    1       25.738 -33.154  11.607  0.00  0.00    -0.480 OA
ATOM     20  H   LIG    1       25.765 -33.683  10.787  0.00  0.00    +0.295 HD
ENDBRANCH  17  19
ENDBRANCH  14  17
ENDBRANCH  13  14
ENDBRANCH   1  13
TORSDOF 6
ENDMDL
MODEL 8
REMARK VINA RESULT:      -5.0     10.068     11.626
REMARK  Name = *****
REMARK                            x       y       z     vdW  Elec       q    Type
REMARK                         _______ _______ _______ _____ _____    ______ ____
ROOT
ATOM      1  C   LIG    1       23.618 -29.469  11.916  0.00  0.00    -0.018 A 
ATOM      2  C   LIG    1       23.904 -28.322  12.715  0.00  0.00    +0.039 A 
ATOM      3  I   LIG    1       25.916 -27.555  12.945  0.00  0.00    -0.042 I 
ATOM      4  C   LIG    1       22.890 -27.590  13.394  0.00  0.00    +0.051 A 
ATOM      5  C   LIG    1       21.557 -27.960  13.175  0.00  0.00    +0.036 A 
ATOM      6  I   LIG    1       19.958 -26.867  14.004  0.00  0.00    -0.042 I 
ATOM      7  C   LIG    1       21.239 -29.069  12.396  0.00  0.00    +0.030 A 
ATOM      8  C   LIG    1       22.254 -29.818  11.780  0.00  0.00    +0.019 A 
ATOM      9  I   LIG    1       21.557 -31.430  10.600  0.00  0.00    -0.043 I 
ENDROOT
BRANCH   4  10
ATOM     10  N   LIG    1       23.190 -26.388  14.072  0.00  0.00    -0.356 N 
ATOM     11  H   LIG    1       24.188 -26.229  14.188  0.00  0.00    +0.142 HD
ATOM     12  H   LIG    1       22.660 -26.255  14.929  0.00  0.00    +0.142 HD
ENDBRANCH   4  10
BRANCH   1  13
ATOM     13  C   LIG    1       24.710 -30.271  11.215  0.00  0.00    +0.052 C 
BRANCH  13  14
ATOM     14  C   LIG    1       25.219 -29.699   9.867  0.00  0.00    +0.102 C 
BRANCH  14  16
ATOM     15  C   LIG    1       24.361 -29.488   7.446  0.00  0.00    +0.004 C 
ATOM     16  C   LIG    1       24.580 -30.388   8.651  0.00  0.00    +0.011 C 
ENDBRANCH  14  16
BRANCH  14  17
ATOM     17  C   LIG    1       26.725 -29.891   9.817  0.00  0.00    +0.308 C 
ATOM     18  O   LIG    1       27.313 -30.852  10.308  0.00  0.00    -0.251 OA
BRANCH  17  19
ATOM     19  O   LIG    1       27.388 -28.911   9.168  0.00  0.00    -0.480 OA
ATOM     20  H   LIG    1       27.715 -29.151   8.281  0.00  0.00    +0.295 HD
ENDBRANCH  17  19
ENDBRANCH  14  17
ENDBRANCH  13  14
ENDBRANCH   1  13
TORSDOF 6
ENDMDL
MODEL 9
REMARK VINA RESULT:      -4.9      2.060      2.848
REMARK  Name = *****
REMARK                            x       y       z     vdW  Elec       q    Type
REMARK                         _______ _______ _______ _____ _____    ______ ____
ROOT
ATOM      1  C   LIG    1       27.103 -20.359   6.490  0.00  0.00    -0.018 A 
ATOM      2  C   LIG    1       28.347 -19.707   6.234  0.00  0.00    +0.039 A 
ATOM      3  I   LIG    1       28.507 -18.033   4.871  0.00  0.00    -0.042 I 
ATOM      4  C   LIG    1       29.559 -20.095   6.871  0.00  0.00    +0.051 A 
ATOM      5  C   LIG    1       29.492 -21.085   7.860  0.00  0.00    +0.036 A 
ATOM      6  I   LIG    1       31.187 -21.644   8.978  0.00  0.00    -0.042 I 
ATOM      7  C   LIG    1       28.294 -21.737   8.143  0.00  0.00    +0.030 A 
ATOM      8  C   LIG    1       27.117 -21.385   7.464  0.00  0.00    +0.019 A 
ATOM      9  I   LIG    1       25.400 -22.459   8.076  0.00  0.00    -0.043 I 
ENDROOT
BRANCH   4  10
ATOM     10  N   LIG    1       30.746 -19.351   6.692  0.00  0.00    -0.356 N 
ATOM     11  H   LIG    1       31.267 -19.212   7.554  0.00  0.00    +0.142 HD
ATOM     12  H   LIG    1       30.620 -18.497   6.156  0.00  0.00    +0.142 HD
ENDBRANCH   4  10
BRANCH   1  13
ATOM     13  C   LIG    1       25.811 -19.962   5.782  0.00  0.00    +0.052 C 
BRANCH  13  14
ATOM     14  C   LIG    1       25.502 -20.704   4.457  0.00  0.00    +0.102 C 
BRANCH  14  16
ATOM     15  C   LIG    1       24.405 -18.482   3.749  0.00  0.00    +0.004 C 
ATOM     16  C   LIG    1       25.128 -19.747   3.315  0.00  0.00    +0.011 C 
ENDBRANCH  14  16
BRANCH  14  17
ATOM     17  C   LIG    1       24.346 -21.655   4.713  0.00  0.00    +0.308 C 
ATOM     18  O   LIG    1       23.236 -21.300   5.103  0.00  0.00    -0.251 OA
BRANCH  17  19
ATOM     19  O   LIG    1       24.628 -22.951   4.464  0.00  0.00    -0.480 OA
ATOM     20  H   LIG    1       24.319 -23.580   5.143  0.00  0.00    +0.295 HD
ENDBRANCH  17  19
ENDBRANCH  14  17
ENDBRANCH  13  14
ENDBRANCH   1  13
TORSDOF 6
ENDMDL
