MODEL 1
REMARK VINA RESULT:      -8.8      0.000      0.000
REMARK  Name = *****
REMARK                            x       y       z     vdW  Elec       q    Type
REMARK                         _______ _______ _______ _____ _____    ______ ____
ROOT
ATOM      1  N   LIG    1       26.438 -21.202   8.389  0.00  0.00    -0.302 NA
ATOM      2  H   LIG    1       25.932 -20.877   9.218  0.00  0.00    +0.123 HD
ENDROOT
BRANCH   1   3
ATOM      3  C   LIG    1       25.469 -21.755   7.419  0.00  0.00    +0.023 C 
ATOM      4  C   LIG    1       24.038 -21.585   8.012  0.00  0.00    +0.026 C 
ATOM      5  C   LIG    1       22.972 -22.168   7.058  0.00  0.00    -0.006 C 
ATOM      6  C   LIG    1       23.041 -21.431   5.715  0.00  0.00    +0.038 C 
ATOM      7  C   LIG    1       24.440 -21.595   5.103  0.00  0.00    +0.068 C 
ATOM      8  C   LIG    1       24.730 -23.089   4.881  0.00  0.00    +0.038 C 
ATOM      9  C   LIG    1       24.651 -23.844   6.218  0.00  0.00    -0.006 C 
ATOM     10  C   LIG    1       23.253 -23.662   6.828  0.00  0.00    +0.007 C 
ATOM     11  C   LIG    1       25.496 -21.014   6.060  0.00  0.00    +0.057 C 
ATOM     12  C   LIG    1       25.700 -23.270   7.184  0.00  0.00    +0.026 C 
BRANCH   7  13
ATOM     13  O   LIG    1       24.518 -20.896   3.867  0.00  0.00    -0.389 OA
ATOM     14  H   LIG    1       24.878 -20.010   4.037  0.00  0.00    +0.210 HD
ENDBRANCH   7  13
ENDBRANCH   1   3
BRANCH   1  15
ATOM     15  C   LIG    1       27.227 -20.058   7.883  0.00  0.00    +0.178 C 
BRANCH  15  18
ATOM     16  C   LIG    1       31.089 -20.002   7.838  0.00  0.00    +0.179 C 
ATOM     17  N   LIG    1       29.684 -19.676   8.079  0.00  0.00    -0.285 N 
ATOM     18  C   LIG    1       28.676 -20.484   7.608  0.00  0.00    +0.230 C 
ATOM     19  O   LIG    1       28.921 -21.516   6.979  0.00  0.00    -0.274 OA
ATOM     20  C   LIG    1       29.533 -18.399   8.759  0.00  0.00    +0.109 C 
ATOM     21  C   LIG    1       30.952 -17.988   9.131  0.00  0.00    +0.022 C 
ATOM     22  C   LIG    1       31.800 -18.662   8.056  0.00  0.00    +0.039 C 
BRANCH  16  24
ATOM     23  N   LIG    1       31.928 -21.840   9.539  0.00  0.00    -0.195 NA
ATOM     24  C   LIG    1       31.588 -21.026   8.788  0.00  0.00    +0.085 C 
ENDBRANCH  16  24
ENDBRANCH  15  18
ENDBRANCH   1  15
TORSDOF 5
ENDMDL
MODEL 2
REMARK VINA RESULT:      -8.7      1.029      1.912
REMARK  Name = *****
REMARK                            x       y       z     vdW  Elec       q    Type
REMARK                         _______ _______ _______ _____ _____    ______ ____
ROOT
ATOM      1  N   LIG    1       26.464 -21.184   8.371  0.00  0.00    -0.302 NA
ATOM      2  H   LIG    1       25.997 -20.829   9.211  0.00  0.00    +0.123 HD
ENDROOT
BRANCH   1   3
ATOM      3  C   LIG    1       25.448 -21.764   7.467  0.00  0.00    +0.023 C 
ATOM      4  C   LIG    1       25.533 -21.021   6.100  0.00  0.00    +0.026 C 
ATOM      5  C   LIG    1       24.478 -21.562   5.111  0.00  0.00    -0.006 C 
ATOM      6  C   LIG    1       24.724 -23.057   4.877  0.00  0.00    +0.038 C 
ATOM      7  C   LIG    1       24.632 -23.815   6.210  0.00  0.00    +0.068 C 
ATOM      8  C   LIG    1       23.231 -23.616   6.815  0.00  0.00    +0.038 C 
ATOM      9  C   LIG    1       22.964 -22.120   7.042  0.00  0.00    -0.006 C 
ATOM     10  C   LIG    1       23.073 -21.370   5.705  0.00  0.00    +0.007 C 
ATOM     11  C   LIG    1       25.685 -23.269   7.190  0.00  0.00    +0.057 C 
ATOM     12  C   LIG    1       24.012 -21.563   8.019  0.00  0.00    +0.026 C 
BRANCH   7  13
ATOM     13  O   LIG    1       24.881 -25.199   6.004  0.00  0.00    -0.389 OA
ATOM     14  H   LIG    1       25.308 -25.556   6.800  0.00  0.00    +0.210 HD
ENDBRANCH   7  13
ENDBRANCH   1   3
BRANCH   1  15
ATOM     15  C   LIG    1       27.232 -20.062   7.790  0.00  0.00    +0.178 C 
BRANCH  15  18
ATOM     16  C   LIG    1       31.093 -19.986   7.863  0.00  0.00    +0.179 C 
ATOM     17  N   LIG    1       29.680 -19.671   8.067  0.00  0.00    -0.285 N 
ATOM     18  C   LIG    1       28.691 -20.476   7.551  0.00  0.00    +0.230 C 
ATOM     19  O   LIG    1       28.960 -21.494   6.912  0.00  0.00    -0.274 OA
ATOM     20  C   LIG    1       29.501 -18.407   8.765  0.00  0.00    +0.109 C 
ATOM     21  C   LIG    1       30.906 -17.996   9.187  0.00  0.00    +0.022 C 
ATOM     22  C   LIG    1       31.790 -18.646   8.127  0.00  0.00    +0.039 C 
BRANCH  16  24
ATOM     23  N   LIG    1       31.893 -21.856   9.548  0.00  0.00    -0.195 NA
ATOM     24  C   LIG    1       31.569 -21.024   8.810  0.00  0.00    +0.085 C 
ENDBRANCH  16  24
ENDBRANCH  15  18
ENDBRANCH   1  15
TORSDOF 5
ENDMDL
MODEL 3
REMARK VINA RESULT:      -8.2      1.556      2.397
REMARK  Name = *****
REMARK                            x       y       z     vdW  Elec       q    Type
REMARK                         _______ _______ _______ _____ _____    ______ ____
ROOT
ATOM      1  N   LIG    1       27.043 -21.418   8.290  0.00  0.00    -0.302 NA
ATOM      2  H   LIG    1       27.184 -20.422   8.486  0.00  0.00    +0.123 HD
ENDROOT
BRANCH   1   3
ATOM      3  C   LIG    1       25.843 -21.574   7.440  0.00  0.00    +0.023 C 
ATOM      4  C   LIG    1       25.999 -20.640   6.202  0.00  0.00    +0.026 C 
ATOM      5  C   LIG    1       24.764 -20.734   5.280  0.00  0.00    -0.006 C 
ATOM      6  C   LIG    1       24.608 -22.179   4.792  0.00  0.00    +0.038 C 
ATOM      7  C   LIG    1       24.439 -23.120   5.994  0.00  0.00    +0.068 C 
ATOM      8  C   LIG    1       23.187 -22.712   6.791  0.00  0.00    +0.038 C 
ATOM      9  C   LIG    1       23.323 -21.260   7.275  0.00  0.00    -0.006 C 
ATOM     10  C   LIG    1       23.506 -20.330   6.066  0.00  0.00    +0.007 C 
ATOM     11  C   LIG    1       25.672 -23.019   6.909  0.00  0.00    +0.057 C 
ATOM     12  C   LIG    1       24.554 -21.146   8.189  0.00  0.00    +0.026 C 
BRANCH   7  13
ATOM     13  O   LIG    1       24.315 -24.465   5.550  0.00  0.00    -0.389 OA
ATOM     14  H   LIG    1       24.567 -24.503   4.613  0.00  0.00    +0.210 HD
ENDBRANCH   7  13
ENDBRANCH   1   3
BRANCH   1  15
ATOM     15  C   LIG    1       28.293 -21.927   7.686  0.00  0.00    +0.178 C 
BRANCH  15  18
ATOM     16  C   LIG    1       31.184 -19.542   8.622  0.00  0.00    +0.179 C 
ATOM     17  N   LIG    1       30.009 -20.142   7.992  0.00  0.00    -0.285 N 
ATOM     18  C   LIG    1       29.515 -21.354   8.417  0.00  0.00    +0.230 C 
ATOM     19  O   LIG    1       30.037 -21.968   9.350  0.00  0.00    -0.274 OA
ATOM     20  C   LIG    1       29.542 -19.359   6.859  0.00  0.00    +0.109 C 
ATOM     21  C   LIG    1       30.374 -18.083   6.900  0.00  0.00    +0.022 C 
ATOM     22  C   LIG    1       31.668 -18.537   7.571  0.00  0.00    +0.039 C 
BRANCH  16  24
ATOM     23  N   LIG    1       30.616 -18.299  10.882  0.00  0.00    -0.195 NA
ATOM     24  C   LIG    1       30.838 -18.855   9.891  0.00  0.00    +0.085 C 
ENDBRANCH  16  24
ENDBRANCH  15  18
ENDBRANCH   1  15
TORSDOF 5
ENDMDL
MODEL 4
REMARK VINA RESULT:      -8.0      1.322      1.605
REMARK  Name = *****
REMARK                            x       y       z     vdW  Elec       q    Type
REMARK                         _______ _______ _______ _____ _____    ______ ____
ROOT
ATOM      1  N   LIG    1       27.084 -21.398   8.284  0.00  0.00    -0.302 NA
ATOM      2  H   LIG    1       27.229 -20.399   8.456  0.00  0.00    +0.123 HD
ENDROOT
BRANCH   1   3
ATOM      3  C   LIG    1       25.911 -21.568   7.401  0.00  0.00    +0.023 C 
ATOM      4  C   LIG    1       24.664 -20.983   8.130  0.00  0.00    +0.026 C 
ATOM      5  C   LIG    1       23.392 -21.152   7.271  0.00  0.00    -0.006 C 
ATOM      6  C   LIG    1       23.580 -20.411   5.941  0.00  0.00    +0.038 C 
ATOM      7  C   LIG    1       24.796 -20.979   5.196  0.00  0.00    +0.068 C 
ATOM      8  C   LIG    1       24.573 -22.476   4.919  0.00  0.00    +0.038 C 
ATOM      9  C   LIG    1       24.369 -23.230   6.243  0.00  0.00    -0.006 C 
ATOM     10  C   LIG    1       23.160 -22.645   6.986  0.00  0.00    +0.007 C 
ATOM     11  C   LIG    1       26.059 -20.810   6.059  0.00  0.00    +0.057 C 
ATOM     12  C   LIG    1       25.625 -23.066   7.115  0.00  0.00    +0.026 C 
BRANCH   7  13
ATOM     13  O   LIG    1       24.990 -20.283   3.971  0.00  0.00    -0.389 OA
ATOM     14  H   LIG    1       24.525 -19.432   4.025  0.00  0.00    +0.210 HD
ENDBRANCH   7  13
ENDBRANCH   1   3
BRANCH   1  15
ATOM     15  C   LIG    1       28.347 -21.936   7.735  0.00  0.00    +0.178 C 
BRANCH  15  18
ATOM     16  C   LIG    1       31.208 -19.516   8.673  0.00  0.00    +0.179 C 
ATOM     17  N   LIG    1       30.049 -20.137   8.034  0.00  0.00    -0.285 N 
ATOM     18  C   LIG    1       29.553 -21.341   8.477  0.00  0.00    +0.230 C 
ATOM     19  O   LIG    1       30.059 -21.931   9.433  0.00  0.00    -0.274 OA
ATOM     20  C   LIG    1       29.600 -19.381   6.875  0.00  0.00    +0.109 C 
ATOM     21  C   LIG    1       30.426 -18.101   6.903  0.00  0.00    +0.022 C 
ATOM     22  C   LIG    1       31.708 -18.533   7.610  0.00  0.00    +0.039 C 
BRANCH  16  24
ATOM     23  N   LIG    1       30.583 -18.265  10.914  0.00  0.00    -0.195 NA
ATOM     24  C   LIG    1       30.834 -18.802   9.919  0.00  0.00    +0.085 C 
ENDBRANCH  16  24
ENDBRANCH  15  18
ENDBRANCH   1  15
TORSDOF 5
ENDMDL
MODEL 5
REMARK VINA RESULT:      -7.9      1.172      1.578
REMARK  Name = *****
REMARK                            x       y       z     vdW  Elec       q    Type
REMARK                         _______ _______ _______ _____ _____    ______ ____
ROOT
ATOM      1  N   LIG    1       25.923 -21.407   7.594  0.00  0.00    -0.302 NA
ATOM      2  H   LIG    1       25.343 -21.548   8.426  0.00  0.00    +0.123 HD
ENDROOT
BRANCH   1   3
ATOM      3  C   LIG    1       25.045 -21.112   6.441  0.00  0.00    +0.023 C 
ATOM      4  C   LIG    1       23.803 -20.331   6.963  0.00  0.00    +0.026 C 
ATOM      5  C   LIG    1       22.827 -20.011   5.811  0.00  0.00    -0.006 C 
ATOM      6  C   LIG    1       23.546 -19.151   4.764  0.00  0.00    +0.038 C 
ATOM      7  C   LIG    1       24.769 -19.906   4.223  0.00  0.00    +0.068 C 
ATOM      8  C   LIG    1       24.311 -21.223   3.574  0.00  0.00    +0.038 C 
ATOM      9  C   LIG    1       23.575 -22.090   4.608  0.00  0.00    -0.006 C 
ATOM     10  C   LIG    1       22.363 -21.321   5.153  0.00  0.00    +0.007 C 
ATOM     11  C   LIG    1       25.736 -20.223   5.377  0.00  0.00    +0.057 C 
ATOM     12  C   LIG    1       24.531 -22.412   5.768  0.00  0.00    +0.026 C 
BRANCH   7  13
ATOM     13  O   LIG    1       25.454 -19.106   3.267  0.00  0.00    -0.389 OA
ATOM     14  H   LIG    1       24.874 -18.372   3.008  0.00  0.00    +0.210 HD
ENDBRANCH   7  13
ENDBRANCH   1   3
BRANCH   1  15
ATOM     15  C   LIG    1       26.896 -20.340   7.913  0.00  0.00    +0.178 C 
BRANCH  15  18
ATOM     16  C   LIG    1       30.754 -20.351   7.726  0.00  0.00    +0.179 C 
ATOM     17  N   LIG    1       29.362 -19.973   7.968  0.00  0.00    -0.285 N 
ATOM     18  C   LIG    1       28.329 -20.822   7.648  0.00  0.00    +0.230 C 
ATOM     19  O   LIG    1       28.540 -21.934   7.159  0.00  0.00    -0.274 OA
ATOM     20  C   LIG    1       29.250 -18.613   8.472  0.00  0.00    +0.109 C 
ATOM     21  C   LIG    1       30.686 -18.176   8.734  0.00  0.00    +0.022 C 
ATOM     22  C   LIG    1       31.487 -19.005   7.733  0.00  0.00    +0.039 C 
BRANCH  16  24
ATOM     23  N   LIG    1       31.671 -21.903   9.656  0.00  0.00    -0.195 NA
ATOM     24  C   LIG    1       31.276 -21.243   8.790  0.00  0.00    +0.085 C 
ENDBRANCH  16  24
ENDBRANCH  15  18
ENDBRANCH   1  15
TORSDOF 5
ENDMDL
MODEL 6
REMARK VINA RESULT:      -7.5      4.650      7.423
REMARK  Name = *****
REMARK                            x       y       z     vdW  Elec       q    Type
REMARK                         _______ _______ _______ _____ _____    ______ ____
ROOT
ATOM      1  N   LIG    1       24.446 -25.556   5.948  0.00  0.00    -0.302 NA
ATOM      2  H   LIG    1       23.533 -25.926   6.228  0.00  0.00    +0.123 HD
ENDROOT
BRANCH   1   3
ATOM      3  C   LIG    1       24.470 -24.098   6.197  0.00  0.00    +0.023 C 
ATOM      4  C   LIG    1       25.624 -23.795   7.199  0.00  0.00    +0.026 C 
ATOM      5  C   LIG    1       25.691 -22.288   7.526  0.00  0.00    -0.006 C 
ATOM      6  C   LIG    1       25.940 -21.502   6.233  0.00  0.00    +0.038 C 
ATOM      7  C   LIG    1       24.807 -21.773   5.232  0.00  0.00    +0.068 C 
ATOM      8  C   LIG    1       23.466 -21.334   5.846  0.00  0.00    +0.038 C 
ATOM      9  C   LIG    1       23.209 -22.104   7.151  0.00  0.00    -0.006 C 
ATOM     10  C   LIG    1       24.355 -21.837   8.139  0.00  0.00    +0.007 C 
ATOM     11  C   LIG    1       24.746 -23.277   4.914  0.00  0.00    +0.057 C 
ATOM     12  C   LIG    1       23.148 -23.609   6.846  0.00  0.00    +0.026 C 
BRANCH   7  13
ATOM     13  O   LIG    1       25.043 -21.065   4.022  0.00  0.00    -0.389 OA
ATOM     14  H   LIG    1       24.844 -21.655   3.277  0.00  0.00    +0.210 HD
ENDBRANCH   7  13
ENDBRANCH   1   3
BRANCH   1  15
ATOM     15  C   LIG    1       25.474 -26.320   6.686  0.00  0.00    +0.178 C 
BRANCH  15  18
ATOM     16  C   LIG    1       25.280 -29.953   7.985  0.00  0.00    +0.179 C 
ATOM     17  N   LIG    1       25.598 -28.535   7.829  0.00  0.00    -0.285 N 
ATOM     18  C   LIG    1       25.072 -27.798   6.793  0.00  0.00    +0.230 C 
ATOM     19  O   LIG    1       24.306 -28.304   5.970  0.00  0.00    -0.274 OA
ATOM     20  C   LIG    1       26.569 -28.085   8.814  0.00  0.00    +0.109 C 
ATOM     21  C   LIG    1       26.729 -29.263   9.766  0.00  0.00    +0.022 C 
ATOM     22  C   LIG    1       26.411 -30.467   8.883  0.00  0.00    +0.039 C 
BRANCH  16  24
ATOM     23  N   LIG    1       22.952 -30.341   9.170  0.00  0.00    -0.195 NA
ATOM     24  C   LIG    1       23.960 -30.154   8.631  0.00  0.00    +0.085 C 
ENDBRANCH  16  24
ENDBRANCH  15  18
ENDBRANCH   1  15
TORSDOF 5
ENDMDL
MODEL 7
REMARK VINA RESULT:      -7.4      4.711      7.502
REMARK  Name = *****
REMARK                            x       y       z     vdW  Elec       q    Type
REMARK                         _______ _______ _______ _____ _____    ______ ____
ROOT
ATOM      1  N   LIG    1       24.469 -25.590   6.017  0.00  0.00    -0.302 NA
ATOM      2  H   LIG    1       23.564 -25.949   6.335  0.00  0.00    +0.123 HD
ENDROOT
BRANCH   1   3
ATOM      3  C   LIG    1       24.517 -24.131   6.252  0.00  0.00    +0.023 C 
ATOM      4  C   LIG    1       23.128 -23.679   6.791  0.00  0.00    +0.026 C 
ATOM      5  C   LIG    1       23.099 -22.154   7.035  0.00  0.00    -0.006 C 
ATOM      6  C   LIG    1       24.173 -21.788   8.067  0.00  0.00    +0.038 C 
ATOM      7  C   LIG    1       25.556 -22.212   7.551  0.00  0.00    +0.068 C 
ATOM      8  C   LIG    1       25.852 -21.487   6.227  0.00  0.00    +0.038 C 
ATOM      9  C   LIG    1       24.776 -21.834   5.186  0.00  0.00    -0.006 C 
ATOM     10  C   LIG    1       23.396 -21.419   5.717  0.00  0.00    +0.007 C 
ATOM     11  C   LIG    1       25.576 -23.731   7.309  0.00  0.00    +0.057 C 
ATOM     12  C   LIG    1       24.784 -23.351   4.937  0.00  0.00    +0.026 C 
BRANCH   7  13
ATOM     13  O   LIG    1       26.555 -21.895   8.512  0.00  0.00    -0.389 OA
ATOM     14  H   LIG    1       26.617 -20.928   8.583  0.00  0.00    +0.210 HD
ENDBRANCH   7  13
ENDBRANCH   1   3
BRANCH   1  15
ATOM     15  C   LIG    1       25.517 -26.359   6.722  0.00  0.00    +0.178 C 
BRANCH  15  18
ATOM     16  C   LIG    1       25.307 -29.980   8.050  0.00  0.00    +0.179 C 
ATOM     17  N   LIG    1       25.624 -28.563   7.886  0.00  0.00    -0.285 N 
ATOM     18  C   LIG    1       25.115 -27.837   6.835  0.00  0.00    +0.230 C 
ATOM     19  O   LIG    1       24.365 -28.351   6.003  0.00  0.00    -0.274 OA
ATOM     20  C   LIG    1       26.577 -28.102   8.884  0.00  0.00    +0.109 C 
ATOM     21  C   LIG    1       26.723 -29.272   9.850  0.00  0.00    +0.022 C 
ATOM     22  C   LIG    1       26.423 -30.484   8.972  0.00  0.00    +0.039 C 
BRANCH  16  24
ATOM     23  N   LIG    1       22.955 -30.374   9.186  0.00  0.00    -0.195 NA
ATOM     24  C   LIG    1       23.975 -30.178   8.674  0.00  0.00    +0.085 C 
ENDBRANCH  16  24
ENDBRANCH  15  18
ENDBRANCH   1  15
TORSDOF 5
ENDMDL
MODEL 8
REMARK VINA RESULT:      -7.2      1.088      1.998
REMARK  Name = *****
REMARK                            x       y       z     vdW  Elec       q    Type
REMARK                         _______ _______ _______ _____ _____    ______ ____
ROOT
ATOM      1  N   LIG    1       26.482 -21.187   8.278  0.00  0.00    -0.302 NA
ATOM      2  H   LIG    1       25.983 -20.820   9.094  0.00  0.00    +0.123 HD
ENDROOT
BRANCH   1   3
ATOM      3  C   LIG    1       25.504 -21.792   7.348  0.00  0.00    +0.023 C 
ATOM      4  C   LIG    1       26.016 -23.211   6.960  0.00  0.00    +0.026 C 
ATOM      5  C   LIG    1       25.052 -23.893   5.965  0.00  0.00    -0.006 C 
ATOM      6  C   LIG    1       23.669 -24.028   6.615  0.00  0.00    +0.038 C 
ATOM      7  C   LIG    1       23.136 -22.639   6.996  0.00  0.00    +0.068 C 
ATOM      8  C   LIG    1       23.023 -21.770   5.731  0.00  0.00    +0.038 C 
ATOM      9  C   LIG    1       24.400 -21.638   5.060  0.00  0.00    -0.006 C 
ATOM     10  C   LIG    1       24.930 -23.033   4.697  0.00  0.00    +0.007 C 
ATOM     11  C   LIG    1       24.103 -21.965   7.984  0.00  0.00    +0.057 C 
ATOM     12  C   LIG    1       25.376 -20.967   6.040  0.00  0.00    +0.026 C 
BRANCH   7  13
ATOM     13  O   LIG    1       21.863 -22.757   7.619  0.00  0.00    -0.389 OA
ATOM     14  H   LIG    1       21.882 -22.258   8.452  0.00  0.00    +0.210 HD
ENDBRANCH   7  13
ENDBRANCH   1   3
BRANCH   1  15
ATOM     15  C   LIG    1       27.262 -20.069   7.704  0.00  0.00    +0.178 C 
BRANCH  15  18
ATOM     16  C   LIG    1       31.121 -20.001   7.857  0.00  0.00    +0.179 C 
ATOM     17  N   LIG    1       29.705 -19.683   8.032  0.00  0.00    -0.285 N 
ATOM     18  C   LIG    1       28.725 -20.486   7.496  0.00  0.00    +0.230 C 
ATOM     19  O   LIG    1       29.006 -21.506   6.863  0.00  0.00    -0.274 OA
ATOM     20  C   LIG    1       29.514 -18.418   8.725  0.00  0.00    +0.109 C 
ATOM     21  C   LIG    1       30.911 -18.010   9.176  0.00  0.00    +0.022 C 
ATOM     22  C   LIG    1       31.815 -18.662   8.134  0.00  0.00    +0.039 C 
BRANCH  16  24
ATOM     23  N   LIG    1       31.880 -21.858   9.575  0.00  0.00    -0.195 NA
ATOM     24  C   LIG    1       31.575 -21.040   8.814  0.00  0.00    +0.085 C 
ENDBRANCH  16  24
ENDBRANCH  15  18
ENDBRANCH   1  15
TORSDOF 5
ENDMDL
MODEL 9
REMARK VINA RESULT:      -7.1      2.087      7.311
REMARK  Name = *****
REMARK                            x       y       z     vdW  Elec       q    Type
REMARK                         _______ _______ _______ _____ _____    ______ ____
ROOT
ATOM      1  N   LIG    1       27.845 -21.380   7.446  0.00  0.00    -0.302 NA
ATOM      2  H   LIG    1       28.173 -22.255   7.029  0.00  0.00    +0.123 HD
ENDROOT
BRANCH   1   3
ATOM      3  C   LIG    1       29.012 -20.522   7.745  0.00  0.00    +0.023 C 
ATOM      4  C   LIG    1       28.550 -19.390   8.711  0.00  0.00    +0.026 C 
ATOM      5  C   LIG    1       29.719 -18.438   9.046  0.00  0.00    -0.006 C 
ATOM      6  C   LIG    1       30.842 -19.236   9.721  0.00  0.00    +0.038 C 
ATOM      7  C   LIG    1       31.325 -20.351   8.782  0.00  0.00    +0.068 C 
ATOM      8  C   LIG    1       31.853 -19.729   7.477  0.00  0.00    +0.038 C 
ATOM      9  C   LIG    1       30.742 -18.914   6.796  0.00  0.00    -0.006 C 
ATOM     10  C   LIG    1       30.256 -17.811   7.749  0.00  0.00    +0.007 C 
ATOM     11  C   LIG    1       30.154 -21.294   8.451  0.00  0.00    +0.057 C 
ATOM     12  C   LIG    1       29.565 -19.846   6.463  0.00  0.00    +0.026 C 
BRANCH   7  13
ATOM     13  O   LIG    1       32.351 -21.109   9.409  0.00  0.00    -0.389 OA
ATOM     14  H   LIG    1       33.133 -20.541   9.513  0.00  0.00    +0.210 HD
ENDBRANCH   7  13
ENDBRANCH   1   3
BRANCH   1  15
ATOM     15  C   LIG    1       26.872 -20.783   6.506  0.00  0.00    +0.178 C 
BRANCH  15  18
ATOM     16  C   LIG    1       23.048 -21.313   6.390  0.00  0.00    +0.179 C 
ATOM     17  N   LIG    1       24.443 -21.082   6.021  0.00  0.00    -0.285 N 
ATOM     18  C   LIG    1       25.436 -21.057   6.973  0.00  0.00    +0.230 C 
ATOM     19  O   LIG    1       25.185 -21.242   8.166  0.00  0.00    -0.274 OA
ATOM     20  C   LIG    1       24.589 -20.800   4.601  0.00  0.00    +0.109 C 
ATOM     21  C   LIG    1       23.208 -21.055   4.011  0.00  0.00    +0.022 C 
ATOM     22  C   LIG    1       22.274 -20.770   5.184  0.00  0.00    +0.039 C 
BRANCH  16  24
ATOM     23  N   LIG    1       22.498 -23.868   6.774  0.00  0.00    -0.195 NA
ATOM     24  C   LIG    1       22.764 -22.756   6.593  0.00  0.00    +0.085 C 
ENDBRANCH  16  24
ENDBRANCH  15  18
ENDBRANCH   1  15
TORSDOF 5
ENDMDL
