MODEL 1
REMARK VINA RESULT:      -0.1      0.000      0.000
REMARK  Name = *****
REMARK                            x       y       z     vdW  Elec       q    Type
REMARK                         _______ _______ _______ _____ _____    ______ ____
ROOT
ATOM      1  N   LIG    1       24.211 -21.037   4.341  0.00  0.00    -0.312 N 
ATOM      2  H   LIG    1       23.940 -20.599   3.473  0.00  0.00    +0.149 HD
ENDROOT
BRANCH   1   3
ATOM      3  C   LIG    1       25.484 -20.860   4.790  0.00  0.00    +0.197 A 
ATOM      4  N   LIG    1       26.316 -19.857   4.313  0.00  0.00    -0.307 N 
ATOM      5  C   LIG    1       27.432 -19.817   5.131  0.00  0.00    +0.070 A 
ATOM      6  C   LIG    1       27.271 -20.922   5.963  0.00  0.00    +0.091 A 
ATOM      7  C   LIG    1       28.249 -21.215   6.924  0.00  0.00    +0.030 A 
ATOM      8  C   LIG    1       29.342 -20.353   7.061  0.00  0.00    +0.002 A 
ATOM      9  C   LIG    1       29.475 -19.239   6.234  0.00  0.00    +0.002 A 
ATOM     10  C   LIG    1       28.533 -18.956   5.234  0.00  0.00    +0.028 A 
ATOM     11  N   LIG    1       26.088 -21.564   5.709  0.00  0.00    -0.214 NA
BRANCH   4  12
ATOM     12  C   LIG    1       26.058 -18.942   3.213  0.00  0.00    +0.160 C 
BRANCH  12  13
ATOM     13  C   LIG    1       26.532 -17.528   3.488  0.00  0.00    -0.028 A 
ATOM     14  C   LIG    1       27.713 -17.279   4.210  0.00  0.00    +0.008 A 
ATOM     15  C   LIG    1       28.157 -15.972   4.423  0.00  0.00    +0.039 A 
ATOM     16  C   LIG    1       27.429 -14.906   3.912  0.00  0.00    +0.123 A 
ATOM     17  F   LIG    1       27.855 -13.652   4.114  0.00  0.00    -0.205 F 
ATOM     18  C   LIG    1       26.263 -15.124   3.188  0.00  0.00    +0.039 A 
ATOM     19  C   LIG    1       25.817 -16.432   2.974  0.00  0.00    +0.008 A 
ENDBRANCH  12  13
ENDBRANCH   4  12
ENDBRANCH   1   3
BRANCH   1  23
ATOM     20  N   LIG    1       21.966 -18.405   5.189  0.00  0.00    -0.302 NA
ATOM     21  C   LIG    1       23.190 -18.695   5.944  0.00  0.00    +0.086 C 
ATOM     22  C   LIG    1       23.302 -20.129   6.454  0.00  0.00    +0.037 C 
ATOM     23  C   LIG    1       23.119 -21.148   5.330  0.00  0.00    +0.075 C 
ATOM     24  C   LIG    1       21.751 -20.889   4.705  0.00  0.00    +0.037 C 
ATOM     25  C   LIG    1       21.623 -19.452   4.200  0.00  0.00    +0.086 C 
BRANCH  20  26
ATOM     26  C   LIG    1       22.083 -17.105   4.475  0.00  0.00    +0.089 C 
BRANCH  26  27
ATOM     27  C   LIG    1       22.344 -15.868   5.369  0.00  0.00    +0.050 C 
BRANCH  27  31
ATOM     28  C   LIG    1       24.161 -12.562   3.241  0.00  0.00    +0.120 A 
ATOM     29  C   LIG    1       23.348 -13.469   2.559  0.00  0.00    +0.046 A 
ATOM     30  C   LIG    1       22.775 -14.556   3.233  0.00  0.00    +0.007 A 
ATOM     31  C   LIG    1       23.003 -14.742   4.603  0.00  0.00    -0.046 A 
ATOM     32  C   LIG    1       23.854 -13.853   5.267  0.00  0.00    +0.007 A 
ATOM     33  C   LIG    1       24.420 -12.771   4.595  0.00  0.00    +0.046 A 
BRANCH  28  35
ATOM     34  C   LIG    1       25.966 -11.680   1.992  0.00  0.00    +0.277 C 
ATOM     35  O   LIG    1       24.645 -11.516   2.502  0.00  0.00    -0.495 OA
ENDBRANCH  28  35
ENDBRANCH  27  31
ENDBRANCH  26  27
ENDBRANCH  20  26
ENDBRANCH   1  23
TORSDOF 8
ENDMDL
MODEL 2
REMARK VINA RESULT:       2.8      2.818      5.445
REMARK  Name = *****
REMARK                            x       y       z     vdW  Elec       q    Type
REMARK                         _______ _______ _______ _____ _____    ______ ____
ROOT
ATOM      1  N   LIG    1       27.941 -15.705   3.967  0.00  0.00    -0.312 N 
ATOM      2  H   LIG    1       28.099 -15.724   2.971  0.00  0.00    +0.149 HD
ENDROOT
BRANCH   1   3
ATOM      3  C   LIG    1       28.047 -16.868   4.666  0.00  0.00    +0.197 A 
ATOM      4  N   LIG    1       27.322 -18.006   4.343  0.00  0.00    -0.307 N 
ATOM      5  C   LIG    1       27.832 -19.052   5.094  0.00  0.00    +0.070 A 
ATOM      6  C   LIG    1       28.739 -18.433   5.950  0.00  0.00    +0.091 A 
ATOM      7  C   LIG    1       29.441 -19.199   6.891  0.00  0.00    +0.030 A 
ATOM      8  C   LIG    1       29.252 -20.585   6.910  0.00  0.00    +0.002 A 
ATOM      9  C   LIG    1       28.356 -21.191   6.029  0.00  0.00    +0.002 A 
ATOM     10  C   LIG    1       27.609 -20.436   5.114  0.00  0.00    +0.028 A 
ATOM     11  N   LIG    1       28.824 -17.090   5.692  0.00  0.00    -0.214 NA
BRANCH   4  12
ATOM     12  C   LIG    1       26.272 -18.135   3.346  0.00  0.00    +0.160 C 
BRANCH  12  13
ATOM     13  C   LIG    1       25.090 -18.954   3.824  0.00  0.00    -0.028 A 
ATOM     14  C   LIG    1       25.163 -20.355   3.925  0.00  0.00    +0.008 A 
ATOM     15  C   LIG    1       24.077 -21.093   4.403  0.00  0.00    +0.039 A 
ATOM     16  C   LIG    1       22.915 -20.438   4.788  0.00  0.00    +0.123 A 
ATOM     17  F   LIG    1       21.875 -21.146   5.247  0.00  0.00    -0.205 F 
ATOM     18  C   LIG    1       22.819 -19.055   4.706  0.00  0.00    +0.039 A 
ATOM     19  C   LIG    1       23.905 -18.314   4.228  0.00  0.00    +0.008 A 
ENDBRANCH  12  13
ENDBRANCH   4  12
ENDBRANCH   1   3
BRANCH   1  23
ATOM     20  N   LIG    1       26.805 -12.465   3.019  0.00  0.00    -0.302 NA
ATOM     21  C   LIG    1       28.055 -13.058   2.528  0.00  0.00    +0.086 C 
ATOM     22  C   LIG    1       29.021 -13.508   3.620  0.00  0.00    +0.037 C 
ATOM     23  C   LIG    1       28.349 -14.445   4.622  0.00  0.00    +0.075 C 
ATOM     24  C   LIG    1       27.158 -13.694   5.213  0.00  0.00    +0.037 C 
ATOM     25  C   LIG    1       26.188 -13.228   4.126  0.00  0.00    +0.086 C 
BRANCH  20  26
ATOM     26  C   LIG    1       25.811 -12.348   1.918  0.00  0.00    +0.089 C 
BRANCH  26  27
ATOM     27  C   LIG    1       24.361 -12.025   2.352  0.00  0.00    +0.050 C 
BRANCH  27  31
ATOM     28  C   LIG    1       22.740 -14.891   5.167  0.00  0.00    +0.120 A 
ATOM     29  C   LIG    1       22.985 -13.577   5.571  0.00  0.00    +0.046 A 
ATOM     30  C   LIG    1       23.531 -12.648   4.675  0.00  0.00    +0.007 A 
ATOM     31  C   LIG    1       23.833 -13.024   3.359  0.00  0.00    -0.046 A 
ATOM     32  C   LIG    1       23.625 -14.353   2.978  0.00  0.00    +0.007 A 
ATOM     33  C   LIG    1       23.079 -15.274   3.870  0.00  0.00    +0.046 A 
BRANCH  28  35
ATOM     34  C   LIG    1       21.292 -15.078   7.028  0.00  0.00    +0.277 C 
ATOM     35  O   LIG    1       22.173 -15.712   6.105  0.00  0.00    -0.495 OA
ENDBRANCH  28  35
ENDBRANCH  27  31
ENDBRANCH  26  27
ENDBRANCH  20  26
ENDBRANCH   1  23
TORSDOF 8
ENDMDL
