MODEL 1
REMARK VINA RESULT:       8.1      0.000      0.000
REMARK  Name = *****
REMARK                            x       y       z     vdW  Elec       q    Type
REMARK                         _______ _______ _______ _____ _____    ______ ____
ROOT
ATOM      1  C   LIG    1       19.257 -31.592  12.647  0.00  0.00    +0.045 C 
ATOM      2  C   LIG    1       20.443 -30.943  11.753  0.00  0.00    +0.083 C 
ATOM      3  N   LIG    1       21.154 -31.911  10.934  0.00  0.00    -0.294 NA
ATOM      4  C   LIG    1       22.185 -32.526  11.771  0.00  0.00    +0.086 C 
ATOM      5  C   LIG    1       22.387 -31.537  12.967  0.00  0.00    +0.030 C 
ATOM      6  C   LIG    1       20.282 -32.731  10.104  0.00  0.00    +0.112 C 
ATOM      7  C   LIG    1       18.806 -32.682  10.454  0.00  0.00    -0.015 C 
ATOM      8  C   LIG    1       21.574 -30.299  12.537  0.00  0.00    +0.037 C 
ATOM      9  C   LIG    1       20.888 -29.206  13.408  0.00  0.00    +0.140 C 
ATOM     10  C   LIG    1       19.593 -29.474  14.240  0.00  0.00    +0.220 C 
ATOM     11  N   LIG    1       22.011 -28.383  13.911  0.00  0.00    -0.266 N 
ATOM     12  C   LIG    1       22.171 -27.749  15.118  0.00  0.00    +0.333 C 
ATOM     13  O   LIG    1       23.121 -27.075  15.500  0.00  0.00    -0.279 OA
ATOM     14  C   LIG    1       22.959 -28.373  12.867  0.00  0.00    +0.044 A 
ATOM     15  C   LIG    1       24.062 -27.562  12.744  0.00  0.00    +0.069 A 
ATOM     16  C   LIG    1       25.036 -27.823  11.756  0.00  0.00    +0.127 A 
ATOM     17  C   LIG    1       24.854 -28.884  10.813  0.00  0.00    +0.017 A 
ATOM     18  C   LIG    1       23.646 -29.645  10.937  0.00  0.00    +0.014 A 
ATOM     19  C   LIG    1       22.703 -29.393  11.952  0.00  0.00    -0.016 A 
ATOM     20  C   LIG    1       18.582 -30.436  13.494  0.00  0.00    +0.232 C 
ATOM     21  C   LIG    1       18.309 -32.149  11.585  0.00  0.00    -0.018 C 
ENDROOT
BRANCH  17  22
ATOM     22  C   LIG    1       25.999 -29.348   9.811  0.00  0.00    +0.136 C 
ATOM     23  C   LIG    1       26.201 -28.387   8.531  0.00  0.00    +0.042 C 
ATOM     24  C   LIG    1       25.377 -27.759   7.556  0.00  0.00    -0.017 C 
ATOM     25  C   LIG    1       26.251 -27.125   6.593  0.00  0.00    +0.003 C 
ATOM     26  C   LIG    1       27.557 -27.418   6.942  0.00  0.00    +0.047 C 
ATOM     27  C   LIG    1       28.662 -27.000   6.186  0.00  0.00    +0.026 C 
ATOM     28  C   LIG    1       28.415 -26.235   5.042  0.00  0.00    +0.002 C 
ATOM     29  C   LIG    1       27.116 -25.908   4.670  0.00  0.00    +0.001 C 
ATOM     30  C   LIG    1       26.028 -26.351   5.432  0.00  0.00    +0.010 C 
ATOM     31  C   LIG    1       23.861 -27.688   7.361  0.00  0.00    +0.053 C 
ATOM     32  C   LIG    1       23.239 -28.749   6.365  0.00  0.00    +0.089 C 
ATOM     33  N   LIG    1       23.711 -30.108   6.570  0.00  0.00    -0.299 NA
ATOM     34  C   LIG    1       23.124 -31.249   5.882  0.00  0.00    +0.119 C 
ATOM     35  C   LIG    1       23.980 -32.567   6.176  0.00  0.00    +0.079 C 
ATOM     36  C   LIG    1       24.861 -32.565   7.499  0.00  0.00    +0.040 C 
ATOM     37  C   LIG    1       25.178 -31.130   7.953  0.00  0.00    +0.007 C 
ATOM     38  C   LIG    1       23.836 -30.449   7.964  0.00  0.00    +0.088 C 
ATOM     39  N   LIG    1       27.502 -28.156   8.092  0.00  0.00    -0.356 NA
ATOM     40  H   LIG    1       28.327 -28.510   8.563  0.00  0.00    +0.166 HD
ATOM     41  C   LIG    1       25.931 -30.890   9.267  0.00  0.00    +0.034 C 
BRANCH  22  42
ATOM     42  C   LIG    1       27.359 -29.454  10.642  0.00  0.00    +0.324 C 
ATOM     43  O   LIG    1       28.313 -28.684  10.540  0.00  0.00    -0.249 OA
BRANCH  42  44
ATOM     44  O   LIG    1       27.443 -30.641  11.325  0.00  0.00    -0.467 OA
ATOM     45  C   LIG    1       27.579 -30.530  12.749  0.00  0.00    +0.280 C 
ENDBRANCH  42  44
ENDBRANCH  22  42
BRANCH  35  46
ATOM     46  C   LIG    1       23.080 -33.825   6.129  0.00  0.00    +0.033 C 
ATOM     47  C   LIG    1       21.920 -33.823   7.124  0.00  0.00    +0.007 C 
ENDBRANCH  35  46
BRANCH  35  48
ATOM     48  O   LIG    1       24.923 -32.696   5.090  0.00  0.00    -0.387 OA
ATOM     49  H   LIG    1       25.678 -32.121   5.320  0.00  0.00    +0.210 HD
ENDBRANCH  35  48
ENDBRANCH  17  22
BRANCH   1  51
ATOM     50  C   LIG    1       20.686 -32.819  14.612  0.00  0.00    +0.005 C 
ATOM     51  C   LIG    1       19.590 -32.872  13.527  0.00  0.00    +0.013 C 
ENDBRANCH   1  51
BRANCH  10  52
ATOM     52  O   LIG    1       19.955 -30.034  15.500  0.00  0.00    -0.373 OA
ATOM     53  H   LIG    1       19.119 -30.306  15.933  0.00  0.00    +0.211 HD
ENDBRANCH  10  52
BRANCH  10  54
ATOM     54  C   LIG    1       18.880 -28.062  14.281  0.00  0.00    +0.345 C 
ATOM     55  O   LIG    1       19.427 -27.014  14.610  0.00  0.00    -0.247 OA
BRANCH  54  56
ATOM     56  O   LIG    1       17.551 -28.185  14.004  0.00  0.00    -0.466 OA
ATOM     57  C   LIG    1       16.765 -26.983  13.996  0.00  0.00    +0.280 C 
ENDBRANCH  54  56
ENDBRANCH  10  54
BRANCH  16  58
ATOM     58  O   LIG    1       26.204 -27.091  11.733  0.00  0.00    -0.495 OA
ATOM     59  C   LIG    1       26.765 -26.775  13.021  0.00  0.00    +0.277 C 
ENDBRANCH  16  58
BRANCH  20  60
ATOM     60  O   LIG    1       17.610 -31.080  14.385  0.00  0.00    -0.457 OA
BRANCH  60  61
ATOM     61  C   LIG    1       16.526 -31.784  13.976  0.00  0.00    +0.304 C 
ATOM     62  O   LIG    1       16.173 -32.844  14.407  0.00  0.00    -0.251 OA
ATOM     63  C   LIG    1       15.814 -31.037  12.868  0.00  0.00    +0.136 C 
ENDBRANCH  60  61
ENDBRANCH  20  60
TORSDOF 12
ENDMDL
