MODEL 1
REMARK VINA RESULT:      -3.3      0.000      0.000
REMARK  Name = *****
REMARK                            x       y       z     vdW  Elec       q    Type
REMARK                         _______ _______ _______ _____ _____    ______ ____
ROOT
ATOM      1  C   LIG    1       25.192 -14.344   3.699  0.00  0.00    +0.095 C 
ATOM      2  C   LIG    1       25.291 -13.774   5.141  0.00  0.00    +0.038 C 
ATOM      3  C   LIG    1       25.433 -12.252   5.191  0.00  0.00    +0.085 C 
ATOM      4  N   LIG    1       24.392 -11.530   4.465  0.00  0.00    -0.305 NA
ATOM      5  C   LIG    1       23.100 -11.554   5.145  0.00  0.00    +0.105 C 
ATOM      6  C   LIG    1       24.302 -11.987   3.079  0.00  0.00    +0.085 C 
ATOM      7  C   LIG    1       24.124 -13.503   2.937  0.00  0.00    +0.038 C 
ENDROOT
BRANCH   1   8
ATOM      8  C   LIG    1       24.796 -15.848   3.712  0.00  0.00    -0.030 A 
ATOM      9  C   LIG    1       25.710 -16.860   3.361  0.00  0.00    +0.005 A 
ATOM     10  C   LIG    1       25.338 -18.209   3.361  0.00  0.00    +0.000 A 
ATOM     11  C   LIG    1       24.052 -18.583   3.734  0.00  0.00    +0.000 A 
ATOM     12  C   LIG    1       23.139 -17.608   4.114  0.00  0.00    +0.000 A 
ATOM     13  C   LIG    1       23.509 -16.260   4.109  0.00  0.00    +0.005 A 
ENDBRANCH   1   8
BRANCH   1  14
ATOM     14  C   LIG    1       26.575 -14.192   3.016  0.00  0.00    +0.318 C 
ATOM     15  O   LIG    1       26.757 -14.104   1.812  0.00  0.00    -0.250 OA
BRANCH  14  16
ATOM     16  O   LIG    1       27.579 -14.151   3.949  0.00  0.00    -0.464 OA
BRANCH  16  18
ATOM     17  C   LIG    1       28.824 -12.206   4.699  0.00  0.00    +0.048 C 
ATOM     18  C   LIG    1       28.689 -13.292   3.648  0.00  0.00    +0.229 C 
ENDBRANCH  16  18
ENDBRANCH  14  16
ENDBRANCH   1  14
TORSDOF 4
ENDMDL
MODEL 2
REMARK VINA RESULT:      -2.4      1.097      1.580
REMARK  Name = *****
REMARK                            x       y       z     vdW  Elec       q    Type
REMARK                         _______ _______ _______ _____ _____    ______ ____
ROOT
ATOM      1  C   LIG    1       25.437 -14.291   3.692  0.00  0.00    +0.095 C 
ATOM      2  C   LIG    1       24.256 -13.442   4.239  0.00  0.00    +0.038 C 
ATOM      3  C   LIG    1       24.446 -11.936   4.056  0.00  0.00    +0.085 C 
ATOM      4  N   LIG    1       24.725 -11.532   2.680  0.00  0.00    -0.305 NA
ATOM      5  C   LIG    1       23.553 -11.615   1.812  0.00  0.00    +0.105 C 
ATOM      6  C   LIG    1       25.872 -12.260   2.139  0.00  0.00    +0.085 C 
ATOM      7  C   LIG    1       25.749 -13.783   2.253  0.00  0.00    +0.038 C 
ENDROOT
BRANCH   1   8
ATOM      8  C   LIG    1       25.082 -15.806   3.673  0.00  0.00    -0.030 A 
ATOM      9  C   LIG    1       26.027 -16.786   3.312  0.00  0.00    +0.005 A 
ATOM     10  C   LIG    1       25.692 -18.145   3.284  0.00  0.00    +0.000 A 
ATOM     11  C   LIG    1       24.413 -18.560   3.636  0.00  0.00    +0.000 A 
ATOM     12  C   LIG    1       23.470 -17.617   4.026  0.00  0.00    +0.000 A 
ATOM     13  C   LIG    1       23.803 -16.260   4.050  0.00  0.00    +0.005 A 
ENDBRANCH   1   8
BRANCH   1  14
ATOM     14  C   LIG    1       26.664 -14.073   4.613  0.00  0.00    +0.318 C 
ATOM     15  O   LIG    1       26.612 -13.694   5.773  0.00  0.00    -0.250 OA
BRANCH  14  16
ATOM     16  O   LIG    1       27.828 -14.380   3.958  0.00  0.00    -0.464 OA
BRANCH  16  18
ATOM     17  C   LIG    1       28.677 -12.289   4.856  0.00  0.00    +0.048 C 
ATOM     18  C   LIG    1       28.727 -13.286   3.715  0.00  0.00    +0.229 C 
ENDBRANCH  16  18
ENDBRANCH  14  16
ENDBRANCH   1  14
TORSDOF 4
ENDMDL
MODEL 3
REMARK VINA RESULT:      -2.4      4.033      6.466
REMARK  Name = *****
REMARK                            x       y       z     vdW  Elec       q    Type
REMARK                         _______ _______ _______ _____ _____    ______ ____
ROOT
ATOM      1  C   LIG    1       25.109 -19.932   4.518  0.00  0.00    +0.095 C 
ATOM      2  C   LIG    1       23.973 -19.334   5.394  0.00  0.00    +0.038 C 
ATOM      3  C   LIG    1       22.603 -19.349   4.716  0.00  0.00    +0.085 C 
ATOM      4  N   LIG    1       22.189 -20.664   4.234  0.00  0.00    -0.305 NA
ATOM      5  C   LIG    1       21.803 -21.572   5.312  0.00  0.00    +0.105 C 
ATOM      6  C   LIG    1       23.200 -21.245   3.352  0.00  0.00    +0.085 C 
ATOM      7  C   LIG    1       24.602 -21.298   3.967  0.00  0.00    +0.038 C 
ENDROOT
BRANCH   1   8
ATOM      8  C   LIG    1       26.415 -20.124   5.341  0.00  0.00    -0.030 A 
ATOM      9  C   LIG    1       26.537 -21.131   6.317  0.00  0.00    +0.005 A 
ATOM     10  C   LIG    1       27.713 -21.285   7.062  0.00  0.00    +0.000 A 
ATOM     11  C   LIG    1       28.802 -20.452   6.834  0.00  0.00    +0.000 A 
ATOM     12  C   LIG    1       28.720 -19.469   5.856  0.00  0.00    +0.000 A 
ATOM     13  C   LIG    1       27.545 -19.313   5.116  0.00  0.00    +0.005 A 
ENDBRANCH   1   8
BRANCH   1  14
ATOM     14  C   LIG    1       25.390 -18.956   3.348  0.00  0.00    +0.318 C 
ATOM     15  O   LIG    1       25.754 -19.288   2.230  0.00  0.00    -0.250 OA
BRANCH  14  16
ATOM     16  O   LIG    1       25.158 -17.659   3.725  0.00  0.00    -0.464 OA
BRANCH  16  18
ATOM     17  C   LIG    1       25.608 -15.282   3.512  0.00  0.00    +0.048 C 
ATOM     18  C   LIG    1       26.126 -16.690   3.293  0.00  0.00    +0.229 C 
ENDBRANCH  16  18
ENDBRANCH  14  16
ENDBRANCH   1  14
TORSDOF 4
ENDMDL
MODEL 4
REMARK VINA RESULT:      -2.2      1.710      3.445
REMARK  Name = *****
REMARK                            x       y       z     vdW  Elec       q    Type
REMARK                         _______ _______ _______ _____ _____    ______ ____
ROOT
ATOM      1  C   LIG    1       25.486 -14.790   3.755  0.00  0.00    +0.095 C 
ATOM      2  C   LIG    1       26.249 -14.331   2.482  0.00  0.00    +0.038 C 
ATOM      3  C   LIG    1       26.832 -12.921   2.591  0.00  0.00    +0.085 C 
ATOM      4  N   LIG    1       27.688 -12.717   3.757  0.00  0.00    -0.305 NA
ATOM      5  C   LIG    1       28.985 -13.378   3.636  0.00  0.00    +0.105 C 
ATOM      6  C   LIG    1       26.992 -13.077   4.992  0.00  0.00    +0.085 C 
ATOM      7  C   LIG    1       26.402 -14.491   4.981  0.00  0.00    +0.038 C 
ENDROOT
BRANCH   1   8
ATOM      8  C   LIG    1       25.138 -16.305   3.690  0.00  0.00    -0.030 A 
ATOM      9  C   LIG    1       23.841 -16.781   3.958  0.00  0.00    +0.005 A 
ATOM     10  C   LIG    1       23.542 -18.148   3.910  0.00  0.00    +0.000 A 
ATOM     11  C   LIG    1       24.526 -19.070   3.572  0.00  0.00    +0.000 A 
ATOM     12  C   LIG    1       25.807 -18.625   3.273  0.00  0.00    +0.000 A 
ATOM     13  C   LIG    1       26.107 -17.261   3.325  0.00  0.00    +0.005 A 
ENDBRANCH   1   8
BRANCH   1  14
ATOM     14  C   LIG    1       24.173 -13.975   3.860  0.00  0.00    +0.318 C 
ATOM     15  O   LIG    1       23.420 -13.978   4.822  0.00  0.00    -0.250 OA
BRANCH  14  16
ATOM     16  O   LIG    1       23.969 -13.228   2.730  0.00  0.00    -0.464 OA
BRANCH  16  18
ATOM     17  C   LIG    1       23.770 -11.480   4.405  0.00  0.00    +0.048 C 
ATOM     18  C   LIG    1       23.784 -11.817   2.926  0.00  0.00    +0.229 C 
ENDBRANCH  16  18
ENDBRANCH  14  16
ENDBRANCH   1  14
TORSDOF 4
ENDMDL
MODEL 5
REMARK VINA RESULT:      -2.2      1.710      3.256
REMARK  Name = *****
REMARK                            x       y       z     vdW  Elec       q    Type
REMARK                         _______ _______ _______ _____ _____    ______ ____
ROOT
ATOM      1  C   LIG    1       25.504 -14.781   3.754  0.00  0.00    +0.095 C 
ATOM      2  C   LIG    1       26.260 -14.311   2.479  0.00  0.00    +0.038 C 
ATOM      3  C   LIG    1       26.841 -12.902   2.595  0.00  0.00    +0.085 C 
ATOM      4  N   LIG    1       27.701 -12.703   3.758  0.00  0.00    -0.305 NA
ATOM      5  C   LIG    1       28.999 -13.361   3.627  0.00  0.00    +0.105 C 
ATOM      6  C   LIG    1       27.012 -13.072   4.994  0.00  0.00    +0.085 C 
ATOM      7  C   LIG    1       26.424 -14.488   4.976  0.00  0.00    +0.038 C 
ENDROOT
BRANCH   1   8
ATOM      8  C   LIG    1       25.158 -16.295   3.680  0.00  0.00    -0.030 A 
ATOM      9  C   LIG    1       26.125 -17.263   3.347  0.00  0.00    +0.005 A 
ATOM     10  C   LIG    1       25.798 -18.622   3.268  0.00  0.00    +0.000 A 
ATOM     11  C   LIG    1       24.505 -19.050   3.542  0.00  0.00    +0.000 A 
ATOM     12  C   LIG    1       23.538 -18.120   3.903  0.00  0.00    +0.000 A 
ATOM     13  C   LIG    1       23.863 -16.763   3.977  0.00  0.00    +0.005 A 
ENDBRANCH   1   8
BRANCH   1  14
ATOM     14  C   LIG    1       24.189 -13.969   3.870  0.00  0.00    +0.318 C 
ATOM     15  O   LIG    1       23.448 -13.969   4.841  0.00  0.00    -0.250 OA
BRANCH  14  16
ATOM     16  O   LIG    1       23.969 -13.228   2.738  0.00  0.00    -0.464 OA
BRANCH  16  18
ATOM     17  C   LIG    1       23.776 -11.474   4.406  0.00  0.00    +0.048 C 
ATOM     18  C   LIG    1       23.780 -11.818   2.929  0.00  0.00    +0.229 C 
ENDBRANCH  16  18
ENDBRANCH  14  16
ENDBRANCH   1  14
TORSDOF 4
ENDMDL
MODEL 6
REMARK VINA RESULT:      -0.8      1.980      3.810
REMARK  Name = *****
REMARK                            x       y       z     vdW  Elec       q    Type
REMARK                         _______ _______ _______ _____ _____    ______ ____
ROOT
ATOM      1  C   LIG    1       25.543 -14.982   3.714  0.00  0.00    +0.095 C 
ATOM      2  C   LIG    1       26.278 -14.455   2.450  0.00  0.00    +0.038 C 
ATOM      3  C   LIG    1       26.724 -12.996   2.564  0.00  0.00    +0.085 C 
ATOM      4  N   LIG    1       27.538 -12.710   3.742  0.00  0.00    -0.305 NA
ATOM      5  C   LIG    1       28.894 -13.246   3.643  0.00  0.00    +0.105 C 
ATOM      6  C   LIG    1       26.861 -13.132   4.967  0.00  0.00    +0.085 C 
ATOM      7  C   LIG    1       26.407 -14.596   4.952  0.00  0.00    +0.038 C 
ENDROOT
BRANCH   1   8
ATOM      8  C   LIG    1       25.340 -16.523   3.648  0.00  0.00    -0.030 A 
ATOM      9  C   LIG    1       24.063 -17.109   3.734  0.00  0.00    +0.005 A 
ATOM     10  C   LIG    1       23.894 -18.498   3.688  0.00  0.00    +0.000 A 
ATOM     11  C   LIG    1       24.994 -19.334   3.533  0.00  0.00    +0.000 A 
ATOM     12  C   LIG    1       26.263 -18.781   3.415  0.00  0.00    +0.000 A 
ATOM     13  C   LIG    1       26.432 -17.395   3.465  0.00  0.00    +0.005 A 
ENDBRANCH   1   8
BRANCH   1  14
ATOM     14  C   LIG    1       24.157 -14.295   3.796  0.00  0.00    +0.318 C 
ATOM     15  O   LIG    1       23.612 -13.702   2.877  0.00  0.00    -0.250 OA
BRANCH  14  16
ATOM     16  O   LIG    1       23.604 -14.454   5.040  0.00  0.00    -0.464 OA
BRANCH  16  18
ATOM     17  C   LIG    1       21.833 -15.236   6.506  0.00  0.00    +0.048 C 
ATOM     18  C   LIG    1       22.428 -15.275   5.112  0.00  0.00    +0.229 C 
ENDBRANCH  16  18
ENDBRANCH  14  16
ENDBRANCH   1  14
TORSDOF 4
ENDMDL
MODEL 7
REMARK VINA RESULT:      -0.6      1.596      2.143
REMARK  Name = *****
REMARK                            x       y       z     vdW  Elec       q    Type
REMARK                         _______ _______ _______ _____ _____    ______ ____
ROOT
ATOM      1  C   LIG    1       24.962 -14.416   3.751  0.00  0.00    +0.095 C 
ATOM      2  C   LIG    1       24.124 -13.259   4.363  0.00  0.00    +0.038 C 
ATOM      3  C   LIG    1       24.659 -11.867   4.021  0.00  0.00    +0.085 C 
ATOM      4  N   LIG    1       24.828 -11.626   2.591  0.00  0.00    -0.305 NA
ATOM      5  C   LIG    1       23.559 -11.447   1.888  0.00  0.00    +0.105 C 
ATOM      6  C   LIG    1       25.664 -12.657   1.977  0.00  0.00    +0.085 C 
ATOM      7  C   LIG    1       25.180 -14.087   2.243  0.00  0.00    +0.038 C 
ENDROOT
BRANCH   1   8
ATOM      8  C   LIG    1       24.239 -15.784   3.913  0.00  0.00    -0.030 A 
ATOM      9  C   LIG    1       24.864 -16.999   3.574  0.00  0.00    +0.005 A 
ATOM     10  C   LIG    1       24.198 -18.223   3.710  0.00  0.00    +0.000 A 
ATOM     11  C   LIG    1       22.901 -18.265   4.209  0.00  0.00    +0.000 A 
ATOM     12  C   LIG    1       22.272 -17.084   4.580  0.00  0.00    +0.000 A 
ATOM     13  C   LIG    1       22.935 -15.862   4.440  0.00  0.00    +0.005 A 
ENDBRANCH   1   8
BRANCH   1  14
ATOM     14  C   LIG    1       26.325 -14.476   4.486  0.00  0.00    +0.318 C 
ATOM     15  O   LIG    1       26.550 -13.996   5.586  0.00  0.00    -0.250 OA
BRANCH  14  16
ATOM     16  O   LIG    1       27.252 -15.160   3.743  0.00  0.00    -0.464 OA
BRANCH  16  18
ATOM     17  C   LIG    1       28.019 -17.341   4.486  0.00  0.00    +0.048 C 
ATOM     18  C   LIG    1       28.274 -15.846   4.482  0.00  0.00    +0.229 C 
ENDBRANCH  16  18
ENDBRANCH  14  16
ENDBRANCH   1  14
TORSDOF 4
ENDMDL
MODEL 8
REMARK VINA RESULT:      -0.5      3.966      6.588
REMARK  Name = *****
REMARK                            x       y       z     vdW  Elec       q    Type
REMARK                         _______ _______ _______ _____ _____    ______ ____
ROOT
ATOM      1  C   LIG    1       24.493 -19.305   4.419  0.00  0.00    +0.095 C 
ATOM      2  C   LIG    1       23.925 -20.097   3.208  0.00  0.00    +0.038 C 
ATOM      3  C   LIG    1       23.464 -21.512   3.563  0.00  0.00    +0.085 C 
ATOM      4  N   LIG    1       22.504 -21.570   4.661  0.00  0.00    -0.305 NA
ATOM      5  C   LIG    1       21.174 -21.098   4.283  0.00  0.00    +0.105 C 
ATOM      6  C   LIG    1       23.020 -20.890   5.849  0.00  0.00    +0.085 C 
ATOM      7  C   LIG    1       23.476 -19.450   5.590  0.00  0.00    +0.038 C 
ENDROOT
BRANCH   1   8
ATOM      8  C   LIG    1       24.707 -17.806   4.063  0.00  0.00    -0.030 A 
ATOM      9  C   LIG    1       25.908 -17.342   3.492  0.00  0.00    +0.005 A 
ATOM     10  C   LIG    1       26.095 -15.988   3.190  0.00  0.00    +0.000 A 
ATOM     11  C   LIG    1       25.080 -15.069   3.429  0.00  0.00    +0.000 A 
ATOM     12  C   LIG    1       23.874 -15.504   3.963  0.00  0.00    +0.000 A 
ATOM     13  C   LIG    1       23.689 -16.855   4.269  0.00  0.00    +0.005 A 
ENDBRANCH   1   8
BRANCH   1  14
ATOM     14  C   LIG    1       25.855 -19.928   4.816  0.00  0.00    +0.318 C 
ATOM     15  O   LIG    1       26.740 -20.237   4.032  0.00  0.00    -0.250 OA
BRANCH  14  16
ATOM     16  O   LIG    1       25.950 -20.074   6.175  0.00  0.00    -0.464 OA
BRANCH  16  18
ATOM     17  C   LIG    1       28.211 -19.996   7.057  0.00  0.00    +0.048 C 
ATOM     18  C   LIG    1       27.042 -20.874   6.653  0.00  0.00    +0.229 C 
ENDBRANCH  16  18
ENDBRANCH  14  16
ENDBRANCH   1  14
TORSDOF 4
ENDMDL
MODEL 9
REMARK VINA RESULT:      -0.3      3.993      6.717
REMARK  Name = *****
REMARK                            x       y       z     vdW  Elec       q    Type
REMARK                         _______ _______ _______ _____ _____    ______ ____
ROOT
ATOM      1  C   LIG    1       24.465 -19.332   4.448  0.00  0.00    +0.095 C 
ATOM      2  C   LIG    1       23.879 -20.130   3.250  0.00  0.00    +0.038 C 
ATOM      3  C   LIG    1       23.403 -21.535   3.623  0.00  0.00    +0.085 C 
ATOM      4  N   LIG    1       22.450 -21.570   4.729  0.00  0.00    -0.305 NA
ATOM      5  C   LIG    1       21.123 -21.086   4.354  0.00  0.00    +0.105 C 
ATOM      6  C   LIG    1       22.982 -20.884   5.905  0.00  0.00    +0.085 C 
ATOM      7  C   LIG    1       23.454 -19.452   5.628  0.00  0.00    +0.038 C 
ENDROOT
BRANCH   1   8
ATOM      8  C   LIG    1       24.695 -17.840   4.075  0.00  0.00    -0.030 A 
ATOM      9  C   LIG    1       23.699 -16.864   4.267  0.00  0.00    +0.005 A 
ATOM     10  C   LIG    1       23.912 -15.526   3.913  0.00  0.00    +0.000 A 
ATOM     11  C   LIG    1       25.132 -15.127   3.379  0.00  0.00    +0.000 A 
ATOM     12  C   LIG    1       26.143 -16.064   3.207  0.00  0.00    +0.000 A 
ATOM     13  C   LIG    1       25.928 -17.400   3.556  0.00  0.00    +0.005 A 
ENDBRANCH   1   8
BRANCH   1  14
ATOM     14  C   LIG    1       25.822 -19.968   4.843  0.00  0.00    +0.318 C 
ATOM     15  O   LIG    1       26.718 -20.251   4.062  0.00  0.00    -0.250 OA
BRANCH  14  16
ATOM     16  O   LIG    1       25.898 -20.157   6.198  0.00  0.00    -0.464 OA
BRANCH  16  18
ATOM     17  C   LIG    1       28.172 -20.133   7.052  0.00  0.00    +0.048 C 
ATOM     18  C   LIG    1       26.977 -20.983   6.664  0.00  0.00    +0.229 C 
ENDBRANCH  16  18
ENDBRANCH  14  16
ENDBRANCH   1  14
TORSDOF 4
ENDMDL
