MODEL 1
REMARK VINA RESULT:      -9.0      0.000      0.000
REMARK  Name = *****
REMARK                            x       y       z     vdW  Elec       q    Type
REMARK                         _______ _______ _______ _____ _____    ______ ____
ROOT
ATOM      1  C   LIG    1       24.355 -22.429   6.786  0.00  0.00    +0.190 C 
ENDROOT
BRANCH   1   2
ATOM      2  C   LIG    1       24.007 -21.325   5.769  0.00  0.00    -0.005 A 
ATOM      3  C   LIG    1       24.610 -21.278   4.501  0.00  0.00    +0.007 A 
ATOM      4  C   LIG    1       24.267 -20.298   3.565  0.00  0.00    +0.000 A 
ATOM      5  C   LIG    1       23.311 -19.338   3.876  0.00  0.00    +0.000 A 
ATOM      6  C   LIG    1       22.703 -19.354   5.127  0.00  0.00    +0.000 A 
ATOM      7  C   LIG    1       23.044 -20.338   6.060  0.00  0.00    +0.007 A 
ENDBRANCH   1   2
BRANCH   1   8
ATOM      8  C   LIG    1       24.847 -23.744   6.125  0.00  0.00    +0.036 C 
ATOM      9  C   LIG    1       25.944 -24.464   6.932  0.00  0.00    +0.007 C 
ATOM     10  C   LIG    1       25.915 -25.878   6.379  0.00  0.00    +0.000 C 
ATOM     11  C   LIG    1       24.431 -26.171   6.243  0.00  0.00    +0.000 C 
ATOM     12  C   LIG    1       23.768 -24.829   5.933  0.00  0.00    +0.007 C 
ENDBRANCH   1   8
BRANCH   1  13
ATOM     13  C   LIG    1       25.450 -21.931   7.793  0.00  0.00    +0.344 C 
ATOM     14  O   LIG    1       25.261 -21.794   8.990  0.00  0.00    -0.247 OA
BRANCH  13  15
ATOM     15  O   LIG    1       26.632 -21.618   7.158  0.00  0.00    -0.454 OA
BRANCH  15  19
ATOM     16  C   LIG    1       30.318 -18.992   7.719  0.00  0.00    +0.192 C 
ATOM     17  N   LIG    1       29.377 -20.185   7.608  0.00  0.00    +0.242 N 
ATOM     18  C   LIG    1       27.977 -19.866   8.217  0.00  0.00    +0.178 C 
ATOM     19  C   LIG    1       26.958 -20.208   7.118  0.00  0.00    +0.226 C 
ATOM     20  C   LIG    1       27.732 -19.891   5.853  0.00  0.00    +0.101 C 
ATOM     21  C   LIG    1       29.105 -20.480   6.122  0.00  0.00    +0.136 C 
ATOM     22  C   LIG    1       30.015 -21.378   8.308  0.00  0.00    +0.192 C 
ENDBRANCH  15  19
ENDBRANCH  13  15
ENDBRANCH   1  13
BRANCH   1  23
ATOM     23  O   LIG    1       23.162 -22.744   7.523  0.00  0.00    -0.373 OA
ATOM     24  H   LIG    1       22.396 -22.509   6.965  0.00  0.00    +0.211 HD
ENDBRANCH   1  23
TORSDOF 6
ENDMDL
MODEL 2
REMARK VINA RESULT:      -8.8      1.067      1.599
REMARK  Name = *****
REMARK                            x       y       z     vdW  Elec       q    Type
REMARK                         _______ _______ _______ _____ _____    ______ ____
ROOT
ATOM      1  C   LIG    1       24.756 -21.659   6.890  0.00  0.00    +0.190 C 
ENDROOT
BRANCH   1   2
ATOM      2  C   LIG    1       24.243 -20.662   5.832  0.00  0.00    -0.005 A 
ATOM      3  C   LIG    1       25.044 -20.266   4.747  0.00  0.00    +0.007 A 
ATOM      4  C   LIG    1       24.565 -19.390   3.768  0.00  0.00    +0.000 A 
ATOM      5  C   LIG    1       23.271 -18.889   3.851  0.00  0.00    +0.000 A 
ATOM      6  C   LIG    1       22.458 -19.257   4.917  0.00  0.00    +0.000 A 
ATOM      7  C   LIG    1       22.938 -20.136   5.893  0.00  0.00    +0.007 A 
ENDBRANCH   1   2
BRANCH   1   8
ATOM      8  C   LIG    1       25.475 -22.892   6.279  0.00  0.00    +0.036 C 
ATOM      9  C   LIG    1       25.770 -24.001   7.306  0.00  0.00    +0.007 C 
ATOM     10  C   LIG    1       26.012 -25.224   6.440  0.00  0.00    +0.000 C 
ATOM     11  C   LIG    1       24.933 -25.121   5.377  0.00  0.00    +0.000 C 
ATOM     12  C   LIG    1       24.696 -23.625   5.168  0.00  0.00    +0.007 C 
ENDBRANCH   1   8
BRANCH   1  13
ATOM     13  C   LIG    1       25.733 -20.950   7.891  0.00  0.00    +0.344 C 
ATOM     14  O   LIG    1       25.536 -20.870   9.092  0.00  0.00    -0.247 OA
BRANCH  13  15
ATOM     15  O   LIG    1       26.814 -20.387   7.247  0.00  0.00    -0.454 OA
BRANCH  15  19
ATOM     16  C   LIG    1       31.216 -19.341   6.684  0.00  0.00    +0.192 C 
ATOM     17  N   LIG    1       29.694 -19.311   6.664  0.00  0.00    +0.242 N 
ATOM     18  C   LIG    1       29.098 -20.735   6.435  0.00  0.00    +0.178 C 
ATOM     19  C   LIG    1       28.100 -20.957   7.584  0.00  0.00    +0.226 C 
ATOM     20  C   LIG    1       28.735 -20.173   8.716  0.00  0.00    +0.101 C 
ATOM     21  C   LIG    1       29.176 -18.883   8.049  0.00  0.00    +0.136 C 
ATOM     22  C   LIG    1       29.237 -18.350   5.574  0.00  0.00    +0.192 C 
ENDBRANCH  15  19
ENDBRANCH  13  15
ENDBRANCH   1  13
BRANCH   1  23
ATOM     23  O   LIG    1       23.621 -22.149   7.623  0.00  0.00    -0.373 OA
ATOM     24  H   LIG    1       23.634 -21.732   8.506  0.00  0.00    +0.211 HD
ENDBRANCH   1  23
TORSDOF 6
ENDMDL
MODEL 3
REMARK VINA RESULT:      -8.0      1.472      3.864
REMARK  Name = *****
REMARK                            x       y       z     vdW  Elec       q    Type
REMARK                         _______ _______ _______ _____ _____    ______ ____
ROOT
ATOM      1  C   LIG    1       25.789 -21.116   6.163  0.00  0.00    +0.190 C 
ENDROOT
BRANCH   1   2
ATOM      2  C   LIG    1       25.561 -22.640   6.154  0.00  0.00    -0.005 A 
ATOM      3  C   LIG    1       24.993 -23.290   5.045  0.00  0.00    +0.007 A 
ATOM      4  C   LIG    1       24.818 -24.677   5.022  0.00  0.00    +0.000 A 
ATOM      5  C   LIG    1       25.210 -25.449   6.111  0.00  0.00    +0.000 A 
ATOM      6  C   LIG    1       25.767 -24.832   7.225  0.00  0.00    +0.000 A 
ATOM      7  C   LIG    1       25.944 -23.445   7.244  0.00  0.00    +0.007 A 
ENDBRANCH   1   2
BRANCH   1   8
ATOM      8  C   LIG    1       24.482 -20.294   6.012  0.00  0.00    +0.036 C 
ATOM      9  C   LIG    1       24.272 -19.728   4.595  0.00  0.00    +0.007 C 
ATOM     10  C   LIG    1       22.790 -19.404   4.562  0.00  0.00    +0.000 C 
ATOM     11  C   LIG    1       22.154 -20.595   5.256  0.00  0.00    +0.000 C 
ATOM     12  C   LIG    1       23.179 -21.072   6.287  0.00  0.00    +0.007 C 
ENDBRANCH   1   8
BRANCH   1  13
ATOM     13  C   LIG    1       26.514 -20.671   7.481  0.00  0.00    +0.344 C 
ATOM     14  O   LIG    1       25.934 -20.413   8.523  0.00  0.00    -0.247 OA
BRANCH  13  15
ATOM     15  O   LIG    1       27.877 -20.558   7.308  0.00  0.00    -0.454 OA
BRANCH  15  19
ATOM     16  C   LIG    1       31.818 -18.640   8.566  0.00  0.00    +0.192 C 
ATOM     17  N   LIG    1       30.730 -19.646   8.212  0.00  0.00    +0.242 N 
ATOM     18  C   LIG    1       29.330 -19.170   8.709  0.00  0.00    +0.178 C 
ATOM     19  C   LIG    1       28.412 -19.224   7.476  0.00  0.00    +0.226 C 
ATOM     20  C   LIG    1       29.372 -18.905   6.347  0.00  0.00    +0.101 C 
ATOM     21  C   LIG    1       30.599 -19.734   6.681  0.00  0.00    +0.136 C 
ATOM     22  C   LIG    1       31.093 -20.994   8.822  0.00  0.00    +0.192 C 
ENDBRANCH  15  19
ENDBRANCH  13  15
ENDBRANCH   1  13
BRANCH   1  23
ATOM     23  O   LIG    1       26.629 -20.788   5.043  0.00  0.00    -0.373 OA
ATOM     24  H   LIG    1       26.589 -21.532   4.413  0.00  0.00    +0.211 HD
ENDBRANCH   1  23
TORSDOF 6
ENDMDL
MODEL 4
REMARK VINA RESULT:      -7.6      1.353      2.514
REMARK  Name = *****
REMARK                            x       y       z     vdW  Elec       q    Type
REMARK                         _______ _______ _______ _____ _____    ______ ____
ROOT
ATOM      1  C   LIG    1       25.789 -20.954   6.509  0.00  0.00    +0.190 C 
ENDROOT
BRANCH   1   2
ATOM      2  C   LIG    1       24.674 -20.326   5.651  0.00  0.00    -0.005 A 
ATOM      3  C   LIG    1       23.366 -20.175   6.143  0.00  0.00    +0.007 A 
ATOM      4  C   LIG    1       22.363 -19.572   5.378  0.00  0.00    +0.000 A 
ATOM      5  C   LIG    1       22.645 -19.105   4.099  0.00  0.00    +0.000 A 
ATOM      6  C   LIG    1       23.927 -19.249   3.582  0.00  0.00    +0.000 A 
ATOM      7  C   LIG    1       24.930 -19.848   4.351  0.00  0.00    +0.007 A 
ENDBRANCH   1   2
BRANCH   1   8
ATOM      8  C   LIG    1       25.953 -22.481   6.287  0.00  0.00    +0.036 C 
ATOM      9  C   LIG    1       25.982 -23.293   7.596  0.00  0.00    +0.007 C 
ATOM     10  C   LIG    1       25.673 -24.707   7.139  0.00  0.00    +0.000 C 
ATOM     11  C   LIG    1       24.565 -24.512   6.119  0.00  0.00    +0.000 C 
ATOM     12  C   LIG    1       24.831 -23.153   5.470  0.00  0.00    +0.007 C 
ENDBRANCH   1   8
BRANCH   1  13
ATOM     13  C   LIG    1       27.164 -20.254   6.231  0.00  0.00    +0.344 C 
ATOM     14  O   LIG    1       27.437 -19.681   5.189  0.00  0.00    -0.247 OA
BRANCH  13  15
ATOM     15  O   LIG    1       28.044 -20.407   7.281  0.00  0.00    -0.454 OA
BRANCH  15  19
ATOM     16  C   LIG    1       32.044 -18.511   8.376  0.00  0.00    +0.192 C 
ATOM     17  N   LIG    1       30.563 -18.863   8.311  0.00  0.00    +0.242 N 
ATOM     18  C   LIG    1       30.115 -19.173   6.849  0.00  0.00    +0.178 C 
ATOM     19  C   LIG    1       29.434 -20.551   6.907  0.00  0.00    +0.226 C 
ATOM     20  C   LIG    1       30.201 -21.241   8.018  0.00  0.00    +0.101 C 
ATOM     21  C   LIG    1       30.317 -20.169   9.086  0.00  0.00    +0.136 C 
ATOM     22  C   LIG    1       29.758 -17.707   8.891  0.00  0.00    +0.192 C 
ENDBRANCH  15  19
ENDBRANCH  13  15
ENDBRANCH   1  13
BRANCH   1  23
ATOM     23  O   LIG    1       25.445 -20.760   7.892  0.00  0.00    -0.373 OA
ATOM     24  H   LIG    1       24.494 -20.543   7.935  0.00  0.00    +0.211 HD
ENDBRANCH   1  23
TORSDOF 6
ENDMDL
MODEL 5
REMARK VINA RESULT:      -7.6      1.393      4.119
REMARK  Name = *****
REMARK                            x       y       z     vdW  Elec       q    Type
REMARK                         _______ _______ _______ _____ _____    ______ ____
ROOT
ATOM      1  C   LIG    1       24.727 -21.142   5.850  0.00  0.00    +0.190 C 
ENDROOT
BRANCH   1   2
ATOM      2  C   LIG    1       24.480 -22.662   5.916  0.00  0.00    -0.005 A 
ATOM      3  C   LIG    1       23.478 -23.207   6.737  0.00  0.00    +0.007 A 
ATOM      4  C   LIG    1       23.230 -24.583   6.770  0.00  0.00    +0.000 A 
ATOM      5  C   LIG    1       23.979 -25.447   5.979  0.00  0.00    +0.000 A 
ATOM      6  C   LIG    1       24.982 -24.937   5.163  0.00  0.00    +0.000 A 
ATOM      7  C   LIG    1       25.226 -23.561   5.129  0.00  0.00    +0.007 A 
ENDBRANCH   1   2
BRANCH   1   8
ATOM      8  C   LIG    1       23.426 -20.310   5.700  0.00  0.00    +0.036 C 
ATOM      9  C   LIG    1       23.552 -19.147   4.698  0.00  0.00    +0.007 C 
ATOM     10  C   LIG    1       22.110 -18.807   4.372  0.00  0.00    +0.000 C 
ATOM     11  C   LIG    1       21.451 -20.168   4.231  0.00  0.00    +0.000 C 
ATOM     12  C   LIG    1       22.198 -21.093   5.192  0.00  0.00    +0.007 C 
ENDBRANCH   1   8
BRANCH   1  13
ATOM     13  C   LIG    1       25.496 -20.649   7.126  0.00  0.00    +0.344 C 
ATOM     14  O   LIG    1       25.039 -20.696   8.256  0.00  0.00    -0.247 OA
BRANCH  13  15
ATOM     15  O   LIG    1       26.725 -20.111   6.812  0.00  0.00    -0.454 OA
BRANCH  15  19
ATOM     16  C   LIG    1       31.244 -19.548   7.057  0.00  0.00    +0.192 C 
ATOM     17  N   LIG    1       29.759 -19.346   6.781  0.00  0.00    +0.242 N 
ATOM     18  C   LIG    1       29.067 -20.685   6.379  0.00  0.00    +0.178 C 
ATOM     19  C   LIG    1       27.867 -20.834   7.330  0.00  0.00    +0.226 C 
ATOM     20  C   LIG    1       28.374 -20.166   8.593  0.00  0.00    +0.101 C 
ATOM     21  C   LIG    1       29.056 -18.911   8.080  0.00  0.00    +0.136 C 
ATOM     22  C   LIG    1       29.603 -18.303   5.683  0.00  0.00    +0.192 C 
ENDBRANCH  15  19
ENDBRANCH  13  15
ENDBRANCH   1  13
BRANCH   1  23
ATOM     23  O   LIG    1       25.538 -20.876   4.693  0.00  0.00    -0.373 OA
ATOM     24  H   LIG    1       26.101 -21.658   4.537  0.00  0.00    +0.211 HD
ENDBRANCH   1  23
TORSDOF 6
ENDMDL
MODEL 6
REMARK VINA RESULT:      -7.4      2.322      5.871
REMARK  Name = *****
REMARK                            x       y       z     vdW  Elec       q    Type
REMARK                         _______ _______ _______ _____ _____    ______ ____
ROOT
ATOM      1  C   LIG    1       23.941 -21.567   5.492  0.00  0.00    +0.190 C 
ENDROOT
BRANCH   1   2
ATOM      2  C   LIG    1       25.090 -21.058   6.384  0.00  0.00    -0.005 A 
ATOM      3  C   LIG    1       24.971 -21.021   7.784  0.00  0.00    +0.007 A 
ATOM      4  C   LIG    1       26.027 -20.594   8.595  0.00  0.00    +0.000 A 
ATOM      5  C   LIG    1       27.229 -20.193   8.024  0.00  0.00    +0.000 A 
ATOM      6  C   LIG    1       27.373 -20.210   6.641  0.00  0.00    +0.000 A 
ATOM      7  C   LIG    1       26.318 -20.642   5.832  0.00  0.00    +0.007 A 
ENDBRANCH   1   2
BRANCH   1   8
ATOM      8  C   LIG    1       23.299 -20.456   4.618  0.00  0.00    +0.036 C 
ATOM      9  C   LIG    1       22.490 -19.427   5.429  0.00  0.00    +0.007 C 
ATOM     10  C   LIG    1       22.379 -18.245   4.484  0.00  0.00    +0.000 C 
ATOM     11  C   LIG    1       23.765 -18.153   3.871  0.00  0.00    +0.000 C 
ATOM     12  C   LIG    1       24.293 -19.588   3.821  0.00  0.00    +0.007 C 
ENDBRANCH   1   8
BRANCH   1  13
ATOM     13  C   LIG    1       24.437 -22.723   4.554  0.00  0.00    +0.344 C 
ATOM     14  O   LIG    1       24.125 -22.826   3.379  0.00  0.00    -0.247 OA
BRANCH  13  15
ATOM     15  O   LIG    1       25.222 -23.633   5.227  0.00  0.00    -0.454 OA
BRANCH  15  19
ATOM     16  C   LIG    1       24.909 -28.009   6.469  0.00  0.00    +0.192 C 
ATOM     17  N   LIG    1       25.286 -26.716   5.758  0.00  0.00    +0.242 N 
ATOM     18  C   LIG    1       24.065 -25.751   5.646  0.00  0.00    +0.178 C 
ATOM     19  C   LIG    1       24.538 -24.412   6.237  0.00  0.00    +0.226 C 
ATOM     20  C   LIG    1       25.522 -24.861   7.300  0.00  0.00    +0.101 C 
ATOM     21  C   LIG    1       26.318 -25.952   6.607  0.00  0.00    +0.136 C 
ATOM     22  C   LIG    1       25.837 -27.057   4.380  0.00  0.00    +0.192 C 
ENDBRANCH  15  19
ENDBRANCH  13  15
ENDBRANCH   1  13
BRANCH   1  23
ATOM     23  O   LIG    1       22.909 -22.082   6.350  0.00  0.00    -0.373 OA
ATOM     24  H   LIG    1       22.386 -21.324   6.675  0.00  0.00    +0.211 HD
ENDBRANCH   1  23
TORSDOF 6
ENDMDL
MODEL 7
REMARK VINA RESULT:      -7.3      2.149      5.379
REMARK  Name = *****
REMARK                            x       y       z     vdW  Elec       q    Type
REMARK                         _______ _______ _______ _____ _____    ______ ____
ROOT
ATOM      1  C   LIG    1       23.666 -21.624   6.879  0.00  0.00    +0.190 C 
ENDROOT
BRANCH   1   2
ATOM      2  C   LIG    1       25.143 -21.232   7.072  0.00  0.00    -0.005 A 
ATOM      3  C   LIG    1       25.937 -20.808   5.993  0.00  0.00    +0.007 A 
ATOM      4  C   LIG    1       27.267 -20.417   6.173  0.00  0.00    +0.000 A 
ATOM      5  C   LIG    1       27.836 -20.440   7.442  0.00  0.00    +0.000 A 
ATOM      6  C   LIG    1       27.077 -20.862   8.528  0.00  0.00    +0.000 A 
ATOM      7  C   LIG    1       25.746 -21.249   8.345  0.00  0.00    +0.007 A 
ENDBRANCH   1   2
BRANCH   1   8
ATOM      8  C   LIG    1       23.031 -21.028   5.594  0.00  0.00    +0.036 C 
ATOM      9  C   LIG    1       22.676 -19.535   5.719  0.00  0.00    +0.007 C 
ATOM     10  C   LIG    1       22.538 -19.085   4.277  0.00  0.00    +0.000 C 
ATOM     11  C   LIG    1       23.699 -19.772   3.581  0.00  0.00    +0.000 C 
ATOM     12  C   LIG    1       23.917 -21.085   4.333  0.00  0.00    +0.007 C 
ENDBRANCH   1   8
BRANCH   1  13
ATOM     13  C   LIG    1       23.506 -23.184   6.843  0.00  0.00    +0.344 C 
ATOM     14  O   LIG    1       22.437 -23.756   6.706  0.00  0.00    -0.247 OA
BRANCH  13  15
ATOM     15  O   LIG    1       24.708 -23.831   7.036  0.00  0.00    -0.454 OA
BRANCH  15  19
ATOM     16  C   LIG    1       26.485 -27.487   4.969  0.00  0.00    +0.192 C 
ATOM     17  N   LIG    1       25.763 -26.568   5.947  0.00  0.00    +0.242 N 
ATOM     18  C   LIG    1       26.509 -25.206   6.105  0.00  0.00    +0.178 C 
ATOM     19  C   LIG    1       25.454 -24.121   5.830  0.00  0.00    +0.226 C 
ATOM     20  C   LIG    1       24.554 -24.799   4.815  0.00  0.00    +0.101 C 
ATOM     21  C   LIG    1       24.383 -26.200   5.373  0.00  0.00    +0.136 C 
ATOM     22  C   LIG    1       25.641 -27.279   7.288  0.00  0.00    +0.192 C 
ENDBRANCH  15  19
ENDBRANCH  13  15
ENDBRANCH   1  13
BRANCH   1  23
ATOM     23  O   LIG    1       22.921 -21.112   7.997  0.00  0.00    -0.373 OA
ATOM     24  H   LIG    1       23.554 -20.682   8.604  0.00  0.00    +0.211 HD
ENDBRANCH   1  23
TORSDOF 6
ENDMDL
MODEL 8
REMARK VINA RESULT:      -6.9      2.098      4.979
REMARK  Name = *****
REMARK                            x       y       z     vdW  Elec       q    Type
REMARK                         _______ _______ _______ _____ _____    ______ ____
ROOT
ATOM      1  C   LIG    1       25.071 -21.433   5.769  0.00  0.00    +0.190 C 
ENDROOT
BRANCH   1   2
ATOM      2  C   LIG    1       24.188 -20.317   5.179  0.00  0.00    -0.005 A 
ATOM      3  C   LIG    1       24.604 -19.562   4.068  0.00  0.00    +0.007 A 
ATOM      4  C   LIG    1       23.788 -18.573   3.511  0.00  0.00    +0.000 A 
ATOM      5  C   LIG    1       22.534 -18.315   4.052  0.00  0.00    +0.000 A 
ATOM      6  C   LIG    1       22.099 -19.039   5.156  0.00  0.00    +0.000 A 
ATOM      7  C   LIG    1       22.915 -20.031   5.709  0.00  0.00    +0.007 A 
ENDBRANCH   1   2
BRANCH   1   8
ATOM      8  C   LIG    1       26.171 -20.909   6.729  0.00  0.00    +0.036 C 
ATOM      9  C   LIG    1       26.949 -22.031   7.443  0.00  0.00    +0.007 C 
ATOM     10  C   LIG    1       28.213 -21.335   7.916  0.00  0.00    +0.000 C 
ATOM     11  C   LIG    1       28.596 -20.460   6.736  0.00  0.00    +0.000 C 
ATOM     12  C   LIG    1       27.279 -20.067   6.065  0.00  0.00    +0.007 C 
ENDBRANCH   1   8
BRANCH   1  13
ATOM     13  C   LIG    1       24.196 -22.487   6.532  0.00  0.00    +0.344 C 
ATOM     14  O   LIG    1       23.649 -22.271   7.601  0.00  0.00    -0.247 OA
BRANCH  13  15
ATOM     15  O   LIG    1       24.160 -23.700   5.879  0.00  0.00    -0.454 OA
BRANCH  15  19
ATOM     16  C   LIG    1       25.703 -27.988   5.717  0.00  0.00    +0.192 C 
ATOM     17  N   LIG    1       25.370 -26.542   5.375  0.00  0.00    +0.242 N 
ATOM     18  C   LIG    1       23.958 -26.142   5.905  0.00  0.00    +0.178 C 
ATOM     19  C   LIG    1       24.174 -24.865   6.737  0.00  0.00    +0.226 C 
ATOM     20  C   LIG    1       25.566 -25.080   7.298  0.00  0.00    +0.101 C 
ATOM     21  C   LIG    1       26.348 -25.608   6.109  0.00  0.00    +0.136 C 
ATOM     22  C   LIG    1       25.452 -26.364   3.865  0.00  0.00    +0.192 C 
ENDBRANCH  15  19
ENDBRANCH  13  15
ENDBRANCH   1  13
BRANCH   1  23
ATOM     23  O   LIG    1       25.737 -22.093   4.678  0.00  0.00    -0.373 OA
ATOM     24  H   LIG    1       26.377 -22.724   5.059  0.00  0.00    +0.211 HD
ENDBRANCH   1  23
TORSDOF 6
ENDMDL
MODEL 9
REMARK VINA RESULT:      -6.8      2.743      5.560
REMARK  Name = *****
REMARK                            x       y       z     vdW  Elec       q    Type
REMARK                         _______ _______ _______ _____ _____    ______ ____
ROOT
ATOM      1  C   LIG    1       24.653 -22.886   5.992  0.00  0.00    +0.190 C 
ENDROOT
BRANCH   1   2
ATOM      2  C   LIG    1       23.955 -21.670   5.353  0.00  0.00    -0.005 A 
ATOM      3  C   LIG    1       22.598 -21.394   5.593  0.00  0.00    +0.007 A 
ATOM      4  C   LIG    1       21.973 -20.271   5.043  0.00  0.00    +0.000 A 
ATOM      5  C   LIG    1       22.692 -19.395   4.238  0.00  0.00    +0.000 A 
ATOM      6  C   LIG    1       24.034 -19.646   3.976  0.00  0.00    +0.000 A 
ATOM      7  C   LIG    1       24.658 -20.768   4.531  0.00  0.00    +0.007 A 
ENDBRANCH   1   2
BRANCH   1   8
ATOM      8  C   LIG    1       25.390 -22.550   7.316  0.00  0.00    +0.036 C 
ATOM      9  C   LIG    1       26.889 -22.255   7.128  0.00  0.00    +0.007 C 
ATOM     10  C   LIG    1       27.265 -21.519   8.401  0.00  0.00    +0.000 C 
ATOM     11  C   LIG    1       26.092 -20.582   8.625  0.00  0.00    +0.000 C 
ATOM     12  C   LIG    1       24.867 -21.306   8.064  0.00  0.00    +0.007 C 
ENDBRANCH   1   8
BRANCH   1  13
ATOM     13  C   LIG    1       23.624 -24.037   6.266  0.00  0.00    +0.344 C 
ATOM     14  O   LIG    1       22.580 -23.885   6.877  0.00  0.00    -0.247 OA
BRANCH  13  15
ATOM     15  O   LIG    1       24.063 -25.249   5.778  0.00  0.00    -0.454 OA
BRANCH  15  19
ATOM     16  C   LIG    1       25.701 -29.498   6.020  0.00  0.00    +0.192 C 
ATOM     17  N   LIG    1       25.016 -28.221   5.551  0.00  0.00    +0.242 N 
ATOM     18  C   LIG    1       24.296 -27.495   6.729  0.00  0.00    +0.178 C 
ATOM     19  C   LIG    1       24.826 -26.051   6.712  0.00  0.00    +0.226 C 
ATOM     20  C   LIG    1       26.242 -26.234   6.201  0.00  0.00    +0.101 C 
ATOM     21  C   LIG    1       26.080 -27.224   5.061  0.00  0.00    +0.136 C 
ATOM     22  C   LIG    1       24.027 -28.573   4.446  0.00  0.00    +0.192 C 
ENDBRANCH  15  19
ENDBRANCH  13  15
ENDBRANCH   1  13
BRANCH   1  23
ATOM     23  O   LIG    1       25.643 -23.364   5.065  0.00  0.00    -0.373 OA
ATOM     24  H   LIG    1       25.664 -24.338   5.129  0.00  0.00    +0.211 HD
ENDBRANCH   1  23
TORSDOF 6
ENDMDL
