MODEL 1
REMARK VINA RESULT:      -2.1      0.000      0.000
REMARK  Name = *****
REMARK                            x       y       z     vdW  Elec       q    Type
REMARK                         _______ _______ _______ _____ _____    ______ ____
ROOT
ATOM      1  C   LIG    1       25.106 -19.003   3.570  0.00  0.00    +0.128 C 
ENDROOT
BRANCH   1   2
ATOM      2  C   LIG    1       26.294 -19.407   4.503  0.00  0.00    +0.022 A 
ATOM      3  C   LIG    1       27.489 -18.650   4.512  0.00  0.00    +0.132 A 
ATOM      4  F   LIG    1       27.612 -17.589   3.699  0.00  0.00    -0.205 F 
ATOM      5  C   LIG    1       28.566 -18.948   5.347  0.00  0.00    +0.077 A 
ATOM      6  C   LIG    1       28.459 -20.010   6.226  0.00  0.00    +0.126 A 
ATOM      7  F   LIG    1       29.469 -20.288   7.061  0.00  0.00    -0.205 F 
ATOM      8  C   LIG    1       27.306 -20.783   6.259  0.00  0.00    +0.039 A 
ATOM      9  C   LIG    1       26.236 -20.493   5.398  0.00  0.00    +0.012 A 
ENDBRANCH   1   2
BRANCH   1  10
ATOM     10  C   LIG    1       24.341 -17.721   4.202  0.00  0.00    +0.092 C 
ATOM     11  C   LIG    1       22.817 -18.022   4.284  0.00  0.00    +0.027 C 
BRANCH  10  16
ATOM     12  C   LIG    1       25.141 -12.290   4.398  0.00  0.00    +0.007 C 
ATOM     13  C   LIG    1       24.905 -13.433   3.715  0.00  0.00    -0.074 C 
ATOM     14  C   LIG    1       25.982 -14.327   3.178  0.00  0.00    +0.045 C 
ATOM     15  C   LIG    1       25.849 -15.730   3.801  0.00  0.00    +0.089 C 
ATOM     16  N   LIG    1       24.517 -16.348   3.609  0.00  0.00    -0.296 NA
ATOM     17  C   LIG    1       23.469 -15.404   4.106  0.00  0.00    +0.089 C 
ATOM     18  C   LIG    1       23.538 -13.998   3.496  0.00  0.00    +0.045 C 
ENDBRANCH  10  16
ENDBRANCH   1  10
BRANCH   1  19
ATOM     19  O   LIG    1       25.748 -18.671   2.319  0.00  0.00    -0.381 OA
ATOM     20  H   LIG    1       25.544 -17.734   2.137  0.00  0.00    +0.211 HD
ENDBRANCH   1  19
BRANCH   1  21
ATOM     21  C   LIG    1       24.184 -20.215   3.244  0.00  0.00    +0.186 C 
BRANCH  21  22
ATOM     22  N   LIG    1       23.279 -20.643   4.290  0.00  0.00    -0.249 N 
ATOM     23  N   LIG    1       23.699 -20.702   5.570  0.00  0.00    -0.158 NA
ATOM     24  C   LIG    1       22.628 -21.220   6.175  0.00  0.00    +0.244 A 
ATOM     25  N   LIG    1       21.600 -21.567   5.346  0.00  0.00    -0.223 NA
ATOM     26  C   LIG    1       22.051 -21.222   4.161  0.00  0.00    +0.219 A 
ENDBRANCH  21  22
ENDBRANCH   1  21
TORSDOF 6
ENDMDL
MODEL 2
REMARK VINA RESULT:      -1.3      2.931      6.682
REMARK  Name = *****
REMARK                            x       y       z     vdW  Elec       q    Type
REMARK                         _______ _______ _______ _____ _____    ______ ____
ROOT
ATOM      1  C   LIG    1       25.090 -15.239   3.782  0.00  0.00    +0.128 C 
ENDROOT
BRANCH   1   2
ATOM      2  C   LIG    1       26.281 -14.359   4.284  0.00  0.00    +0.022 A 
ATOM      3  C   LIG    1       27.397 -14.118   3.449  0.00  0.00    +0.132 A 
ATOM      4  F   LIG    1       27.443 -14.664   2.224  0.00  0.00    -0.205 F 
ATOM      5  C   LIG    1       28.471 -13.315   3.835  0.00  0.00    +0.077 A 
ATOM      6  C   LIG    1       28.437 -12.703   5.076  0.00  0.00    +0.126 A 
ATOM      7  F   LIG    1       29.443 -11.900   5.449  0.00  0.00    -0.205 F 
ATOM      8  C   LIG    1       27.364 -12.906   5.933  0.00  0.00    +0.039 A 
ATOM      9  C   LIG    1       26.299 -13.735   5.547  0.00  0.00    +0.012 A 
ENDBRANCH   1   2
BRANCH   1  10
ATOM     10  C   LIG    1       25.457 -16.805   3.988  0.00  0.00    +0.092 C 
ATOM     11  C   LIG    1       26.744 -17.141   3.182  0.00  0.00    +0.027 C 
BRANCH  10  16
ATOM     12  C   LIG    1       22.256 -21.066   5.316  0.00  0.00    +0.007 C 
ATOM     13  C   LIG    1       22.753 -20.187   4.417  0.00  0.00    -0.074 C 
ATOM     14  C   LIG    1       22.135 -18.856   4.116  0.00  0.00    +0.045 C 
ATOM     15  C   LIG    1       23.146 -17.734   4.424  0.00  0.00    +0.089 C 
ATOM     16  N   LIG    1       24.438 -17.878   3.716  0.00  0.00    -0.296 NA
ATOM     17  C   LIG    1       24.994 -19.238   3.998  0.00  0.00    +0.089 C 
ATOM     18  C   LIG    1       24.038 -20.395   3.681  0.00  0.00    +0.045 C 
ENDBRANCH  10  16
ENDBRANCH   1  10
BRANCH   1  19
ATOM     19  O   LIG    1       23.986 -14.840   4.625  0.00  0.00    -0.381 OA
ATOM     20  H   LIG    1       24.143 -13.909   4.873  0.00  0.00    +0.211 HD
ENDBRANCH   1  19
BRANCH   1  21
ATOM     21  C   LIG    1       24.654 -14.859   2.336  0.00  0.00    +0.186 C 
BRANCH  21  22
ATOM     22  N   LIG    1       24.484 -13.447   2.059  0.00  0.00    -0.249 N 
ATOM     23  N   LIG    1       25.559 -12.639   1.971  0.00  0.00    -0.158 NA
ATOM     24  C   LIG    1       24.979 -11.447   1.812  0.00  0.00    +0.244 A 
ATOM     25  N   LIG    1       23.616 -11.447   1.880  0.00  0.00    -0.223 NA
ATOM     26  C   LIG    1       23.333 -12.716   2.068  0.00  0.00    +0.219 A 
ENDBRANCH  21  22
ENDBRANCH   1  21
TORSDOF 6
ENDMDL
MODEL 3
REMARK VINA RESULT:      -1.2      3.115      7.240
REMARK  Name = *****
REMARK                            x       y       z     vdW  Elec       q    Type
REMARK                         _______ _______ _______ _____ _____    ______ ____
ROOT
ATOM      1  C   LIG    1       26.147 -15.433   3.172  0.00  0.00    +0.128 C 
ENDROOT
BRANCH   1   2
ATOM      2  C   LIG    1       25.217 -14.344   3.798  0.00  0.00    +0.022 A 
ATOM      3  C   LIG    1       24.864 -13.191   3.060  0.00  0.00    +0.132 A 
ATOM      4  F   LIG    1       25.346 -13.021   1.819  0.00  0.00    -0.205 F 
ATOM      5  C   LIG    1       24.013 -12.204   3.559  0.00  0.00    +0.077 A 
ATOM      6  C   LIG    1       23.466 -12.366   4.819  0.00  0.00    +0.126 A 
ATOM      7  F   LIG    1       22.618 -11.447   5.300  0.00  0.00    -0.205 F 
ATOM      8  C   LIG    1       23.779 -13.481   5.585  0.00  0.00    +0.039 A 
ATOM      9  C   LIG    1       24.655 -14.458   5.085  0.00  0.00    +0.012 A 
ENDBRANCH   1   2
BRANCH   1  10
ATOM     10  C   LIG    1       25.967 -16.824   3.985  0.00  0.00    +0.092 C 
ATOM     11  C   LIG    1       27.336 -17.557   4.059  0.00  0.00    +0.027 C 
BRANCH  10  16
ATOM     12  C   LIG    1       22.364 -20.878   4.857  0.00  0.00    +0.007 C 
ATOM     13  C   LIG    1       23.019 -20.025   4.038  0.00  0.00    -0.074 C 
ATOM     14  C   LIG    1       22.527 -18.653   3.690  0.00  0.00    +0.045 C 
ATOM     15  C   LIG    1       23.565 -17.603   4.133  0.00  0.00    +0.089 C 
ATOM     16  N   LIG    1       24.919 -17.826   3.578  0.00  0.00    -0.296 NA
ATOM     17  C   LIG    1       25.350 -19.222   3.899  0.00  0.00    +0.089 C 
ATOM     18  C   LIG    1       24.365 -20.310   3.452  0.00  0.00    +0.045 C 
ENDBRANCH  10  16
ENDBRANCH   1  10
BRANCH   1  19
ATOM     19  O   LIG    1       25.672 -15.552   1.812  0.00  0.00    -0.381 OA
ATOM     20  H   LIG    1       25.230 -14.710   1.593  0.00  0.00    +0.211 HD
ENDBRANCH   1  19
BRANCH   1  21
ATOM     21  C   LIG    1       27.619 -14.940   3.046  0.00  0.00    +0.186 C 
BRANCH  21  22
ATOM     22  N   LIG    1       27.993 -13.799   3.855  0.00  0.00    -0.249 N 
ATOM     23  N   LIG    1       28.855 -12.880   3.376  0.00  0.00    -0.158 NA
ATOM     24  C   LIG    1       29.003 -12.081   4.434  0.00  0.00    +0.244 A 
ATOM     25  N   LIG    1       28.360 -12.487   5.567  0.00  0.00    -0.223 NA
ATOM     26  C   LIG    1       27.757 -13.589   5.181  0.00  0.00    +0.219 A 
ENDBRANCH  21  22
ENDBRANCH   1  21
TORSDOF 6
ENDMDL
MODEL 4
REMARK VINA RESULT:      -0.5      2.756      4.764
REMARK  Name = *****
REMARK                            x       y       z     vdW  Elec       q    Type
REMARK                         _______ _______ _______ _____ _____    ______ ____
ROOT
ATOM      1  C   LIG    1       24.875 -18.950   4.441  0.00  0.00    +0.128 C 
ENDROOT
BRANCH   1   2
ATOM      2  C   LIG    1       23.371 -19.336   4.264  0.00  0.00    +0.022 A 
ATOM      3  C   LIG    1       22.893 -20.589   4.715  0.00  0.00    +0.132 A 
ATOM      4  F   LIG    1       23.741 -21.460   5.282  0.00  0.00    -0.205 F 
ATOM      5  C   LIG    1       21.555 -20.970   4.610  0.00  0.00    +0.077 A 
ATOM      6  C   LIG    1       20.645 -20.080   4.067  0.00  0.00    +0.126 A 
ATOM      7  F   LIG    1       19.350 -20.416   3.991  0.00  0.00    -0.205 F 
ATOM      8  C   LIG    1       21.062 -18.837   3.611  0.00  0.00    +0.039 A 
ATOM      9  C   LIG    1       22.414 -18.470   3.697  0.00  0.00    +0.012 A 
ENDBRANCH   1   2
BRANCH   1  10
ATOM     10  C   LIG    1       25.207 -17.654   3.524  0.00  0.00    +0.092 C 
ATOM     11  C   LIG    1       26.641 -17.795   2.938  0.00  0.00    +0.027 C 
BRANCH  10  16
ATOM     12  C   LIG    1       24.148 -12.274   3.211  0.00  0.00    +0.007 C 
ATOM     13  C   LIG    1       24.532 -13.372   3.900  0.00  0.00    -0.074 C 
ATOM     14  C   LIG    1       23.587 -14.277   4.631  0.00  0.00    +0.045 C 
ATOM     15  C   LIG    1       23.689 -15.704   4.058  0.00  0.00    +0.089 C 
ATOM     16  N   LIG    1       25.060 -16.262   4.076  0.00  0.00    -0.296 NA
ATOM     17  C   LIG    1       25.980 -15.305   3.386  0.00  0.00    +0.089 C 
ATOM     18  C   LIG    1       25.940 -13.874   3.937  0.00  0.00    +0.045 C 
ENDBRANCH  10  16
ENDBRANCH   1  10
BRANCH   1  19
ATOM     19  O   LIG    1       24.990 -18.644   5.849  0.00  0.00    -0.381 OA
ATOM     20  H   LIG    1       25.450 -19.398   6.265  0.00  0.00    +0.211 HD
ENDBRANCH   1  19
BRANCH   1  21
ATOM     21  C   LIG    1       25.819 -20.167   4.213  0.00  0.00    +0.186 C 
BRANCH  21  22
ATOM     22  N   LIG    1       26.768 -20.460   5.267  0.00  0.00    -0.249 N 
ATOM     23  N   LIG    1       26.420 -21.271   6.287  0.00  0.00    -0.158 NA
ATOM     24  C   LIG    1       27.505 -21.199   7.062  0.00  0.00    +0.244 A 
ATOM     25  N   LIG    1       28.469 -20.331   6.637  0.00  0.00    -0.223 NA
ATOM     26  C   LIG    1       27.964 -19.857   5.521  0.00  0.00    +0.219 A 
ENDBRANCH  21  22
ENDBRANCH   1  21
TORSDOF 6
ENDMDL
MODEL 5
REMARK VINA RESULT:      -0.3      1.149      1.783
REMARK  Name = *****
REMARK                            x       y       z     vdW  Elec       q    Type
REMARK                         _______ _______ _______ _____ _____    ______ ____
ROOT
ATOM      1  C   LIG    1       25.059 -18.908   3.674  0.00  0.00    +0.128 C 
ENDROOT
BRANCH   1   2
ATOM      2  C   LIG    1       26.272 -19.230   4.605  0.00  0.00    +0.022 A 
ATOM      3  C   LIG    1       26.133 -20.143   5.676  0.00  0.00    +0.132 A 
ATOM      4  F   LIG    1       24.945 -20.724   5.906  0.00  0.00    -0.205 F 
ATOM      5  C   LIG    1       27.190 -20.490   6.517  0.00  0.00    +0.077 A 
ATOM      6  C   LIG    1       28.439 -19.941   6.285  0.00  0.00    +0.126 A 
ATOM      7  F   LIG    1       29.474 -20.290   7.060  0.00  0.00    -0.205 F 
ATOM      8  C   LIG    1       28.630 -19.040   5.246  0.00  0.00    +0.039 A 
ATOM      9  C   LIG    1       27.555 -18.678   4.419  0.00  0.00    +0.012 A 
ENDBRANCH   1   2
BRANCH   1  10
ATOM     10  C   LIG    1       24.158 -17.742   4.351  0.00  0.00    +0.092 C 
ATOM     11  C   LIG    1       22.728 -17.778   3.740  0.00  0.00    +0.027 C 
BRANCH  10  16
ATOM     12  C   LIG    1       24.888 -12.737   2.210  0.00  0.00    +0.007 C 
ATOM     13  C   LIG    1       25.056 -13.642   3.200  0.00  0.00    -0.074 C 
ATOM     14  C   LIG    1       24.092 -13.836   4.331  0.00  0.00    +0.045 C 
ATOM     15  C   LIG    1       23.564 -15.284   4.320  0.00  0.00    +0.089 C 
ATOM     16  N   LIG    1       24.628 -16.312   4.362  0.00  0.00    -0.296 NA
ATOM     17  C   LIG    1       25.597 -16.051   3.253  0.00  0.00    +0.089 C 
ATOM     18  C   LIG    1       26.177 -14.632   3.235  0.00  0.00    +0.045 C 
ENDBRANCH  10  16
ENDBRANCH   1  10
BRANCH   1  19
ATOM     19  O   LIG    1       25.676 -18.453   2.448  0.00  0.00    -0.381 OA
ATOM     20  H   LIG    1       25.697 -19.218   1.843  0.00  0.00    +0.211 HD
ENDBRANCH   1  19
BRANCH   1  21
ATOM     21  C   LIG    1       24.271 -20.191   3.279  0.00  0.00    +0.186 C 
BRANCH  21  22
ATOM     22  N   LIG    1       23.137 -20.539   4.110  0.00  0.00    -0.249 N 
ATOM     23  N   LIG    1       23.260 -21.484   5.065  0.00  0.00    -0.158 NA
ATOM     24  C   LIG    1       22.006 -21.568   5.514  0.00  0.00    +0.244 A 
ATOM     25  N   LIG    1       21.094 -20.802   4.847  0.00  0.00    -0.223 NA
ATOM     26  C   LIG    1       21.830 -20.189   3.947  0.00  0.00    +0.219 A 
ENDBRANCH  21  22
ENDBRANCH   1  21
TORSDOF 6
ENDMDL
MODEL 6
REMARK VINA RESULT:      -0.2      3.070      6.692
REMARK  Name = *****
REMARK                            x       y       z     vdW  Elec       q    Type
REMARK                         _______ _______ _______ _____ _____    ______ ____
ROOT
ATOM      1  C   LIG    1       25.753 -16.828   3.662  0.00  0.00    +0.128 C 
ENDROOT
BRANCH   1   2
ATOM      2  C   LIG    1       24.330 -17.447   3.850  0.00  0.00    +0.022 A 
ATOM      3  C   LIG    1       23.221 -16.621   4.147  0.00  0.00    +0.132 A 
ATOM      4  F   LIG    1       23.394 -15.298   4.286  0.00  0.00    -0.205 F 
ATOM      5  C   LIG    1       21.925 -17.118   4.293  0.00  0.00    +0.077 A 
ATOM      6  C   LIG    1       21.703 -18.472   4.116  0.00  0.00    +0.126 A 
ATOM      7  F   LIG    1       20.460 -18.962   4.218  0.00  0.00    -0.205 F 
ATOM      8  C   LIG    1       22.757 -19.326   3.822  0.00  0.00    +0.039 A 
ATOM      9  C   LIG    1       24.062 -18.822   3.700  0.00  0.00    +0.012 A 
ENDBRANCH   1   2
BRANCH   1  10
ATOM     10  C   LIG    1       26.864 -18.006   3.739  0.00  0.00    +0.092 C 
ATOM     11  C   LIG    1       26.372 -19.231   2.917  0.00  0.00    +0.027 C 
BRANCH  10  16
ATOM     12  C   LIG    1       29.475 -21.515   7.061  0.00  0.00    +0.007 C 
ATOM     13  C   LIG    1       28.734 -20.404   6.852  0.00  0.00    -0.074 C 
ATOM     14  C   LIG    1       29.313 -19.045   6.600  0.00  0.00    +0.045 C 
ATOM     15  C   LIG    1       28.842 -18.528   5.227  0.00  0.00    +0.089 C 
ATOM     16  N   LIG    1       27.370 -18.503   5.066  0.00  0.00    -0.296 NA
ATOM     17  C   LIG    1       26.827 -19.861   5.379  0.00  0.00    +0.089 C 
ATOM     18  C   LIG    1       27.242 -20.412   6.749  0.00  0.00    +0.045 C 
ENDBRANCH  10  16
ENDBRANCH   1  10
BRANCH   1  19
ATOM     19  O   LIG    1       25.700 -16.237   2.343  0.00  0.00    -0.381 OA
ATOM     20  H   LIG    1       25.405 -15.314   2.459  0.00  0.00    +0.211 HD
ENDBRANCH   1  19
BRANCH   1  21
ATOM     21  C   LIG    1       26.001 -15.635   4.630  0.00  0.00    +0.186 C 
BRANCH  21  22
ATOM     22  N   LIG    1       26.579 -14.439   4.053  0.00  0.00    -0.249 N 
ATOM     23  N   LIG    1       25.827 -13.621   3.290  0.00  0.00    -0.158 NA
ATOM     24  C   LIG    1       26.733 -12.727   2.888  0.00  0.00    +0.244 A 
ATOM     25  N   LIG    1       28.016 -12.981   3.280  0.00  0.00    -0.223 NA
ATOM     26  C   LIG    1       27.894 -14.082   3.985  0.00  0.00    +0.219 A 
ENDBRANCH  21  22
ENDBRANCH   1  21
TORSDOF 6
ENDMDL
MODEL 7
REMARK VINA RESULT:      -0.1      2.457      5.785
REMARK  Name = *****
REMARK                            x       y       z     vdW  Elec       q    Type
REMARK                         _______ _______ _______ _____ _____    ______ ____
ROOT
ATOM      1  C   LIG    1       26.998 -17.590   4.043  0.00  0.00    +0.128 C 
ENDROOT
BRANCH   1   2
ATOM      2  C   LIG    1       26.101 -16.310   4.021  0.00  0.00    +0.022 A 
ATOM      3  C   LIG    1       26.686 -15.025   3.928  0.00  0.00    +0.132 A 
ATOM      4  F   LIG    1       28.022 -14.904   3.877  0.00  0.00    -0.205 F 
ATOM      5  C   LIG    1       25.932 -13.853   3.872  0.00  0.00    +0.077 A 
ATOM      6  C   LIG    1       24.552 -13.943   3.882  0.00  0.00    +0.126 A 
ATOM      7  F   LIG    1       23.811 -12.830   3.794  0.00  0.00    -0.205 F 
ATOM      8  C   LIG    1       23.927 -15.180   3.970  0.00  0.00    +0.039 A 
ATOM      9  C   LIG    1       24.693 -16.354   4.050  0.00  0.00    +0.012 A 
ENDBRANCH   1   2
BRANCH   1  10
ATOM     10  C   LIG    1       26.077 -18.894   3.758  0.00  0.00    +0.092 C 
ATOM     11  C   LIG    1       25.671 -18.918   2.257  0.00  0.00    +0.027 C 
BRANCH  10  16
ATOM     12  C   LIG    1       21.420 -21.521   5.017  0.00  0.00    +0.007 C 
ATOM     13  C   LIG    1       22.331 -20.545   5.233  0.00  0.00    -0.074 C 
ATOM     14  C   LIG    1       23.535 -20.701   6.110  0.00  0.00    +0.045 C 
ATOM     15  C   LIG    1       24.813 -20.468   5.281  0.00  0.00    +0.089 C 
ATOM     16  N   LIG    1       24.846 -19.164   4.581  0.00  0.00    -0.296 NA
ATOM     17  C   LIG    1       23.603 -19.024   3.761  0.00  0.00    +0.089 C 
ATOM     18  C   LIG    1       22.299 -19.217   4.544  0.00  0.00    +0.045 C 
ENDBRANCH  10  16
ENDBRANCH   1  10
BRANCH   1  19
ATOM     19  O   LIG    1       27.943 -17.368   2.973  0.00  0.00    -0.381 OA
ATOM     20  H   LIG    1       27.430 -17.345   2.142  0.00  0.00    +0.211 HD
ENDBRANCH   1  19
BRANCH   1  21
ATOM     21  C   LIG    1       27.862 -17.674   5.336  0.00  0.00    +0.186 C 
BRANCH  21  22
ATOM     22  N   LIG    1       28.235 -19.001   5.782  0.00  0.00    -0.249 N 
ATOM     23  N   LIG    1       27.354 -19.761   6.463  0.00  0.00    -0.158 NA
ATOM     24  C   LIG    1       28.102 -20.825   6.763  0.00  0.00    +0.244 A 
ATOM     25  N   LIG    1       29.412 -20.742   6.389  0.00  0.00    -0.223 NA
ATOM     26  C   LIG    1       29.475 -19.568   5.802  0.00  0.00    +0.219 A 
ENDBRANCH  21  22
ENDBRANCH   1  21
TORSDOF 6
ENDMDL
MODEL 8
REMARK VINA RESULT:       0.2      1.188      1.571
REMARK  Name = *****
REMARK                            x       y       z     vdW  Elec       q    Type
REMARK                         _______ _______ _______ _____ _____    ______ ____
ROOT
ATOM      1  C   LIG    1       25.364 -18.742   3.483  0.00  0.00    +0.128 C 
ENDROOT
BRANCH   1   2
ATOM      2  C   LIG    1       26.479 -19.179   4.487  0.00  0.00    +0.022 A 
ATOM      3  C   LIG    1       26.423 -20.444   5.116  0.00  0.00    +0.132 A 
ATOM      4  F   LIG    1       25.395 -21.269   4.863  0.00  0.00    -0.205 F 
ATOM      5  C   LIG    1       27.408 -20.897   5.996  0.00  0.00    +0.077 A 
ATOM      6  C   LIG    1       28.502 -20.089   6.248  0.00  0.00    +0.126 A 
ATOM      7  F   LIG    1       29.475 -20.521   7.062  0.00  0.00    -0.205 F 
ATOM      8  C   LIG    1       28.607 -18.838   5.655  0.00  0.00    +0.039 A 
ATOM      9  C   LIG    1       27.600 -18.380   4.790  0.00  0.00    +0.012 A 
ENDBRANCH   1   2
BRANCH   1  10
ATOM     10  C   LIG    1       24.700 -17.353   3.991  0.00  0.00    +0.092 C 
ATOM     11  C   LIG    1       23.168 -17.391   3.729  0.00  0.00    +0.027 C 
BRANCH  10  16
ATOM     12  C   LIG    1       27.326 -12.559   4.536  0.00  0.00    +0.007 C 
ATOM     13  C   LIG    1       26.597 -13.440   3.815  0.00  0.00    -0.074 C 
ATOM     14  C   LIG    1       27.191 -14.523   2.966  0.00  0.00    +0.045 C 
ATOM     15  C   LIG    1       26.699 -15.897   3.461  0.00  0.00    +0.089 C 
ATOM     16  N   LIG    1       25.225 -16.026   3.511  0.00  0.00    -0.296 NA
ATOM     17  C   LIG    1       24.669 -14.898   4.320  0.00  0.00    +0.089 C 
ATOM     18  C   LIG    1       25.103 -13.504   3.852  0.00  0.00    +0.045 C 
ENDBRANCH  10  16
ENDBRANCH   1  10
BRANCH   1  19
ATOM     19  O   LIG    1       26.073 -18.563   2.236  0.00  0.00    -0.381 OA
ATOM     20  H   LIG    1       27.012 -18.421   2.463  0.00  0.00    +0.211 HD
ENDBRANCH   1  19
BRANCH   1  21
ATOM     21  C   LIG    1       24.346 -19.888   3.208  0.00  0.00    +0.186 C 
BRANCH  21  22
ATOM     22  N   LIG    1       23.447 -20.231   4.291  0.00  0.00    -0.249 N 
ATOM     23  N   LIG    1       23.711 -19.822   5.549  0.00  0.00    -0.158 NA
ATOM     24  C   LIG    1       22.729 -20.414   6.230  0.00  0.00    +0.244 A 
ATOM     25  N   LIG    1       21.921 -21.234   5.496  0.00  0.00    -0.223 NA
ATOM     26  C   LIG    1       22.417 -21.124   4.284  0.00  0.00    +0.219 A 
ENDBRANCH  21  22
ENDBRANCH   1  21
TORSDOF 6
ENDMDL
MODEL 9
REMARK VINA RESULT:       0.5      2.468      5.566
REMARK  Name = *****
REMARK                            x       y       z     vdW  Elec       q    Type
REMARK                         _______ _______ _______ _____ _____    ______ ____
ROOT
ATOM      1  C   LIG    1       24.652 -17.754   4.033  0.00  0.00    +0.128 C 
ENDROOT
BRANCH   1   2
ATOM      2  C   LIG    1       24.869 -16.244   3.695  0.00  0.00    +0.022 A 
ATOM      3  C   LIG    1       23.873 -15.288   4.002  0.00  0.00    +0.132 A 
ATOM      4  F   LIG    1       22.724 -15.683   4.571  0.00  0.00    -0.205 F 
ATOM      5  C   LIG    1       24.029 -13.924   3.750  0.00  0.00    +0.077 A 
ATOM      6  C   LIG    1       25.216 -13.477   3.200  0.00  0.00    +0.126 A 
ATOM      7  F   LIG    1       25.398 -12.167   2.984  0.00  0.00    -0.205 F 
ATOM      8  C   LIG    1       26.228 -14.373   2.882  0.00  0.00    +0.039 A 
ATOM      9  C   LIG    1       26.054 -15.746   3.116  0.00  0.00    +0.012 A 
ENDBRANCH   1   2
BRANCH   1  10
ATOM     10  C   LIG    1       26.074 -18.529   3.965  0.00  0.00    +0.092 C 
ATOM     11  C   LIG    1       25.909 -19.832   3.133  0.00  0.00    +0.027 C 
BRANCH  10  16
ATOM     12  C   LIG    1       29.475 -21.532   7.061  0.00  0.00    +0.007 C 
ATOM     13  C   LIG    1       28.620 -20.498   6.894  0.00  0.00    -0.074 C 
ATOM     14  C   LIG    1       29.034 -19.131   6.442  0.00  0.00    +0.045 C 
ATOM     15  C   LIG    1       28.304 -18.775   5.132  0.00  0.00    +0.089 C 
ATOM     16  N   LIG    1       26.829 -18.867   5.223  0.00  0.00    -0.296 NA
ATOM     17  C   LIG    1       26.460 -20.225   5.729  0.00  0.00    +0.089 C 
ATOM     18  C   LIG    1       27.137 -20.619   7.047  0.00  0.00    +0.045 C 
ENDBRANCH  10  16
ENDBRANCH   1  10
BRANCH   1  19
ATOM     19  O   LIG    1       24.126 -17.733   5.380  0.00  0.00    -0.381 OA
ATOM     20  H   LIG    1       24.646 -18.380   5.895  0.00  0.00    +0.211 HD
ENDBRANCH   1  19
BRANCH   1  21
ATOM     21  C   LIG    1       23.523 -18.388   3.168  0.00  0.00    +0.186 C 
BRANCH  21  22
ATOM     22  N   LIG    1       22.776 -19.473   3.770  0.00  0.00    -0.249 N 
ATOM     23  N   LIG    1       21.540 -19.255   4.262  0.00  0.00    -0.158 NA
ATOM     24  C   LIG    1       21.255 -20.445   4.796  0.00  0.00    +0.244 A 
ATOM     25  N   LIG    1       22.264 -21.364   4.745  0.00  0.00    -0.223 NA
ATOM     26  C   LIG    1       23.220 -20.713   4.122  0.00  0.00    +0.219 A 
ENDBRANCH  21  22
ENDBRANCH   1  21
TORSDOF 6
ENDMDL
