MODEL 1
REMARK VINA RESULT:      -4.2      0.000      0.000
REMARK  Name = *****
REMARK                            x       y       z     vdW  Elec       q    Type
REMARK                         _______ _______ _______ _____ _____    ______ ____
ROOT
ATOM      1  C   UNK    1       25.558 -21.082   6.351  0.00  0.00    +0.111 C 
ATOM      2  C   UNK    1       25.394 -21.014   4.813  0.00  0.00    +0.165 C 
ATOM      3  C   UNK    1       24.031 -21.572   4.380  0.00  0.00    +0.174 C 
ATOM      4  C   UNK    1       22.882 -20.912   5.151  0.00  0.00    +0.159 C 
ATOM      5  C   UNK    1       23.137 -20.999   6.660  0.00  0.00    +0.115 C 
ATOM      6  N   UNK    1       24.432 -20.438   7.062  0.00  0.00    -0.306 NA
ATOM      7  H   UNK    1       24.438 -19.427   6.940  0.00  0.00    +0.122 HD
ENDROOT
BRANCH   2   8
ATOM      8  O   UNK    1       25.532 -19.669   4.322  0.00  0.00    -0.388 OA
ATOM      9  H   UNK    1       26.480 -19.475   4.232  0.00  0.00    +0.210 HD
ENDBRANCH   2   8
BRANCH   3  10
ATOM     10  O   UNK    1       23.821 -21.345   2.975  0.00  0.00    -0.387 OA
ATOM     11  H   UNK    1       24.364 -20.565   2.742  0.00  0.00    +0.210 HD
ENDBRANCH   3  10
BRANCH   4  12
ATOM     12  O   UNK    1       21.652 -21.561   4.819  0.00  0.00    -0.388 OA
ATOM     13  H   UNK    1       21.903 -22.341   4.285  0.00  0.00    +0.210 HD
ENDBRANCH   4  12
BRANCH   1  14
ATOM     14  C   UNK    1       26.890 -20.458   6.815  0.00  0.00    +0.177 C 
BRANCH  14  15
ATOM     15  O   UNK    1       27.842 -20.410   5.758  0.00  0.00    -0.393 OA
ATOM     16  H   UNK    1       27.798 -21.266   5.294  0.00  0.00    +0.209 HD
ENDBRANCH  14  15
ENDBRANCH   1  14
TORSDOF 5
ENDMDL
MODEL 2
REMARK VINA RESULT:      -4.0      1.074      3.704
REMARK  Name = *****
REMARK                            x       y       z     vdW  Elec       q    Type
REMARK                         _______ _______ _______ _____ _____    ______ ____
ROOT
ATOM      1  C   UNK    1       23.666 -20.743   5.923  0.00  0.00    +0.111 C 
ATOM      2  C   UNK    1       24.003 -20.394   4.453  0.00  0.00    +0.165 C 
ATOM      3  C   UNK    1       25.333 -19.635   4.357  0.00  0.00    +0.174 C 
ATOM      4  C   UNK    1       26.459 -20.378   5.086  0.00  0.00    +0.159 C 
ATOM      5  C   UNK    1       26.033 -20.708   6.521  0.00  0.00    +0.115 C 
ATOM      6  N   UNK    1       24.774 -21.457   6.594  0.00  0.00    -0.306 NA
ATOM      7  H   UNK    1       24.894 -22.398   6.225  0.00  0.00    +0.122 HD
ENDROOT
BRANCH   2   8
ATOM      8  O   UNK    1       24.070 -21.571   3.628  0.00  0.00    -0.388 OA
ATOM      9  H   UNK    1       23.491 -21.436   2.859  0.00  0.00    +0.210 HD
ENDBRANCH   2   8
BRANCH   3  10
ATOM     10  O   UNK    1       25.718 -19.470   2.981  0.00  0.00    -0.387 OA
ATOM     11  H   UNK    1       25.600 -18.520   2.778  0.00  0.00    +0.210 HD
ENDBRANCH   3  10
BRANCH   4  12
ATOM     12  O   UNK    1       27.637 -19.568   5.093  0.00  0.00    -0.388 OA
ATOM     13  H   UNK    1       27.356 -18.701   5.448  0.00  0.00    +0.210 HD
ENDBRANCH   4  12
BRANCH   1  14
ATOM     14  C   UNK    1       22.371 -21.572   6.036  0.00  0.00    +0.177 C 
BRANCH  14  15
ATOM     15  O   UNK    1       21.638 -21.566   4.815  0.00  0.00    -0.393 OA
ATOM     16  H   UNK    1       21.871 -22.383   4.337  0.00  0.00    +0.209 HD
ENDBRANCH  14  15
ENDBRANCH   1  14
TORSDOF 5
ENDMDL
MODEL 3
REMARK VINA RESULT:      -3.9      7.297      8.675
REMARK  Name = *****
REMARK                            x       y       z     vdW  Elec       q    Type
REMARK                         _______ _______ _______ _____ _____    ______ ____
ROOT
ATOM      1  C   UNK    1       25.374 -14.502   3.947  0.00  0.00    +0.111 C 
ATOM      2  C   UNK    1       26.022 -13.647   5.063  0.00  0.00    +0.165 C 
ATOM      3  C   UNK    1       27.548 -13.604   4.909  0.00  0.00    +0.174 C 
ATOM      4  C   UNK    1       27.959 -13.180   3.494  0.00  0.00    +0.159 C 
ATOM      5  C   UNK    1       27.254 -14.057   2.453  0.00  0.00    +0.115 C 
ATOM      6  N   UNK    1       25.793 -14.068   2.597  0.00  0.00    -0.306 NA
ATOM      7  H   UNK    1       25.403 -13.158   2.356  0.00  0.00    +0.122 HD
ENDROOT
BRANCH   2   8
ATOM      8  O   UNK    1       25.509 -12.303   5.069  0.00  0.00    -0.388 OA
ATOM      9  H   UNK    1       26.259 -11.692   5.163  0.00  0.00    +0.210 HD
ENDBRANCH   2   8
BRANCH   3  10
ATOM     10  O   UNK    1       28.119 -12.671   5.843  0.00  0.00    -0.387 OA
ATOM     11  H   UNK    1       28.643 -12.038   5.310  0.00  0.00    +0.210 HD
ENDBRANCH   3  10
BRANCH   4  12
ATOM     12  O   UNK    1       29.377 -13.293   3.356  0.00  0.00    -0.388 OA
ATOM     13  H   UNK    1       29.749 -12.539   3.856  0.00  0.00    +0.210 HD
ENDBRANCH   4  12
BRANCH   1  14
ATOM     14  C   UNK    1       23.835 -14.498   4.039  0.00  0.00    +0.177 C 
BRANCH  14  15
ATOM     15  O   UNK    1       23.259 -13.562   3.134  0.00  0.00    -0.393 OA
ATOM     16  H   UNK    1       22.580 -14.039   2.622  0.00  0.00    +0.209 HD
ENDBRANCH  14  15
ENDBRANCH   1  14
TORSDOF 5
ENDMDL
MODEL 4
REMARK VINA RESULT:      -3.9      1.280      3.732
REMARK  Name = *****
REMARK                            x       y       z     vdW  Elec       q    Type
REMARK                         _______ _______ _______ _____ _____    ______ ____
ROOT
ATOM      1  C   UNK    1       23.282 -20.177   5.573  0.00  0.00    +0.111 C 
ATOM      2  C   UNK    1       24.484 -19.991   4.616  0.00  0.00    +0.165 C 
ATOM      3  C   UNK    1       25.814 -20.147   5.365  0.00  0.00    +0.174 C 
ATOM      4  C   UNK    1       25.861 -21.455   6.163  0.00  0.00    +0.159 C 
ATOM      5  C   UNK    1       24.624 -21.572   7.062  0.00  0.00    +0.115 C 
ATOM      6  N   UNK    1       23.360 -21.447   6.327  0.00  0.00    -0.306 NA
ATOM      7  H   UNK    1       23.216 -22.254   5.722  0.00  0.00    +0.122 HD
ENDROOT
BRANCH   2   8
ATOM      8  O   UNK    1       24.445 -20.927   3.523  0.00  0.00    -0.388 OA
ATOM      9  H   UNK    1       23.982 -21.726   3.825  0.00  0.00    +0.210 HD
ENDBRANCH   2   8
BRANCH   3  10
ATOM     10  O   UNK    1       26.915 -20.144   4.439  0.00  0.00    -0.387 OA
ATOM     11  H   UNK    1       27.083 -21.082   4.214  0.00  0.00    +0.210 HD
ENDBRANCH   3  10
BRANCH   4  12
ATOM     12  O   UNK    1       27.051 -21.488   6.954  0.00  0.00    -0.388 OA
ATOM     13  H   UNK    1       27.762 -21.770   6.345  0.00  0.00    +0.210 HD
ENDBRANCH   4  12
BRANCH   1  14
ATOM     14  C   UNK    1       21.935 -20.099   4.826  0.00  0.00    +0.177 C 
BRANCH  14  15
ATOM     15  O   UNK    1       21.382 -21.393   4.607  0.00  0.00    -0.393 OA
ATOM     16  H   UNK    1       21.531 -21.909   5.420  0.00  0.00    +0.209 HD
ENDBRANCH  14  15
ENDBRANCH   1  14
TORSDOF 5
ENDMDL
MODEL 5
REMARK VINA RESULT:      -3.7      1.935      4.066
REMARK  Name = *****
REMARK                            x       y       z     vdW  Elec       q    Type
REMARK                         _______ _______ _______ _____ _____    ______ ____
ROOT
ATOM      1  C   UNK    1       23.463 -20.797   4.490  0.00  0.00    +0.111 C 
ATOM      2  C   UNK    1       24.912 -20.902   5.026  0.00  0.00    +0.165 C 
ATOM      3  C   UNK    1       25.876 -20.064   4.176  0.00  0.00    +0.174 C 
ATOM      4  C   UNK    1       25.382 -18.621   4.022  0.00  0.00    +0.159 C 
ATOM      5  C   UNK    1       23.935 -18.608   3.515  0.00  0.00    +0.115 C 
ATOM      6  N   UNK    1       23.020 -19.392   4.353  0.00  0.00    -0.306 NA
ATOM      7  H   UNK    1       22.894 -18.947   5.260  0.00  0.00    +0.122 HD
ENDROOT
BRANCH   2   8
ATOM      8  O   UNK    1       25.004 -20.482   6.399  0.00  0.00    -0.388 OA
ATOM      9  H   UNK    1       25.456 -19.621   6.423  0.00  0.00    +0.210 HD
ENDBRANCH   2   8
BRANCH   3  10
ATOM     10  O   UNK    1       27.180 -20.032   4.783  0.00  0.00    -0.387 OA
ATOM     11  H   UNK    1       27.242 -20.836   5.337  0.00  0.00    +0.210 HD
ENDBRANCH   3  10
BRANCH   4  12
ATOM     12  O   UNK    1       26.231 -17.921   3.110  0.00  0.00    -0.388 OA
ATOM     13  H   UNK    1       26.267 -17.001   3.439  0.00  0.00    +0.210 HD
ENDBRANCH   4  12
BRANCH   1  14
ATOM     14  C   UNK    1       22.465 -21.572   5.374  0.00  0.00    +0.177 C 
BRANCH  14  15
ATOM     15  O   UNK    1       21.157 -21.571   4.812  0.00  0.00    -0.393 OA
ATOM     16  H   UNK    1       21.153 -22.233   4.096  0.00  0.00    +0.209 HD
ENDBRANCH  14  15
ENDBRANCH   1  14
TORSDOF 5
ENDMDL
MODEL 6
REMARK VINA RESULT:      -3.6      6.905      7.334
REMARK  Name = *****
REMARK                            x       y       z     vdW  Elec       q    Type
REMARK                         _______ _______ _______ _____ _____    ______ ____
ROOT
ATOM      1  C   UNK    1       27.454 -13.480   4.474  0.00  0.00    +0.111 C 
ATOM      2  C   UNK    1       27.305 -14.664   3.489  0.00  0.00    +0.165 C 
ATOM      3  C   UNK    1       26.012 -15.446   3.758  0.00  0.00    +0.174 C 
ATOM      4  C   UNK    1       24.791 -14.520   3.795  0.00  0.00    +0.159 C 
ATOM      5  C   UNK    1       25.033 -13.364   4.772  0.00  0.00    +0.115 C 
ATOM      6  N   UNK    1       26.258 -12.609   4.485  0.00  0.00    -0.306 NA
ATOM      7  H   UNK    1       26.163 -12.089   3.615  0.00  0.00    +0.122 HD
ENDROOT
BRANCH   2   8
ATOM      8  O   UNK    1       27.312 -14.221   2.119  0.00  0.00    -0.388 OA
ATOM      9  H   UNK    1       28.236 -14.091   1.848  0.00  0.00    +0.210 HD
ENDBRANCH   2   8
BRANCH   3  10
ATOM     10  O   UNK    1       25.800 -16.432   2.732  0.00  0.00    -0.387 OA
ATOM     11  H   UNK    1       24.961 -16.189   2.291  0.00  0.00    +0.210 HD
ENDBRANCH   3  10
BRANCH   4  12
ATOM     12  O   UNK    1       23.639 -15.268   4.190  0.00  0.00    -0.388 OA
ATOM     13  H   UNK    1       23.811 -15.548   5.111  0.00  0.00    +0.210 HD
ENDBRANCH   4  12
BRANCH   1  14
ATOM     14  C   UNK    1       28.708 -12.635   4.173  0.00  0.00    +0.177 C 
BRANCH  14  15
ATOM     15  O   UNK    1       29.100 -11.859   5.301  0.00  0.00    -0.393 OA
ATOM     16  H   UNK    1       29.188 -10.937   4.998  0.00  0.00    +0.209 HD
ENDBRANCH  14  15
ENDBRANCH   1  14
TORSDOF 5
ENDMDL
MODEL 7
REMARK VINA RESULT:      -3.5      7.240      7.796
REMARK  Name = *****
REMARK                            x       y       z     vdW  Elec       q    Type
REMARK                         _______ _______ _______ _____ _____    ______ ____
ROOT
ATOM      1  C   UNK    1       27.377 -13.609   3.486  0.00  0.00    +0.111 C 
ATOM      2  C   UNK    1       26.468 -12.750   4.399  0.00  0.00    +0.165 C 
ATOM      3  C   UNK    1       24.986 -13.065   4.155  0.00  0.00    +0.174 C 
ATOM      4  C   UNK    1       24.707 -14.570   4.251  0.00  0.00    +0.159 C 
ATOM      5  C   UNK    1       25.666 -15.345   3.340  0.00  0.00    +0.115 C 
ATOM      6  N   UNK    1       27.080 -15.053   3.603  0.00  0.00    -0.306 NA
ATOM      7  H   UNK    1       27.359 -15.423   4.510  0.00  0.00    +0.122 HD
ENDROOT
BRANCH   2   8
ATOM      8  O   UNK    1       26.771 -12.950   5.791  0.00  0.00    -0.388 OA
ATOM      9  H   UNK    1       26.172 -12.391   6.315  0.00  0.00    +0.210 HD
ENDBRANCH   2   8
BRANCH   3  10
ATOM     10  O   UNK    1       24.165 -12.391   5.124  0.00  0.00    -0.387 OA
ATOM     11  H   UNK    1       24.306 -11.433   4.981  0.00  0.00    +0.210 HD
ENDBRANCH   3  10
BRANCH   4  12
ATOM     12  O   UNK    1       23.352 -14.828   3.877  0.00  0.00    -0.388 OA
ATOM     13  H   UNK    1       22.896 -15.083   4.703  0.00  0.00    +0.210 HD
ENDBRANCH   4  12
BRANCH   1  14
ATOM     14  C   UNK    1       28.873 -13.363   3.768  0.00  0.00    +0.177 C 
BRANCH  14  15
ATOM     15  O   UNK    1       29.070 -12.211   4.581  0.00  0.00    -0.393 OA
ATOM     16  H   UNK    1       29.933 -11.831   4.335  0.00  0.00    +0.209 HD
ENDBRANCH  14  15
ENDBRANCH   1  14
TORSDOF 5
ENDMDL
MODEL 8
REMARK VINA RESULT:      -3.4      7.169      8.205
REMARK  Name = *****
REMARK                            x       y       z     vdW  Elec       q    Type
REMARK                         _______ _______ _______ _____ _____    ______ ____
ROOT
ATOM      1  C   UNK    1       24.935 -13.160   4.086  0.00  0.00    +0.111 C 
ATOM      2  C   UNK    1       26.392 -12.818   3.692  0.00  0.00    +0.165 C 
ATOM      3  C   UNK    1       27.333 -13.994   3.988  0.00  0.00    +0.174 C 
ATOM      4  C   UNK    1       26.818 -15.298   3.367  0.00  0.00    +0.159 C 
ATOM      5  C   UNK    1       25.364 -15.544   3.785  0.00  0.00    +0.115 C 
ATOM      6  N   UNK    1       24.472 -14.422   3.471  0.00  0.00    -0.306 NA
ATOM      7  H   UNK    1       24.353 -14.330   2.464  0.00  0.00    +0.122 HD
ENDROOT
BRANCH   2   8
ATOM      8  O   UNK    1       26.499 -12.466   2.300  0.00  0.00    -0.388 OA
ATOM      9  H   UNK    1       25.666 -12.707   1.861  0.00  0.00    +0.210 HD
ENDBRANCH   2   8
BRANCH   3  10
ATOM     10  O   UNK    1       28.645 -13.731   3.460  0.00  0.00    -0.387 OA
ATOM     11  H   UNK    1       29.181 -14.526   3.656  0.00  0.00    +0.210 HD
ENDBRANCH   3  10
BRANCH   4  12
ATOM     12  O   UNK    1       27.644 -16.385   3.788  0.00  0.00    -0.388 OA
ATOM     13  H   UNK    1       27.965 -16.805   2.965  0.00  0.00    +0.210 HD
ENDBRANCH   4  12
BRANCH   1  14
ATOM     14  C   UNK    1       23.960 -12.020   3.727  0.00  0.00    +0.177 C 
BRANCH  14  15
ATOM     15  O   UNK    1       23.788 -11.902   2.319  0.00  0.00    -0.393 OA
ATOM     16  H   UNK    1       23.165 -12.600   2.047  0.00  0.00    +0.209 HD
ENDBRANCH  14  15
ENDBRANCH   1  14
TORSDOF 5
ENDMDL
MODEL 9
REMARK VINA RESULT:      -3.3      1.857      2.489
REMARK  Name = *****
REMARK                            x       y       z     vdW  Elec       q    Type
REMARK                         _______ _______ _______ _____ _____    ______ ____
ROOT
ATOM      1  C   UNK    1       26.321 -19.696   5.266  0.00  0.00    +0.111 C 
ATOM      2  C   UNK    1       25.495 -20.293   6.431  0.00  0.00    +0.165 C 
ATOM      3  C   UNK    1       24.019 -20.447   6.039  0.00  0.00    +0.174 C 
ATOM      4  C   UNK    1       23.864 -21.212   4.719  0.00  0.00    +0.159 C 
ATOM      5  C   UNK    1       24.734 -20.573   3.631  0.00  0.00    +0.115 C 
ATOM      6  N   UNK    1       26.147 -20.457   4.011  0.00  0.00    -0.306 NA
ATOM      7  H   UNK    1       26.579 -21.377   4.065  0.00  0.00    +0.122 HD
ENDROOT
BRANCH   2   8
ATOM      8  O   UNK    1       26.008 -21.572   6.847  0.00  0.00    -0.388 OA
ATOM      9  H   UNK    1       26.808 -21.419   7.378  0.00  0.00    +0.210 HD
ENDBRANCH   2   8
BRANCH   3  10
ATOM     10  O   UNK    1       23.300 -21.159   7.061  0.00  0.00    -0.387 OA
ATOM     11  H   UNK    1       22.567 -20.572   7.337  0.00  0.00    +0.210 HD
ENDBRANCH   3  10
BRANCH   4  12
ATOM     12  O   UNK    1       22.491 -21.205   4.323  0.00  0.00    -0.388 OA
ATOM     13  H   UNK    1       22.120 -20.373   4.680  0.00  0.00    +0.210 HD
ENDBRANCH   4  12
BRANCH   1  14
ATOM     14  C   UNK    1       27.820 -19.603   5.613  0.00  0.00    +0.177 C 
BRANCH  14  15
ATOM     15  O   UNK    1       28.403 -20.893   5.768  0.00  0.00    -0.393 OA
ATOM     16  H   UNK    1       28.122 -21.232   6.637  0.00  0.00    +0.209 HD
ENDBRANCH  14  15
ENDBRANCH   1  14
TORSDOF 5
ENDMDL
