MODEL 1
REMARK VINA RESULT:      -8.9      0.000      0.000
REMARK  Name = *****
REMARK                            x       y       z     vdW  Elec       q    Type
REMARK                         _______ _______ _______ _____ _____    ______ ____
ROOT
ATOM      1  N   LIG    1       25.153 -24.018   5.855  0.00  0.00    -0.302 NA
ATOM      2  C   LIG    1       24.759 -22.803   5.137  0.00  0.00    +0.085 C 
ATOM      3  C   LIG    1       24.316 -21.660   6.053  0.00  0.00    +0.025 C 
ATOM      4  C   LIG    1       25.419 -21.270   7.053  0.00  0.00    +0.044 C 
ATOM      5  C   LIG    1       25.854 -22.546   7.799  0.00  0.00    +0.025 C 
ATOM      6  C   LIG    1       26.208 -23.696   6.840  0.00  0.00    +0.085 C 
ENDROOT
BRANCH   4   7
ATOM      7  C   LIG    1       26.557 -20.495   6.414  0.00  0.00    +0.095 A 
ATOM      8  C   LIG    1       27.902 -20.357   6.870  0.00  0.00    +0.045 A 
ATOM      9  C   LIG    1       28.496 -19.543   5.918  0.00  0.00    +0.170 A 
ATOM     10  C   LIG    1       29.818 -19.111   5.957  0.00  0.00    +0.088 A 
ATOM     11  C   LIG    1       30.563 -19.552   7.048  0.00  0.00    +0.127 A 
ATOM     12  C   LIG    1       30.020 -20.379   8.030  0.00  0.00    +0.039 A 
ATOM     13  F   LIG    1       31.843 -19.170   7.158  0.00  0.00    -0.205 F 
ATOM     14  O   LIG    1       27.588 -19.243   4.957  0.00  0.00    -0.354 OA
ATOM     15  C   LIG    1       28.686 -20.801   7.952  0.00  0.00    +0.016 A 
ATOM     16  N   LIG    1       26.383 -19.847   5.252  0.00  0.00    -0.082 NA
ENDBRANCH   4   7
BRANCH   1  17
ATOM     17  C   LIG    1       24.062 -24.818   6.453  0.00  0.00    +0.088 C 
BRANCH  17  18
ATOM     18  C   LIG    1       23.965 -26.273   5.969  0.00  0.00    +0.056 C 
BRANCH  18  19
ATOM     19  C   LIG    1       25.293 -26.846   5.448  0.00  0.00    +0.230 C 
BRANCH  19  20
ATOM     20  O   LIG    1       25.421 -28.257   5.676  0.00  0.00    -0.488 OA
BRANCH  20  22
ATOM     21  C   LIG    1       24.509 -29.626   7.433  0.00  0.00    +0.162 A 
ATOM     22  C   LIG    1       25.405 -28.633   7.003  0.00  0.00    +0.162 A 
ATOM     23  C   LIG    1       26.265 -28.052   7.954  0.00  0.00    +0.050 A 
ATOM     24  C   LIG    1       26.319 -28.527   9.267  0.00  0.00    +0.015 A 
ATOM     25  C   LIG    1       25.441 -29.522   9.692  0.00  0.00    +0.021 A 
ATOM     26  C   LIG    1       24.513 -30.045   8.768  0.00  0.00    +0.060 A 
BRANCH  25  27
ATOM     27  C   LIG    1       25.498 -30.017  11.088  0.00  0.00    +0.160 C 
ATOM     28  O   LIG    1       26.358 -30.853  11.422  0.00  0.00    -0.292 OA
ATOM     29  C   LIG    1       24.455 -29.484  12.055  0.00  0.00    +0.091 C 
ENDBRANCH  25  27
BRANCH  21  31
ATOM     30  C   LIG    1       23.945 -31.581   6.221  0.00  0.00    +0.277 C 
ATOM     31  O   LIG    1       23.570 -30.299   6.696  0.00  0.00    -0.491 OA
ENDBRANCH  21  31
ENDBRANCH  20  22
ENDBRANCH  19  20
ENDBRANCH  18  19
ENDBRANCH  17  18
ENDBRANCH   1  17
TORSDOF 8
ENDMDL
MODEL 2
REMARK VINA RESULT:      -8.8      3.206      4.888
REMARK  Name = *****
REMARK                            x       y       z     vdW  Elec       q    Type
REMARK                         _______ _______ _______ _____ _____    ______ ____
ROOT
ATOM      1  N   LIG    1       24.659 -29.106   5.724  0.00  0.00    -0.302 NA
ATOM      2  C   LIG    1       24.694 -28.482   7.050  0.00  0.00    +0.085 C 
ATOM      3  C   LIG    1       25.906 -27.575   7.273  0.00  0.00    +0.025 C 
ATOM      4  C   LIG    1       25.975 -26.447   6.228  0.00  0.00    +0.044 C 
ATOM      5  C   LIG    1       25.919 -27.094   4.831  0.00  0.00    +0.025 C 
ATOM      6  C   LIG    1       24.733 -28.063   4.679  0.00  0.00    +0.085 C 
ENDROOT
BRANCH   4   7
ATOM      7  C   LIG    1       24.949 -25.355   6.460  0.00  0.00    +0.095 A 
ATOM      8  C   LIG    1       25.167 -24.000   6.851  0.00  0.00    +0.045 A 
ATOM      9  C   LIG    1       23.892 -23.461   6.921  0.00  0.00    +0.170 A 
ATOM     10  C   LIG    1       23.603 -22.152   7.292  0.00  0.00    +0.088 A 
ATOM     11  C   LIG    1       24.703 -21.359   7.609  0.00  0.00    +0.127 A 
ATOM     12  C   LIG    1       26.008 -21.846   7.548  0.00  0.00    +0.039 A 
ATOM     13  F   LIG    1       24.503 -20.089   7.983  0.00  0.00    -0.205 F 
ATOM     14  O   LIG    1       22.987 -24.408   6.570  0.00  0.00    -0.354 OA
ATOM     15  C   LIG    1       26.261 -23.169   7.160  0.00  0.00    +0.016 A 
ATOM     16  N   LIG    1       23.641 -25.585   6.266  0.00  0.00    -0.082 NA
ENDBRANCH   4   7
BRANCH   1  17
ATOM     17  C   LIG    1       25.621 -30.203   5.483  0.00  0.00    +0.088 C 
BRANCH  17  18
ATOM     18  C   LIG    1       25.059 -31.625   5.646  0.00  0.00    +0.056 C 
BRANCH  18  19
ATOM     19  C   LIG    1       25.870 -32.507   6.610  0.00  0.00    +0.230 C 
BRANCH  19  20
ATOM     20  O   LIG    1       25.214 -32.705   7.871  0.00  0.00    -0.488 OA
BRANCH  20  22
ATOM     21  C   LIG    1       24.186 -31.111   9.354  0.00  0.00    +0.162 A 
ATOM     22  C   LIG    1       25.337 -31.657   8.759  0.00  0.00    +0.162 A 
ATOM     23  C   LIG    1       26.587 -31.105   9.097  0.00  0.00    +0.050 A 
ATOM     24  C   LIG    1       26.704 -30.125  10.086  0.00  0.00    +0.015 A 
ATOM     25  C   LIG    1       25.565 -29.593  10.686  0.00  0.00    +0.021 A 
ATOM     26  C   LIG    1       24.301 -30.076  10.287  0.00  0.00    +0.060 A 
BRANCH  25  27
ATOM     27  C   LIG    1       25.694 -28.549  11.730  0.00  0.00    +0.160 C 
ATOM     28  O   LIG    1       24.793 -28.391  12.574  0.00  0.00    -0.292 OA
ATOM     29  C   LIG    1       26.941 -27.682  11.691  0.00  0.00    +0.091 C 
ENDBRANCH  25  27
BRANCH  21  31
ATOM     30  C   LIG    1       21.995 -31.257  10.241  0.00  0.00    +0.277 C 
ATOM     31  O   LIG    1       22.878 -31.466   9.152  0.00  0.00    -0.491 OA
ENDBRANCH  21  31
ENDBRANCH  20  22
ENDBRANCH  19  20
ENDBRANCH  18  19
ENDBRANCH  17  18
ENDBRANCH   1  17
TORSDOF 8
ENDMDL
MODEL 3
REMARK VINA RESULT:      -8.8      1.744      2.376
REMARK  Name = *****
REMARK                            x       y       z     vdW  Elec       q    Type
REMARK                         _______ _______ _______ _____ _____    ______ ____
ROOT
ATOM      1  N   LIG    1       24.985 -24.627   5.548  0.00  0.00    -0.302 NA
ATOM      2  C   LIG    1       24.442 -23.373   5.019  0.00  0.00    +0.085 C 
ATOM      3  C   LIG    1       23.994 -22.390   6.102  0.00  0.00    +0.025 C 
ATOM      4  C   LIG    1       25.145 -22.029   7.057  0.00  0.00    +0.044 C 
ATOM      5  C   LIG    1       25.735 -23.344   7.603  0.00  0.00    +0.025 C 
ATOM      6  C   LIG    1       26.092 -24.337   6.483  0.00  0.00    +0.085 C 
ENDROOT
BRANCH   4   7
ATOM      7  C   LIG    1       26.163 -21.090   6.439  0.00  0.00    +0.095 A 
ATOM      8  C   LIG    1       27.520 -20.873   6.824  0.00  0.00    +0.045 A 
ATOM      9  C   LIG    1       27.973 -19.915   5.931  0.00  0.00    +0.170 A 
ATOM     10  C   LIG    1       29.252 -19.367   5.937  0.00  0.00    +0.088 A 
ATOM     11  C   LIG    1       30.107 -19.845   6.927  0.00  0.00    +0.127 A 
ATOM     12  C   LIG    1       29.708 -20.814   7.845  0.00  0.00    +0.039 A 
ATOM     13  F   LIG    1       31.353 -19.358   6.999  0.00  0.00    -0.205 F 
ATOM     14  O   LIG    1       26.978 -19.605   5.064  0.00  0.00    -0.354 OA
ATOM     15  C   LIG    1       28.413 -21.350   7.803  0.00  0.00    +0.016 A 
ATOM     16  N   LIG    1       25.853 -20.347   5.365  0.00  0.00    -0.082 NA
ENDBRANCH   4   7
BRANCH   1  17
ATOM     17  C   LIG    1       24.011 -25.582   6.120  0.00  0.00    +0.088 C 
BRANCH  17  18
ATOM     18  C   LIG    1       24.564 -26.980   6.443  0.00  0.00    +0.056 C 
BRANCH  18  19
ATOM     19  C   LIG    1       24.322 -28.016   5.334  0.00  0.00    +0.230 C 
BRANCH  19  20
ATOM     20  O   LIG    1       23.721 -29.225   5.820  0.00  0.00    -0.488 OA
BRANCH  20  22
ATOM     21  C   LIG    1       24.536 -30.417   7.746  0.00  0.00    +0.162 A 
ATOM     22  C   LIG    1       24.604 -30.129   6.372  0.00  0.00    +0.162 A 
ATOM     23  C   LIG    1       25.584 -30.784   5.601  0.00  0.00    +0.050 A 
ATOM     24  C   LIG    1       26.390 -31.783   6.152  0.00  0.00    +0.015 A 
ATOM     25  C   LIG    1       26.315 -32.079   7.511  0.00  0.00    +0.021 A 
ATOM     26  C   LIG    1       25.399 -31.363   8.310  0.00  0.00    +0.060 A 
BRANCH  25  27
ATOM     27  C   LIG    1       27.178 -33.135   8.090  0.00  0.00    +0.160 C 
ATOM     28  O   LIG    1       27.106 -33.409   9.303  0.00  0.00    -0.292 OA
ATOM     29  C   LIG    1       28.154 -33.825   7.152  0.00  0.00    +0.091 C 
ENDBRANCH  25  27
BRANCH  21  31
ATOM     30  C   LIG    1       23.200 -30.775   9.669  0.00  0.00    +0.277 C 
ATOM     31  O   LIG    1       23.693 -29.882   8.684  0.00  0.00    -0.491 OA
ENDBRANCH  21  31
ENDBRANCH  20  22
ENDBRANCH  19  20
ENDBRANCH  18  19
ENDBRANCH  17  18
ENDBRANCH   1  17
TORSDOF 8
ENDMDL
MODEL 4
REMARK VINA RESULT:      -8.6      3.033      9.014
REMARK  Name = *****
REMARK                            x       y       z     vdW  Elec       q    Type
REMARK                         _______ _______ _______ _____ _____    ______ ____
ROOT
ATOM      1  N   LIG    1       24.670 -24.702   6.455  0.00  0.00    -0.302 NA
ATOM      2  C   LIG    1       23.731 -25.699   5.934  0.00  0.00    +0.085 C 
ATOM      3  C   LIG    1       24.382 -26.744   5.026  0.00  0.00    +0.025 C 
ATOM      4  C   LIG    1       25.511 -27.503   5.747  0.00  0.00    +0.044 C 
ATOM      5  C   LIG    1       26.493 -26.461   6.315  0.00  0.00    +0.025 C 
ATOM      6  C   LIG    1       25.784 -25.381   7.151  0.00  0.00    +0.085 C 
ENDROOT
BRANCH   4   7
ATOM      7  C   LIG    1       25.001 -28.509   6.762  0.00  0.00    +0.095 A 
ATOM      8  C   LIG    1       25.501 -28.781   8.070  0.00  0.00    +0.045 A 
ATOM      9  C   LIG    1       24.673 -29.786   8.544  0.00  0.00    +0.170 A 
ATOM     10  C   LIG    1       24.796 -30.395   9.788  0.00  0.00    +0.088 A 
ATOM     11  C   LIG    1       25.841 -29.933  10.584  0.00  0.00    +0.127 A 
ATOM     12  C   LIG    1       26.700 -28.919  10.163  0.00  0.00    +0.039 A 
ATOM     13  F   LIG    1       26.028 -30.478  11.794  0.00  0.00    -0.205 F 
ATOM     14  O   LIG    1       23.735 -30.071   7.607  0.00  0.00    -0.354 OA
ATOM     15  C   LIG    1       26.538 -28.321   8.904  0.00  0.00    +0.016 A 
ATOM     16  N   LIG    1       23.924 -29.267   6.501  0.00  0.00    -0.082 NA
ENDBRANCH   4   7
BRANCH   1  17
ATOM     17  C   LIG    1       25.153 -23.683   5.499  0.00  0.00    +0.088 C 
BRANCH  17  18
ATOM     18  C   LIG    1       24.367 -22.362   5.484  0.00  0.00    +0.056 C 
BRANCH  18  19
ATOM     19  C   LIG    1       25.083 -21.219   4.747  0.00  0.00    +0.230 C 
BRANCH  19  20
ATOM     20  O   LIG    1       25.392 -20.109   5.602  0.00  0.00    -0.488 OA
BRANCH  20  22
ATOM     21  C   LIG    1       26.834 -20.456   7.498  0.00  0.00    +0.162 A 
ATOM     22  C   LIG    1       26.661 -20.130   6.142  0.00  0.00    +0.162 A 
ATOM     23  C   LIG    1       27.805 -19.835   5.376  0.00  0.00    +0.050 A 
ATOM     24  C   LIG    1       29.089 -19.978   5.907  0.00  0.00    +0.015 A 
ATOM     25  C   LIG    1       29.262 -20.315   7.248  0.00  0.00    +0.021 A 
ATOM     26  C   LIG    1       28.119 -20.523   8.047  0.00  0.00    +0.060 A 
BRANCH  25  27
ATOM     27  C   LIG    1       30.627 -20.458   7.808  0.00  0.00    +0.160 C 
ATOM     28  O   LIG    1       31.565 -19.774   7.357  0.00  0.00    -0.292 OA
ATOM     29  C   LIG    1       30.819 -21.483   8.913  0.00  0.00    +0.091 C 
ENDBRANCH  25  27
BRANCH  21  31
ATOM     30  C   LIG    1       25.792 -22.097   8.852  0.00  0.00    +0.277 C 
ATOM     31  O   LIG    1       25.872 -20.746   8.430  0.00  0.00    -0.491 OA
ENDBRANCH  21  31
ENDBRANCH  20  22
ENDBRANCH  19  20
ENDBRANCH  18  19
ENDBRANCH  17  18
ENDBRANCH   1  17
TORSDOF 8
ENDMDL
MODEL 5
REMARK VINA RESULT:      -8.5      3.975      9.532
REMARK  Name = *****
REMARK                            x       y       z     vdW  Elec       q    Type
REMARK                         _______ _______ _______ _____ _____    ______ ____
ROOT
ATOM      1  N   LIG    1       27.170 -20.888   6.104  0.00  0.00    -0.302 NA
ATOM      2  C   LIG    1       26.988 -21.788   7.246  0.00  0.00    +0.085 C 
ATOM      3  C   LIG    1       25.795 -21.425   8.133  0.00  0.00    +0.025 C 
ATOM      4  C   LIG    1       24.477 -21.410   7.339  0.00  0.00    +0.044 C 
ATOM      5  C   LIG    1       24.667 -20.481   6.125  0.00  0.00    +0.025 C 
ATOM      6  C   LIG    1       25.925 -20.829   5.309  0.00  0.00    +0.085 C 
ENDROOT
BRANCH   4   7
ATOM      7  C   LIG    1       23.969 -22.798   6.998  0.00  0.00    +0.095 A 
ATOM      8  C   LIG    1       24.725 -23.974   6.711  0.00  0.00    +0.045 A 
ATOM      9  C   LIG    1       23.763 -24.940   6.463  0.00  0.00    +0.170 A 
ATOM     10  C   LIG    1       24.034 -26.259   6.113  0.00  0.00    +0.088 A 
ATOM     11  C   LIG    1       25.383 -26.590   6.014  0.00  0.00    +0.127 A 
ATOM     12  C   LIG    1       26.393 -25.662   6.260  0.00  0.00    +0.039 A 
ATOM     13  F   LIG    1       25.722 -27.841   5.673  0.00  0.00    -0.205 F 
ATOM     14  O   LIG    1       22.532 -24.394   6.619  0.00  0.00    -0.354 OA
ATOM     15  C   LIG    1       26.082 -24.343   6.621  0.00  0.00    +0.016 A 
ATOM     16  N   LIG    1       22.654 -23.064   6.968  0.00  0.00    -0.082 NA
ENDBRANCH   4   7
BRANCH   1  17
ATOM     17  C   LIG    1       27.703 -19.541   6.400  0.00  0.00    +0.088 C 
BRANCH  17  18
ATOM     18  C   LIG    1       28.618 -18.937   5.321  0.00  0.00    +0.056 C 
BRANCH  18  19
ATOM     19  C   LIG    1       30.076 -18.754   5.772  0.00  0.00    +0.230 C 
BRANCH  19  20
ATOM     20  O   LIG    1       30.418 -19.568   6.903  0.00  0.00    -0.488 OA
BRANCH  20  22
ATOM     21  C   LIG    1       31.463 -19.438   9.068  0.00  0.00    +0.162 A 
ATOM     22  C   LIG    1       30.654 -18.869   8.069  0.00  0.00    +0.162 A 
ATOM     23  C   LIG    1       30.111 -17.590   8.298  0.00  0.00    +0.050 A 
ATOM     24  C   LIG    1       30.458 -16.848   9.429  0.00  0.00    +0.015 A 
ATOM     25  C   LIG    1       31.270 -17.405  10.414  0.00  0.00    +0.021 A 
ATOM     26  C   LIG    1       31.744 -18.722  10.236  0.00  0.00    +0.060 A 
BRANCH  25  27
ATOM     27  C   LIG    1       31.628 -16.616  11.617  0.00  0.00    +0.160 C 
ATOM     28  O   LIG    1       30.811 -15.814  12.107  0.00  0.00    -0.292 OA
ATOM     29  C   LIG    1       33.025 -16.810  12.182  0.00  0.00    +0.091 C 
ENDBRANCH  25  27
BRANCH  21  31
ATOM     30  C   LIG    1       31.203 -21.789   9.183  0.00  0.00    +0.277 C 
ATOM     31  O   LIG    1       32.065 -20.669   9.074  0.00  0.00    -0.491 OA
ENDBRANCH  21  31
ENDBRANCH  20  22
ENDBRANCH  19  20
ENDBRANCH  18  19
ENDBRANCH  17  18
ENDBRANCH   1  17
TORSDOF 8
ENDMDL
MODEL 6
REMARK VINA RESULT:      -8.3      3.179      5.224
REMARK  Name = *****
REMARK                            x       y       z     vdW  Elec       q    Type
REMARK                         _______ _______ _______ _____ _____    ______ ____
ROOT
ATOM      1  N   LIG    1       24.628 -29.297   6.205  0.00  0.00    -0.302 NA
ATOM      2  C   LIG    1       24.794 -28.516   7.434  0.00  0.00    +0.085 C 
ATOM      3  C   LIG    1       26.010 -27.588   7.415  0.00  0.00    +0.025 C 
ATOM      4  C   LIG    1       25.954 -26.596   6.239  0.00  0.00    +0.044 C 
ATOM      5  C   LIG    1       25.760 -27.408   4.945  0.00  0.00    +0.025 C 
ATOM      6  C   LIG    1       24.578 -28.390   5.039  0.00  0.00    +0.085 C 
ENDROOT
BRANCH   4   7
ATOM      7  C   LIG    1       24.942 -25.484   6.444  0.00  0.00    +0.095 A 
ATOM      8  C   LIG    1       25.177 -24.130   6.828  0.00  0.00    +0.045 A 
ATOM      9  C   LIG    1       23.911 -23.569   6.871  0.00  0.00    +0.170 A 
ATOM     10  C   LIG    1       23.638 -22.251   7.226  0.00  0.00    +0.088 A 
ATOM     11  C   LIG    1       24.747 -21.475   7.554  0.00  0.00    +0.127 A 
ATOM     12  C   LIG    1       26.044 -21.984   7.519  0.00  0.00    +0.039 A 
ATOM     13  F   LIG    1       24.562 -20.198   7.914  0.00  0.00    -0.205 F 
ATOM     14  O   LIG    1       22.996 -24.503   6.514  0.00  0.00    -0.354 OA
ATOM     15  C   LIG    1       26.281 -23.315   7.147  0.00  0.00    +0.016 A 
ATOM     16  N   LIG    1       23.634 -25.694   6.231  0.00  0.00    -0.082 NA
ENDBRANCH   4   7
BRANCH   1  17
ATOM     17  C   LIG    1       25.574 -30.415   5.997  0.00  0.00    +0.088 C 
BRANCH  17  18
ATOM     18  C   LIG    1       24.933 -31.798   5.797  0.00  0.00    +0.056 C 
BRANCH  18  19
ATOM     19  C   LIG    1       24.237 -32.349   7.052  0.00  0.00    +0.230 C 
BRANCH  19  20
ATOM     20  O   LIG    1       25.029 -32.203   8.240  0.00  0.00    -0.488 OA
BRANCH  20  22
ATOM     21  C   LIG    1       25.203 -30.983  10.308  0.00  0.00    +0.162 A 
ATOM     22  C   LIG    1       24.423 -31.493   9.256  0.00  0.00    +0.162 A 
ATOM     23  C   LIG    1       23.036 -31.255   9.278  0.00  0.00    +0.050 A 
ATOM     24  C   LIG    1       22.456 -30.434  10.249  0.00  0.00    +0.015 A 
ATOM     25  C   LIG    1       23.230 -29.917  11.285  0.00  0.00    +0.021 A 
ATOM     26  C   LIG    1       24.606 -30.225  11.322  0.00  0.00    +0.060 A 
BRANCH  25  27
ATOM     27  C   LIG    1       22.609 -29.052  12.316  0.00  0.00    +0.160 C 
ATOM     28  O   LIG    1       23.277 -28.161  12.873  0.00  0.00    -0.292 OA
ATOM     29  C   LIG    1       21.157 -29.329  12.669  0.00  0.00    +0.091 C 
ENDBRANCH  25  27
BRANCH  21  31
ATOM     30  C   LIG    1       27.360 -30.033  10.078  0.00  0.00    +0.277 C 
ATOM     31  O   LIG    1       26.552 -31.116  10.506  0.00  0.00    -0.491 OA
ENDBRANCH  21  31
ENDBRANCH  20  22
ENDBRANCH  19  20
ENDBRANCH  18  19
ENDBRANCH  17  18
ENDBRANCH   1  17
TORSDOF 8
ENDMDL
MODEL 7
REMARK VINA RESULT:      -8.3      3.748      9.729
REMARK  Name = *****
REMARK                            x       y       z     vdW  Elec       q    Type
REMARK                         _______ _______ _______ _____ _____    ______ ____
ROOT
ATOM      1  N   LIG    1       26.189 -26.415   5.843  0.00  0.00    -0.302 NA
ATOM      2  C   LIG    1       25.829 -27.093   7.091  0.00  0.00    +0.085 C 
ATOM      3  C   LIG    1       24.456 -27.768   7.052  0.00  0.00    +0.025 C 
ATOM      4  C   LIG    1       24.361 -28.803   5.918  0.00  0.00    +0.044 C 
ATOM      5  C   LIG    1       24.758 -28.103   4.604  0.00  0.00    +0.025 C 
ATOM      6  C   LIG    1       26.104 -27.366   4.715  0.00  0.00    +0.085 C 
ENDROOT
BRANCH   4   7
ATOM      7  C   LIG    1       25.128 -30.080   6.209  0.00  0.00    +0.095 A 
ATOM      8  C   LIG    1       25.180 -30.826   7.424  0.00  0.00    +0.045 A 
ATOM      9  C   LIG    1       26.028 -31.883   7.133  0.00  0.00    +0.170 A 
ATOM     10  C   LIG    1       26.400 -32.874   8.035  0.00  0.00    +0.088 A 
ATOM     11  C   LIG    1       25.860 -32.758   9.313  0.00  0.00    +0.127 A 
ATOM     12  C   LIG    1       24.995 -31.722   9.660  0.00  0.00    +0.039 A 
ATOM     13  F   LIG    1       26.179 -33.672  10.239  0.00  0.00    -0.205 F 
ATOM     14  O   LIG    1       26.427 -31.792   5.840  0.00  0.00    -0.354 OA
ATOM     15  C   LIG    1       24.634 -30.746   8.720  0.00  0.00    +0.016 A 
ATOM     16  N   LIG    1       25.856 -30.680   5.255  0.00  0.00    -0.082 NA
ENDBRANCH   4   7
BRANCH   1  17
ATOM     17  C   LIG    1       25.488 -25.145   5.552  0.00  0.00    +0.088 C 
BRANCH  17  18
ATOM     18  C   LIG    1       25.151 -24.278   6.776  0.00  0.00    +0.056 C 
BRANCH  18  19
ATOM     19  C   LIG    1       23.741 -23.668   6.737  0.00  0.00    +0.230 C 
BRANCH  19  20
ATOM     20  O   LIG    1       23.720 -22.282   7.108  0.00  0.00    -0.488 OA
BRANCH  20  22
ATOM     21  C   LIG    1       25.545 -21.148   6.022  0.00  0.00    +0.162 A 
ATOM     22  C   LIG    1       24.962 -21.685   7.183  0.00  0.00    +0.162 A 
ATOM     23  C   LIG    1       25.675 -21.590   8.393  0.00  0.00    +0.050 A 
ATOM     24  C   LIG    1       26.874 -20.878   8.473  0.00  0.00    +0.015 A 
ATOM     25  C   LIG    1       27.447 -20.334   7.326  0.00  0.00    +0.021 A 
ATOM     26  C   LIG    1       26.785 -20.503   6.092  0.00  0.00    +0.060 A 
BRANCH  25  27
ATOM     27  C   LIG    1       28.723 -19.585   7.416  0.00  0.00    +0.160 C 
ATOM     28  O   LIG    1       29.273 -19.414   8.520  0.00  0.00    -0.292 OA
ATOM     29  C   LIG    1       29.291 -19.026   6.123  0.00  0.00    +0.091 C 
ENDBRANCH  25  27
BRANCH  21  31
ATOM     30  C   LIG    1       24.916 -19.890   4.117  0.00  0.00    +0.277 C 
ATOM     31  O   LIG    1       25.051 -21.154   4.744  0.00  0.00    -0.491 OA
ENDBRANCH  21  31
ENDBRANCH  20  22
ENDBRANCH  19  20
ENDBRANCH  18  19
ENDBRANCH  17  18
ENDBRANCH   1  17
TORSDOF 8
ENDMDL
MODEL 8
REMARK VINA RESULT:      -8.2      1.228      2.126
REMARK  Name = *****
REMARK                            x       y       z     vdW  Elec       q    Type
REMARK                         _______ _______ _______ _____ _____    ______ ____
ROOT
ATOM      1  N   LIG    1       25.175 -24.066   5.824  0.00  0.00    -0.302 NA
ATOM      2  C   LIG    1       24.759 -22.853   5.114  0.00  0.00    +0.085 C 
ATOM      3  C   LIG    1       24.307 -21.722   6.040  0.00  0.00    +0.025 C 
ATOM      4  C   LIG    1       25.411 -21.322   7.034  0.00  0.00    +0.044 C 
ATOM      5  C   LIG    1       25.869 -22.595   7.771  0.00  0.00    +0.025 C 
ATOM      6  C   LIG    1       26.233 -23.735   6.803  0.00  0.00    +0.085 C 
ENDROOT
BRANCH   4   7
ATOM      7  C   LIG    1       26.533 -20.527   6.393  0.00  0.00    +0.095 A 
ATOM      8  C   LIG    1       27.876 -20.363   6.845  0.00  0.00    +0.045 A 
ATOM      9  C   LIG    1       28.454 -19.540   5.892  0.00  0.00    +0.170 A 
ATOM     10  C   LIG    1       29.768 -19.085   5.927  0.00  0.00    +0.088 A 
ATOM     11  C   LIG    1       30.523 -19.509   7.018  0.00  0.00    +0.127 A 
ATOM     12  C   LIG    1       29.997 -20.344   8.003  0.00  0.00    +0.039 A 
ATOM     13  F   LIG    1       31.795 -19.104   7.125  0.00  0.00    -0.205 F 
ATOM     14  O   LIG    1       27.540 -19.259   4.931  0.00  0.00    -0.354 OA
ATOM     15  C   LIG    1       28.670 -20.791   7.928  0.00  0.00    +0.016 A 
ATOM     16  N   LIG    1       26.346 -19.885   5.230  0.00  0.00    -0.082 NA
ENDBRANCH   4   7
BRANCH   1  17
ATOM     17  C   LIG    1       24.100 -24.884   6.425  0.00  0.00    +0.088 C 
BRANCH  17  18
ATOM     18  C   LIG    1       24.039 -26.348   5.956  0.00  0.00    +0.056 C 
BRANCH  18  19
ATOM     19  C   LIG    1       25.403 -27.055   5.947  0.00  0.00    +0.230 C 
BRANCH  19  20
ATOM     20  O   LIG    1       25.907 -27.316   7.265  0.00  0.00    -0.488 OA
BRANCH  20  22
ATOM     21  C   LIG    1       26.117 -28.986   8.987  0.00  0.00    +0.162 A 
ATOM     22  C   LIG    1       25.508 -28.520   7.809  0.00  0.00    +0.162 A 
ATOM     23  C   LIG    1       24.502 -29.310   7.221  0.00  0.00    +0.050 A 
ATOM     24  C   LIG    1       24.029 -30.465   7.848  0.00  0.00    +0.015 A 
ATOM     25  C   LIG    1       24.621 -30.920   9.023  0.00  0.00    +0.021 A 
ATOM     26  C   LIG    1       25.692 -30.184   9.571  0.00  0.00    +0.060 A 
BRANCH  25  27
ATOM     27  C   LIG    1       24.119 -32.151   9.680  0.00  0.00    +0.160 C 
ATOM     28  O   LIG    1       23.039 -32.657   9.323  0.00  0.00    -0.292 OA
ATOM     29  C   LIG    1       24.959 -32.726  10.808  0.00  0.00    +0.091 C 
ENDBRANCH  25  27
BRANCH  21  31
ATOM     30  C   LIG    1       26.854 -28.140  11.073  0.00  0.00    +0.277 C 
ATOM     31  O   LIG    1       27.127 -28.404   9.707  0.00  0.00    -0.491 OA
ENDBRANCH  21  31
ENDBRANCH  20  22
ENDBRANCH  19  20
ENDBRANCH  18  19
ENDBRANCH  17  18
ENDBRANCH   1  17
TORSDOF 8
ENDMDL
MODEL 9
REMARK VINA RESULT:      -8.1      3.716      9.920
REMARK  Name = *****
REMARK                            x       y       z     vdW  Elec       q    Type
REMARK                         _______ _______ _______ _____ _____    ______ ____
ROOT
ATOM      1  N   LIG    1       25.744 -21.915   6.114  0.00  0.00    -0.302 NA
ATOM      2  C   LIG    1       26.558 -22.986   6.694  0.00  0.00    +0.085 C 
ATOM      3  C   LIG    1       25.783 -23.905   7.641  0.00  0.00    +0.025 C 
ATOM      4  C   LIG    1       24.582 -24.563   6.942  0.00  0.00    +0.044 C 
ATOM      5  C   LIG    1       23.730 -23.445   6.311  0.00  0.00    +0.025 C 
ATOM      6  C   LIG    1       24.566 -22.494   5.435  0.00  0.00    +0.085 C 
ENDROOT
BRANCH   4   7
ATOM      7  C   LIG    1       24.981 -25.669   5.983  0.00  0.00    +0.095 A 
ATOM      8  C   LIG    1       24.881 -27.081   6.164  0.00  0.00    +0.045 A 
ATOM      9  C   LIG    1       25.393 -27.607   4.989  0.00  0.00    +0.170 A 
ATOM     10  C   LIG    1       25.520 -28.966   4.717  0.00  0.00    +0.088 A 
ATOM     11  C   LIG    1       25.090 -29.824   5.726  0.00  0.00    +0.127 A 
ATOM     12  C   LIG    1       24.560 -29.351   6.925  0.00  0.00    +0.039 A 
ATOM     13  F   LIG    1       25.189 -31.147   5.540  0.00  0.00    -0.205 F 
ATOM     14  O   LIG    1       25.742 -26.593   4.159  0.00  0.00    -0.354 OA
ATOM     15  C   LIG    1       24.439 -27.974   7.159  0.00  0.00    +0.016 A 
ATOM     16  N   LIG    1       25.472 -25.383   4.767  0.00  0.00    -0.082 NA
ENDBRANCH   4   7
BRANCH   1  17
ATOM     17  C   LIG    1       25.374 -20.801   7.014  0.00  0.00    +0.088 C 
BRANCH  17  18
ATOM     18  C   LIG    1       26.468 -20.348   7.994  0.00  0.00    +0.056 C 
BRANCH  18  19
ATOM     19  C   LIG    1       27.784 -19.941   7.312  0.00  0.00    +0.230 C 
BRANCH  19  20
ATOM     20  O   LIG    1       28.944 -20.459   7.980  0.00  0.00    -0.488 OA
BRANCH  20  22
ATOM     21  C   LIG    1       31.139 -19.794   8.712  0.00  0.00    +0.162 A 
ATOM     22  C   LIG    1       29.778 -19.501   8.518  0.00  0.00    +0.162 A 
ATOM     23  C   LIG    1       29.311 -18.224   8.885  0.00  0.00    +0.050 A 
ATOM     24  C   LIG    1       30.191 -17.228   9.316  0.00  0.00    +0.015 A 
ATOM     25  C   LIG    1       31.542 -17.512   9.496  0.00  0.00    +0.021 A 
ATOM     26  C   LIG    1       32.003 -18.816   9.218  0.00  0.00    +0.060 A 
BRANCH  25  27
ATOM     27  C   LIG    1       32.469 -16.453   9.961  0.00  0.00    +0.160 C 
ATOM     28  O   LIG    1       32.789 -15.521   9.200  0.00  0.00    -0.292 OA
ATOM     29  C   LIG    1       33.018 -16.583  11.372  0.00  0.00    +0.091 C 
ENDBRANCH  25  27
BRANCH  21  31
ATOM     30  C   LIG    1       31.440 -22.077   9.266  0.00  0.00    +0.277 C 
ATOM     31  O   LIG    1       31.798 -20.968   8.459  0.00  0.00    -0.491 OA
ENDBRANCH  21  31
ENDBRANCH  20  22
ENDBRANCH  19  20
ENDBRANCH  18  19
ENDBRANCH  17  18
ENDBRANCH   1  17
TORSDOF 8
ENDMDL
