MODEL 1
REMARK VINA RESULT:      81.8      0.000      0.000
REMARK  Name = *****
REMARK                            x       y       z     vdW  Elec       q    Type
REMARK                         _______ _______ _______ _____ _____    ______ ____
ROOT
ATOM      1  C   LIG    1       22.733 -21.520   5.541  0.00  0.00    +0.230 C 
ATOM      2  C   LIG    1       23.835 -20.379   5.538  0.00  0.00    +0.014 C 
ATOM      3  C   LIG    1       23.409 -19.228   6.475  0.00  0.00    +0.015 C 
ATOM      4  C   LIG    1       23.938 -19.995   4.035  0.00  0.00    +0.007 C 
ATOM      5  C   LIG    1       25.329 -19.711   3.429  0.00  0.00    -0.003 C 
ATOM      6  C   LIG    1       26.237 -18.906   4.365  0.00  0.00    -0.001 C 
ATOM      7  C   LIG    1       26.323 -19.661   5.735  0.00  0.00    +0.005 C 
ATOM      8  C   LIG    1       26.099 -17.281   4.308  0.00  0.00    -0.021 C 
ATOM      9  C   LIG    1       25.348 -16.708   5.532  0.00  0.00    +0.012 C 
ATOM     10  C   LIG    1       25.322 -16.726   3.039  0.00  0.00    -0.001 C 
ATOM     11  C   LIG    1       26.173 -15.833   2.135  0.00  0.00    +0.054 C 
ATOM     12  C   LIG    1       26.740 -14.681   2.952  0.00  0.00    +0.225 C 
ATOM     13  C   LIG    1       27.880 -15.231   3.849  0.00  0.00    +0.108 C 
ATOM     14  C   LIG    1       24.566 -17.707   2.144  0.00  0.00    +0.004 C 
ATOM     15  C   LIG    1       27.566 -16.667   4.408  0.00  0.00    +0.065 C 
ATOM     16  C   LIG    1       25.246 -19.051   2.054  0.00  0.00    +0.004 C 
ATOM     17  C   LIG    1       23.255 -21.137   3.256  0.00  0.00    +0.062 C 
ATOM     18  C   LIG    1       25.263 -20.801   5.962  0.00  0.00    +0.011 C 
ATOM     19  C   LIG    1       22.072 -21.572   4.106  0.00  0.00    +0.108 C 
ENDROOT
BRANCH  13  20
ATOM     20  N   LIG    1       28.426 -14.162   4.948  0.00  0.00    +0.246 N 
ATOM     21  C   LIG    1       27.272 -13.724   5.885  0.00  0.00    +0.133 C 
ATOM     22  C   LIG    1       27.699 -12.651   6.882  0.00  0.00    +0.051 C 
ATOM     23  C   LIG    1       28.302 -11.448   6.173  0.00  0.00    +0.010 C 
ATOM     24  C   LIG    1       29.475 -11.862   5.299  0.00  0.00    +0.051 C 
ATOM     25  C   LIG    1       29.078 -12.940   4.293  0.00  0.00    +0.133 C 
ATOM     26  C   LIG    1       29.473 -14.888   5.833  0.00  0.00    +0.193 C 
ENDBRANCH  13  20
BRANCH  19  27
ATOM     27  N   LIG    1       20.715 -20.720   3.804  0.00  0.00    +0.246 N 
ATOM     28  C   LIG    1       20.571 -20.517   2.263  0.00  0.00    +0.133 C 
ATOM     29  C   LIG    1       19.358 -19.660   1.889  0.00  0.00    +0.051 C 
ATOM     30  C   LIG    1       19.351 -18.322   2.615  0.00  0.00    +0.010 C 
ATOM     31  C   LIG    1       19.468 -18.514   4.118  0.00  0.00    +0.051 C 
ATOM     32  C   LIG    1       20.685 -19.355   4.468  0.00  0.00    +0.133 C 
ATOM     33  C   LIG    1       19.503 -21.543   4.284  0.00  0.00    +0.193 C 
ENDBRANCH  19  27
BRANCH   1  34
ATOM     34  O   LIG    1       21.697 -21.433   6.522  0.00  0.00    -0.455 OA
BRANCH  34  36
ATOM     35  C   LIG    1       21.514 -19.131   6.160  0.00  0.00    +0.136 C 
ATOM     36  C   LIG    1       20.808 -20.420   6.414  0.00  0.00    +0.304 C 
ATOM     37  O   LIG    1       19.579 -20.589   6.371  0.00  0.00    -0.251 OA
ENDBRANCH  34  36
ENDBRANCH   1  34
BRANCH  12  38
ATOM     38  O   LIG    1       27.211 -13.644   2.065  0.00  0.00    -0.456 OA
BRANCH  38  39
ATOM     39  C   LIG    1       26.939 -12.371   2.492  0.00  0.00    +0.304 C 
ATOM     40  O   LIG    1       27.770 -11.493   2.634  0.00  0.00    -0.251 OA
ATOM     41  C   LIG    1       25.455 -12.164   2.575  0.00  0.00    +0.136 C 
ENDBRANCH  38  39
ENDBRANCH  12  38
TORSDOF 6
ENDMDL
