MODEL 1
REMARK VINA RESULT:      -9.4      0.000      0.000
REMARK  Name = *****
REMARK                            x       y       z     vdW  Elec       q    Type
REMARK                         _______ _______ _______ _____ _____    ______ ____
ROOT
ATOM      1  C   LIG    1       27.751 -19.991   7.805  0.00  0.00    +0.122 A 
ATOM      2  C   LIG    1       27.321 -20.245   6.502  0.00  0.00    +0.046 A 
ATOM      3  C   LIG    1       26.251 -21.109   6.238  0.00  0.00    +0.015 A 
ATOM      4  C   LIG    1       25.563 -21.708   7.290  0.00  0.00    +0.022 A 
ATOM      5  C   LIG    1       25.960 -21.425   8.604  0.00  0.00    +0.015 A 
ATOM      6  C   LIG    1       27.028 -20.552   8.859  0.00  0.00    +0.046 A 
ENDROOT
BRANCH   4   7
ATOM      7  C   LIG    1       24.445 -22.652   6.995  0.00  0.00    +0.193 C 
ATOM      8  O   LIG    1       23.280 -22.261   7.082  0.00  0.00    -0.287 OA
BRANCH   7   9
ATOM      9  C   LIG    1       24.711 -24.067   6.616  0.00  0.00    +0.022 A 
ATOM     10  C   LIG    1       23.663 -24.892   6.184  0.00  0.00    +0.013 A 
ATOM     11  C   LIG    1       23.908 -26.216   5.821  0.00  0.00    +0.021 A 
ATOM     12  C   LIG    1       25.209 -26.710   5.847  0.00  0.00    +0.041 A 
ATOM     13 CL   LIG    1       25.506 -28.330   5.354  0.00  0.00    -0.084 Cl
ATOM     14  C   LIG    1       26.265 -25.897   6.261  0.00  0.00    +0.021 A 
ATOM     15  C   LIG    1       26.017 -24.574   6.653  0.00  0.00    +0.013 A 
ENDBRANCH   7   9
ENDBRANCH   4   7
BRANCH   1  16
ATOM     16  O   LIG    1       28.838 -19.232   8.157  0.00  0.00    -0.475 OA
BRANCH  16  17
ATOM     17  C   LIG    1       30.154 -19.727   7.879  0.00  0.00    +0.201 C 
ATOM     18  C   LIG    1       30.163 -21.263   7.830  0.00  0.00    +0.067 C 
ATOM     19  C   LIG    1       30.549 -19.242   6.450  0.00  0.00    +0.067 C 
BRANCH  17  20
ATOM     20  C   LIG    1       31.314 -19.263   8.808  0.00  0.00    +0.351 C 
ATOM     21  O   LIG    1       32.056 -19.982   9.428  0.00  0.00    -0.246 OA
BRANCH  20  22
ATOM     22  O   LIG    1       31.424 -17.913   8.746  0.00  0.00    -0.459 OA
BRANCH  22  24
ATOM     23  C   LIG    1       32.434 -15.902   9.584  0.00  0.00    +0.051 C 
ATOM     24  C   LIG    1       31.787 -17.240   9.946  0.00  0.00    +0.170 C 
ATOM     25  C   LIG    1       30.471 -17.071  10.681  0.00  0.00    +0.051 C 
ENDBRANCH  22  24
ENDBRANCH  20  22
ENDBRANCH  17  20
ENDBRANCH  16  17
ENDBRANCH   1  16
TORSDOF 7
ENDMDL
MODEL 2
REMARK VINA RESULT:      -9.3      3.705      8.638
REMARK  Name = *****
REMARK                            x       y       z     vdW  Elec       q    Type
REMARK                         _______ _______ _______ _____ _____    ______ ____
ROOT
ATOM      1  C   LIG    1       27.225 -20.968   6.329  0.00  0.00    +0.122 A 
ATOM      2  C   LIG    1       28.000 -21.489   7.367  0.00  0.00    +0.046 A 
ATOM      3  C   LIG    1       29.218 -20.906   7.736  0.00  0.00    +0.015 A 
ATOM      4  C   LIG    1       29.665 -19.757   7.090  0.00  0.00    +0.022 A 
ATOM      5  C   LIG    1       28.873 -19.202   6.075  0.00  0.00    +0.015 A 
ATOM      6  C   LIG    1       27.650 -19.789   5.717  0.00  0.00    +0.046 A 
ENDROOT
BRANCH   4   7
ATOM      7  C   LIG    1       30.981 -19.163   7.471  0.00  0.00    +0.193 C 
ATOM      8  O   LIG    1       31.970 -19.378   6.768  0.00  0.00    -0.287 OA
BRANCH   7   9
ATOM      9  C   LIG    1       31.126 -18.333   8.698  0.00  0.00    +0.022 A 
ATOM     10  C   LIG    1       30.077 -18.251   9.624  0.00  0.00    +0.013 A 
ATOM     11  C   LIG    1       30.210 -17.480  10.778  0.00  0.00    +0.021 A 
ATOM     12  C   LIG    1       31.410 -16.822  11.035  0.00  0.00    +0.041 A 
ATOM     13 CL   LIG    1       31.580 -15.913  12.484  0.00  0.00    -0.084 Cl
ATOM     14  C   LIG    1       32.469 -16.906  10.130  0.00  0.00    +0.021 A 
ATOM     15  C   LIG    1       32.327 -17.657   8.955  0.00  0.00    +0.013 A 
ENDBRANCH   7   9
ENDBRANCH   4   7
BRANCH   1  16
ATOM     16  O   LIG    1       26.067 -21.517   5.841  0.00  0.00    -0.475 OA
BRANCH  16  17
ATOM     17  C   LIG    1       24.950 -21.687   6.723  0.00  0.00    +0.201 C 
ATOM     18  C   LIG    1       24.911 -23.114   7.291  0.00  0.00    +0.067 C 
ATOM     19  C   LIG    1       25.162 -20.738   7.942  0.00  0.00    +0.067 C 
BRANCH  17  20
ATOM     20  C   LIG    1       23.534 -21.342   6.174  0.00  0.00    +0.351 C 
ATOM     21  O   LIG    1       22.589 -22.089   6.134  0.00  0.00    -0.246 OA
BRANCH  20  22
ATOM     22  O   LIG    1       23.495 -20.033   5.825  0.00  0.00    -0.459 OA
BRANCH  22  24
ATOM     23  C   LIG    1       22.168 -18.474   4.571  0.00  0.00    +0.051 C 
ATOM     24  C   LIG    1       23.039 -19.730   4.511  0.00  0.00    +0.170 C 
ATOM     25  C   LIG    1       24.316 -19.516   3.722  0.00  0.00    +0.051 C 
ENDBRANCH  22  24
ENDBRANCH  20  22
ENDBRANCH  17  20
ENDBRANCH  16  17
ENDBRANCH   1  16
TORSDOF 7
ENDMDL
MODEL 3
REMARK VINA RESULT:      -9.0      3.440      8.409
REMARK  Name = *****
REMARK                            x       y       z     vdW  Elec       q    Type
REMARK                         _______ _______ _______ _____ _____    ______ ____
ROOT
ATOM      1  C   LIG    1       25.524 -20.318   6.414  0.00  0.00    +0.122 A 
ATOM      2  C   LIG    1       26.684 -20.151   5.655  0.00  0.00    +0.046 A 
ATOM      3  C   LIG    1       27.957 -20.240   6.231  0.00  0.00    +0.015 A 
ATOM      4  C   LIG    1       28.090 -20.539   7.584  0.00  0.00    +0.022 A 
ATOM      5  C   LIG    1       26.932 -20.751   8.346  0.00  0.00    +0.015 A 
ATOM      6  C   LIG    1       25.661 -20.668   7.758  0.00  0.00    +0.046 A 
ENDROOT
BRANCH   4   7
ATOM      7  C   LIG    1       29.451 -20.599   8.194  0.00  0.00    +0.193 C 
ATOM      8  O   LIG    1       29.950 -21.693   8.462  0.00  0.00    -0.287 OA
BRANCH   7   9
ATOM      9  C   LIG    1       30.212 -19.357   8.505  0.00  0.00    +0.022 A 
ATOM     10  C   LIG    1       29.638 -18.358   9.303  0.00  0.00    +0.013 A 
ATOM     11  C   LIG    1       30.349 -17.197   9.604  0.00  0.00    +0.021 A 
ATOM     12  C   LIG    1       31.654 -17.047   9.144  0.00  0.00    +0.041 A 
ATOM     13 CL   LIG    1       32.537 -15.632   9.558  0.00  0.00    -0.084 Cl
ATOM     14  C   LIG    1       32.244 -18.039   8.360  0.00  0.00    +0.021 A 
ATOM     15  C   LIG    1       31.522 -19.195   8.033  0.00  0.00    +0.013 A 
ENDBRANCH   7   9
ENDBRANCH   4   7
BRANCH   1  16
ATOM     16  O   LIG    1       24.240 -20.166   5.959  0.00  0.00    -0.475 OA
BRANCH  16  17
ATOM     17  C   LIG    1       23.592 -21.271   5.316  0.00  0.00    +0.201 C 
ATOM     18  C   LIG    1       22.122 -20.943   5.010  0.00  0.00    +0.067 C 
ATOM     19  C   LIG    1       24.287 -21.487   3.936  0.00  0.00    +0.067 C 
BRANCH  17  20
ATOM     20  C   LIG    1       23.645 -22.656   6.026  0.00  0.00    +0.351 C 
ATOM     21  O   LIG    1       22.886 -23.044   6.877  0.00  0.00    -0.246 OA
BRANCH  20  22
ATOM     22  O   LIG    1       24.632 -23.404   5.475  0.00  0.00    -0.459 OA
BRANCH  22  24
ATOM     23  C   LIG    1       25.160 -25.662   4.851  0.00  0.00    +0.051 C 
ATOM     24  C   LIG    1       24.818 -24.713   6.001  0.00  0.00    +0.170 C 
ATOM     25  C   LIG    1       25.962 -24.552   6.983  0.00  0.00    +0.051 C 
ENDBRANCH  22  24
ENDBRANCH  20  22
ENDBRANCH  17  20
ENDBRANCH  16  17
ENDBRANCH   1  16
TORSDOF 7
ENDMDL
MODEL 4
REMARK VINA RESULT:      -9.0      3.852      9.355
REMARK  Name = *****
REMARK                            x       y       z     vdW  Elec       q    Type
REMARK                         _______ _______ _______ _____ _____    ______ ____
ROOT
ATOM      1  C   LIG    1       24.318 -25.408   6.300  0.00  0.00    +0.122 A 
ATOM      2  C   LIG    1       25.616 -24.945   6.524  0.00  0.00    +0.046 A 
ATOM      3  C   LIG    1       25.868 -23.620   6.900  0.00  0.00    +0.015 A 
ATOM      4  C   LIG    1       24.808 -22.739   7.098  0.00  0.00    +0.022 A 
ATOM      5  C   LIG    1       23.499 -23.206   6.918  0.00  0.00    +0.015 A 
ATOM      6  C   LIG    1       23.256 -24.537   6.548  0.00  0.00    +0.046 A 
ENDROOT
BRANCH   4   7
ATOM      7  C   LIG    1       25.091 -21.320   7.467  0.00  0.00    +0.193 C 
ATOM      8  O   LIG    1       24.219 -20.653   8.028  0.00  0.00    -0.287 OA
BRANCH   7   9
ATOM      9  C   LIG    1       26.401 -20.688   7.151  0.00  0.00    +0.022 A 
ATOM     10  C   LIG    1       27.362 -20.513   8.156  0.00  0.00    +0.013 A 
ATOM     11  C   LIG    1       28.594 -19.928   7.864  0.00  0.00    +0.021 A 
ATOM     12  C   LIG    1       28.888 -19.554   6.555  0.00  0.00    +0.041 A 
ATOM     13 CL   LIG    1       30.426 -18.875   6.198  0.00  0.00    -0.084 Cl
ATOM     14  C   LIG    1       27.947 -19.734   5.541  0.00  0.00    +0.021 A 
ATOM     15  C   LIG    1       26.698 -20.297   5.838  0.00  0.00    +0.013 A 
ENDBRANCH   7   9
ENDBRANCH   4   7
BRANCH   1  16
ATOM     16  O   LIG    1       23.980 -26.658   5.848  0.00  0.00    -0.475 OA
BRANCH  16  17
ATOM     17  C   LIG    1       24.955 -27.707   5.906  0.00  0.00    +0.201 C 
ATOM     18  C   LIG    1       26.092 -27.455   4.904  0.00  0.00    +0.067 C 
ATOM     19  C   LIG    1       25.606 -27.671   7.322  0.00  0.00    +0.067 C 
BRANCH  17  20
ATOM     20  C   LIG    1       24.455 -29.171   5.719  0.00  0.00    +0.351 C 
ATOM     21  O   LIG    1       23.318 -29.551   5.836  0.00  0.00    -0.246 OA
BRANCH  20  22
ATOM     22  O   LIG    1       25.489 -29.948   5.312  0.00  0.00    -0.459 OA
BRANCH  22  24
ATOM     23  C   LIG    1       26.050 -32.091   4.387  0.00  0.00    +0.051 C 
ATOM     24  C   LIG    1       25.370 -31.348   5.537  0.00  0.00    +0.170 C 
ATOM     25  C   LIG    1       26.070 -31.564   6.865  0.00  0.00    +0.051 C 
ENDBRANCH  22  24
ENDBRANCH  20  22
ENDBRANCH  17  20
ENDBRANCH  16  17
ENDBRANCH   1  16
TORSDOF 7
ENDMDL
MODEL 5
REMARK VINA RESULT:      -8.8      3.484      8.794
REMARK  Name = *****
REMARK                            x       y       z     vdW  Elec       q    Type
REMARK                         _______ _______ _______ _____ _____    ______ ____
ROOT
ATOM      1  C   LIG    1       26.548 -20.384   6.813  0.00  0.00    +0.122 A 
ATOM      2  C   LIG    1       27.429 -20.103   5.766  0.00  0.00    +0.046 A 
ATOM      3  C   LIG    1       28.747 -19.697   6.006  0.00  0.00    +0.015 A 
ATOM      4  C   LIG    1       29.220 -19.604   7.312  0.00  0.00    +0.022 A 
ATOM      5  C   LIG    1       28.356 -19.925   8.368  0.00  0.00    +0.015 A 
ATOM      6  C   LIG    1       27.040 -20.338   8.118  0.00  0.00    +0.046 A 
ENDROOT
BRANCH   4   7
ATOM      7  C   LIG    1       30.618 -19.139   7.556  0.00  0.00    +0.193 C 
ATOM      8  O   LIG    1       31.513 -19.467   6.775  0.00  0.00    -0.287 OA
BRANCH   7   9
ATOM      9  C   LIG    1       30.957 -18.302   8.740  0.00  0.00    +0.022 A 
ATOM     10  C   LIG    1       30.039 -18.157   9.789  0.00  0.00    +0.013 A 
ATOM     11  C   LIG    1       30.354 -17.381  10.904  0.00  0.00    +0.021 A 
ATOM     12  C   LIG    1       31.607 -16.781  10.996  0.00  0.00    +0.041 A 
ATOM     13 CL   LIG    1       32.002 -15.864  12.395  0.00  0.00    -0.084 Cl
ATOM     14  C   LIG    1       32.537 -16.927   9.966  0.00  0.00    +0.021 A 
ATOM     15  C   LIG    1       32.212 -17.685   8.832  0.00  0.00    +0.013 A 
ENDBRANCH   7   9
ENDBRANCH   4   7
BRANCH   1  16
ATOM     16  O   LIG    1       25.221 -20.703   6.680  0.00  0.00    -0.475 OA
BRANCH  16  17
ATOM     17  C   LIG    1       24.821 -22.077   6.773  0.00  0.00    +0.201 C 
ATOM     18  C   LIG    1       25.600 -22.801   7.882  0.00  0.00    +0.067 C 
ATOM     19  C   LIG    1       23.322 -22.104   7.203  0.00  0.00    +0.067 C 
BRANCH  17  20
ATOM     20  C   LIG    1       24.896 -22.942   5.480  0.00  0.00    +0.351 C 
ATOM     21  O   LIG    1       24.481 -22.628   4.393  0.00  0.00    -0.246 OA
BRANCH  20  22
ATOM     22  O   LIG    1       25.584 -24.080   5.742  0.00  0.00    -0.459 OA
BRANCH  22  24
ATOM     23  C   LIG    1       26.123 -26.376   5.290  0.00  0.00    +0.051 C 
ATOM     24  C   LIG    1       25.045 -25.293   5.228  0.00  0.00    +0.170 C 
ATOM     25  C   LIG    1       23.871 -25.586   6.142  0.00  0.00    +0.051 C 
ENDBRANCH  22  24
ENDBRANCH  20  22
ENDBRANCH  17  20
ENDBRANCH  16  17
ENDBRANCH   1  16
TORSDOF 7
ENDMDL
MODEL 6
REMARK VINA RESULT:      -8.6      3.831      9.140
REMARK  Name = *****
REMARK                            x       y       z     vdW  Elec       q    Type
REMARK                         _______ _______ _______ _____ _____    ______ ____
ROOT
ATOM      1  C   LIG    1       24.322 -25.355   6.246  0.00  0.00    +0.122 A 
ATOM      2  C   LIG    1       25.629 -24.885   6.389  0.00  0.00    +0.046 A 
ATOM      3  C   LIG    1       25.895 -23.568   6.783  0.00  0.00    +0.015 A 
ATOM      4  C   LIG    1       24.845 -22.704   7.080  0.00  0.00    +0.022 A 
ATOM      5  C   LIG    1       23.530 -23.180   6.980  0.00  0.00    +0.015 A 
ATOM      6  C   LIG    1       23.273 -24.503   6.592  0.00  0.00    +0.046 A 
ENDROOT
BRANCH   4   7
ATOM      7  C   LIG    1       25.141 -21.293   7.467  0.00  0.00    +0.193 C 
ATOM      8  O   LIG    1       24.276 -20.624   8.035  0.00  0.00    -0.287 OA
BRANCH   7   9
ATOM      9  C   LIG    1       26.458 -20.669   7.160  0.00  0.00    +0.022 A 
ATOM     10  C   LIG    1       27.410 -20.493   8.173  0.00  0.00    +0.013 A 
ATOM     11  C   LIG    1       28.648 -19.917   7.889  0.00  0.00    +0.021 A 
ATOM     12  C   LIG    1       28.957 -19.553   6.582  0.00  0.00    +0.041 A 
ATOM     13 CL   LIG    1       30.502 -18.885   6.235  0.00  0.00    -0.084 Cl
ATOM     14  C   LIG    1       28.025 -19.735   5.559  0.00  0.00    +0.021 A 
ATOM     15  C   LIG    1       26.770 -20.289   5.847  0.00  0.00    +0.013 A 
ENDBRANCH   7   9
ENDBRANCH   4   7
BRANCH   1  16
ATOM     16  O   LIG    1       23.963 -26.596   5.785  0.00  0.00    -0.475 OA
BRANCH  16  17
ATOM     17  C   LIG    1       24.787 -27.724   6.104  0.00  0.00    +0.201 C 
ATOM     18  C   LIG    1       25.733 -28.060   4.941  0.00  0.00    +0.067 C 
ATOM     19  C   LIG    1       25.698 -27.319   7.304  0.00  0.00    +0.067 C 
BRANCH  17  20
ATOM     20  C   LIG    1       24.078 -29.037   6.550  0.00  0.00    +0.351 C 
ATOM     21  O   LIG    1       23.434 -29.769   5.842  0.00  0.00    -0.246 OA
BRANCH  20  22
ATOM     22  O   LIG    1       24.371 -29.285   7.850  0.00  0.00    -0.459 OA
BRANCH  22  24
ATOM     23  C   LIG    1       25.874 -31.153   7.983  0.00  0.00    +0.051 C 
ATOM     24  C   LIG    1       24.453 -30.650   8.244  0.00  0.00    +0.170 C 
ATOM     25  C   LIG    1       24.106 -30.626   9.719  0.00  0.00    +0.051 C 
ENDBRANCH  22  24
ENDBRANCH  20  22
ENDBRANCH  17  20
ENDBRANCH  16  17
ENDBRANCH   1  16
TORSDOF 7
ENDMDL
MODEL 7
REMARK VINA RESULT:      -8.4      3.146      5.627
REMARK  Name = *****
REMARK                            x       y       z     vdW  Elec       q    Type
REMARK                         _______ _______ _______ _____ _____    ______ ____
ROOT
ATOM      1  C   LIG    1       24.450 -23.761   6.860  0.00  0.00    +0.122 A 
ATOM      2  C   LIG    1       25.788 -24.153   6.949  0.00  0.00    +0.046 A 
ATOM      3  C   LIG    1       26.211 -25.418   6.525  0.00  0.00    +0.015 A 
ATOM      4  C   LIG    1       25.299 -26.306   5.962  0.00  0.00    +0.022 A 
ATOM      5  C   LIG    1       23.962 -25.906   5.829  0.00  0.00    +0.015 A 
ATOM      6  C   LIG    1       23.548 -24.634   6.250  0.00  0.00    +0.046 A 
ENDROOT
BRANCH   4   7
ATOM      7  C   LIG    1       25.757 -27.664   5.544  0.00  0.00    +0.193 C 
ATOM      8  O   LIG    1       26.610 -27.772   4.661  0.00  0.00    -0.287 OA
BRANCH   7   9
ATOM      9  C   LIG    1       25.185 -28.894   6.158  0.00  0.00    +0.022 A 
ATOM     10  C   LIG    1       25.090 -30.077   5.413  0.00  0.00    +0.013 A 
ATOM     11  C   LIG    1       24.563 -31.234   5.986  0.00  0.00    +0.021 A 
ATOM     12  C   LIG    1       24.167 -31.225   7.321  0.00  0.00    +0.041 A 
ATOM     13 CL   LIG    1       23.561 -32.669   8.030  0.00  0.00    -0.084 Cl
ATOM     14  C   LIG    1       24.269 -30.059   8.080  0.00  0.00    +0.021 A 
ATOM     15  C   LIG    1       24.773 -28.887   7.498  0.00  0.00    +0.013 A 
ENDBRANCH   7   9
ENDBRANCH   4   7
BRANCH   1  16
ATOM     16  O   LIG    1       23.927 -22.582   7.326  0.00  0.00    -0.475 OA
BRANCH  16  17
ATOM     17  C   LIG    1       24.421 -21.344   6.799  0.00  0.00    +0.201 C 
ATOM     18  C   LIG    1       24.737 -21.472   5.301  0.00  0.00    +0.067 C 
ATOM     19  C   LIG    1       23.276 -20.292   6.914  0.00  0.00    +0.067 C 
BRANCH  17  20
ATOM     20  C   LIG    1       25.650 -20.696   7.502  0.00  0.00    +0.351 C 
ATOM     21  O   LIG    1       25.711 -20.369   8.660  0.00  0.00    -0.246 OA
BRANCH  20  22
ATOM     22  O   LIG    1       26.685 -20.634   6.629  0.00  0.00    -0.459 OA
BRANCH  22  24
ATOM     23  C   LIG    1       28.748 -21.414   7.578  0.00  0.00    +0.051 C 
ATOM     24  C   LIG    1       27.936 -20.193   7.143  0.00  0.00    +0.170 C 
ATOM     25  C   LIG    1       28.570 -19.457   5.978  0.00  0.00    +0.051 C 
ENDBRANCH  22  24
ENDBRANCH  20  22
ENDBRANCH  17  20
ENDBRANCH  16  17
ENDBRANCH   1  16
TORSDOF 7
ENDMDL
MODEL 8
REMARK VINA RESULT:      -8.2      3.819      8.451
REMARK  Name = *****
REMARK                            x       y       z     vdW  Elec       q    Type
REMARK                         _______ _______ _______ _____ _____    ______ ____
ROOT
ATOM      1  C   LIG    1       25.436 -20.878   7.293  0.00  0.00    +0.122 A 
ATOM      2  C   LIG    1       26.287 -20.239   6.389  0.00  0.00    +0.046 A 
ATOM      3  C   LIG    1       27.670 -20.184   6.597  0.00  0.00    +0.015 A 
ATOM      4  C   LIG    1       28.233 -20.808   7.707  0.00  0.00    +0.022 A 
ATOM      5  C   LIG    1       27.391 -21.488   8.598  0.00  0.00    +0.015 A 
ATOM      6  C   LIG    1       26.007 -21.545   8.377  0.00  0.00    +0.046 A 
ENDROOT
BRANCH   4   7
ATOM      7  C   LIG    1       29.705 -20.715   7.935  0.00  0.00    +0.193 C 
ATOM      8  O   LIG    1       30.405 -21.720   7.806  0.00  0.00    -0.287 OA
BRANCH   7   9
ATOM      9  C   LIG    1       30.342 -19.431   8.339  0.00  0.00    +0.022 A 
ATOM     10  C   LIG    1       29.664 -18.538   9.180  0.00  0.00    +0.013 A 
ATOM     11  C   LIG    1       30.259 -17.339   9.567  0.00  0.00    +0.021 A 
ATOM     12  C   LIG    1       31.555 -17.044   9.151  0.00  0.00    +0.041 A 
ATOM     13 CL   LIG    1       32.296 -15.584   9.672  0.00  0.00    -0.084 Cl
ATOM     14  C   LIG    1       32.249 -17.930   8.326  0.00  0.00    +0.021 A 
ATOM     15  C   LIG    1       31.642 -19.124   7.913  0.00  0.00    +0.013 A 
ENDBRANCH   7   9
ENDBRANCH   4   7
BRANCH   1  16
ATOM     16  O   LIG    1       24.067 -20.910   7.219  0.00  0.00    -0.475 OA
BRANCH  16  17
ATOM     17  C   LIG    1       23.442 -21.639   6.155  0.00  0.00    +0.201 C 
ATOM     18  C   LIG    1       24.494 -22.218   5.196  0.00  0.00    +0.067 C 
ATOM     19  C   LIG    1       22.709 -22.862   6.787  0.00  0.00    +0.067 C 
BRANCH  17  20
ATOM     20  C   LIG    1       22.363 -20.903   5.308  0.00  0.00    +0.351 C 
ATOM     21  O   LIG    1       21.462 -21.424   4.701  0.00  0.00    -0.246 OA
BRANCH  20  22
ATOM     22  O   LIG    1       22.536 -19.564   5.427  0.00  0.00    -0.459 OA
BRANCH  22  24
ATOM     23  C   LIG    1       22.205 -17.347   4.567  0.00  0.00    +0.051 C 
ATOM     24  C   LIG    1       22.526 -18.802   4.225  0.00  0.00    +0.170 C 
ATOM     25  C   LIG    1       23.927 -18.976   3.671  0.00  0.00    +0.051 C 
ENDBRANCH  22  24
ENDBRANCH  20  22
ENDBRANCH  17  20
ENDBRANCH  16  17
ENDBRANCH   1  16
TORSDOF 7
ENDMDL
MODEL 9
REMARK VINA RESULT:      -8.2      3.231      5.748
REMARK  Name = *****
REMARK                            x       y       z     vdW  Elec       q    Type
REMARK                         _______ _______ _______ _____ _____    ______ ____
ROOT
ATOM      1  C   LIG    1       24.708 -23.412   6.603  0.00  0.00    +0.122 A 
ATOM      2  C   LIG    1       25.982 -23.982   6.563  0.00  0.00    +0.046 A 
ATOM      3  C   LIG    1       26.162 -25.366   6.454  0.00  0.00    +0.015 A 
ATOM      4  C   LIG    1       25.058 -26.206   6.342  0.00  0.00    +0.022 A 
ATOM      5  C   LIG    1       23.776 -25.639   6.338  0.00  0.00    +0.015 A 
ATOM      6  C   LIG    1       23.605 -24.250   6.441  0.00  0.00    +0.046 A 
ENDROOT
BRANCH   4   7
ATOM      7  C   LIG    1       25.262 -27.682   6.259  0.00  0.00    +0.193 C 
ATOM      8  O   LIG    1       25.401 -28.216   5.156  0.00  0.00    -0.287 OA
BRANCH   7   9
ATOM      9  C   LIG    1       25.280 -28.529   7.484  0.00  0.00    +0.022 A 
ATOM     10  C   LIG    1       26.234 -28.303   8.485  0.00  0.00    +0.013 A 
ATOM     11  C   LIG    1       26.251 -29.088   9.637  0.00  0.00    +0.021 A 
ATOM     12  C   LIG    1       25.286 -30.075   9.815  0.00  0.00    +0.041 A 
ATOM     13 CL   LIG    1       25.287 -31.006  11.260  0.00  0.00    -0.084 Cl
ATOM     14  C   LIG    1       24.320 -30.303   8.834  0.00  0.00    +0.021 A 
ATOM     15  C   LIG    1       24.319 -29.533   7.662  0.00  0.00    +0.013 A 
ENDBRANCH   7   9
ENDBRANCH   4   7
BRANCH   1  16
ATOM     16  O   LIG    1       24.431 -22.082   6.794  0.00  0.00    -0.475 OA
BRANCH  16  17
ATOM     17  C   LIG    1       24.469 -21.193   5.670  0.00  0.00    +0.201 C 
ATOM     18  C   LIG    1       24.227 -21.957   4.359  0.00  0.00    +0.067 C 
ATOM     19  C   LIG    1       23.280 -20.194   5.818  0.00  0.00    +0.067 C 
BRANCH  17  20
ATOM     20  C   LIG    1       25.735 -20.305   5.491  0.00  0.00    +0.351 C 
ATOM     21  O   LIG    1       26.025 -19.677   4.504  0.00  0.00    -0.246 OA
BRANCH  20  22
ATOM     22  O   LIG    1       26.426 -20.270   6.656  0.00  0.00    -0.459 OA
BRANCH  22  24
ATOM     23  C   LIG    1       28.708 -19.547   6.471  0.00  0.00    +0.051 C 
ATOM     24  C   LIG    1       27.768 -20.744   6.625  0.00  0.00    +0.170 C 
ATOM     25  C   LIG    1       27.937 -21.451   7.955  0.00  0.00    +0.051 C 
ENDBRANCH  22  24
ENDBRANCH  20  22
ENDBRANCH  17  20
ENDBRANCH  16  17
ENDBRANCH   1  16
TORSDOF 7
ENDMDL
