MODEL 1
REMARK VINA RESULT:     -10.1      0.000      0.000
REMARK  Name = *****
REMARK                            x       y       z     vdW  Elec       q    Type
REMARK                         _______ _______ _______ _____ _____    ______ ____
ROOT
ATOM      1  C   LIG    1       24.532 -25.443   6.150  0.00  0.00    -0.046 A 
ATOM      2  C   LIG    1       23.544 -24.499   6.458  0.00  0.00    +0.005 A 
ATOM      3  C   LIG    1       23.893 -23.269   7.020  0.00  0.00    +0.029 A 
ATOM      4  C   LIG    1       25.239 -22.982   7.267  0.00  0.00    +0.113 A 
ATOM      5  C   LIG    1       26.237 -23.900   6.942  0.00  0.00    +0.029 A 
ATOM      6  C   LIG    1       25.881 -25.126   6.381  0.00  0.00    +0.005 A 
ENDROOT
BRANCH   4   7
ATOM      7  S   LIG    1       25.695 -21.454   8.057  0.00  0.00    +0.103 S 
ATOM      8  O   LIG    1       25.422 -21.597   9.475  0.00  0.00    -0.146 OA
ATOM      9  O   LIG    1       25.051 -20.388   7.306  0.00  0.00    -0.146 OA
BRANCH   7  10
ATOM     10  N   LIG    1       27.288 -21.397   7.818  0.00  0.00    -0.076 NA
ATOM     11  C   LIG    1       27.822 -20.967   6.733  0.00  0.00    +0.299 C 
BRANCH  11  12
ATOM     12  N   LIG    1       29.150 -20.918   6.470  0.00  0.00    -0.295 N 
ATOM     13  H   LIG    1       29.425 -21.318   5.581  0.00  0.00    +0.151 HD
BRANCH  12  14
ATOM     14  C   LIG    1       30.100 -20.050   7.139  0.00  0.00    +0.075 C 
ATOM     15  C   LIG    1       30.648 -20.730   8.402  0.00  0.00    +0.022 C 
ATOM     16  C   LIG    1       31.575 -19.796   9.181  0.00  0.00    +0.005 C 
ATOM     17  C   LIG    1       30.870 -18.482   9.543  0.00  0.00    -0.014 C 
ATOM     18  C   LIG    1       31.810 -17.549  10.305  0.00  0.00    +0.007 C 
ATOM     19  C   LIG    1       30.327 -17.800   8.281  0.00  0.00    +0.005 C 
ATOM     20  C   LIG    1       29.406 -18.730   7.493  0.00  0.00    +0.022 C 
ENDBRANCH  12  14
ENDBRANCH  11  12
BRANCH  11  21
ATOM     21  O   LIG    1       27.154 -20.498   5.667  0.00  0.00    -0.481 OA
ATOM     22  H   LIG    1       27.542 -20.804   4.822  0.00  0.00    +0.295 HD
ENDBRANCH  11  21
ENDBRANCH   7  10
ENDBRANCH   4   7
BRANCH   1  23
ATOM     23  C   LIG    1       24.162 -26.804   5.602  0.00  0.00    +0.054 C 
BRANCH  23  24
ATOM     24  C   LIG    1       25.286 -27.845   5.672  0.00  0.00    +0.110 C 
BRANCH  24  30
ATOM     25  C   LIG    1       26.005 -29.757  10.985  0.00  0.00    +0.015 C 
ATOM     26  C   LIG    1       26.107 -29.160   9.632  0.00  0.00    +0.250 C 
ATOM     27  O   LIG    1       26.931 -28.332   9.303  0.00  0.00    -0.270 OA
ATOM     28  N   LIG    1       25.098 -29.720   8.850  0.00  0.00    -0.218 N 
ATOM     29  C   LIG    1       24.740 -29.378   7.559  0.00  0.00    +0.309 C 
ATOM     30  N   LIG    1       25.512 -28.404   6.988  0.00  0.00    -0.299 N 
ATOM     31  H   LIG    1       26.260 -28.012   7.557  0.00  0.00    +0.150 HD
ATOM     32  O   LIG    1       23.776 -29.885   6.987  0.00  0.00    -0.252 OA
ATOM     33  C   LIG    1       24.344 -30.686   9.590  0.00  0.00    +0.149 C 
ATOM     34  C   LIG    1       24.975 -30.616  10.943  0.00  0.00    -0.047 C 
ATOM     35  C   LIG    1       24.412 -31.448  12.042  0.00  0.00    +0.041 C 
BRANCH  25  37
ATOM     36  C   LIG    1       26.421 -27.986  12.716  0.00  0.00    +0.009 C 
ATOM     37  C   LIG    1       26.888 -29.293  12.091  0.00  0.00    +0.037 C 
ENDBRANCH  25  37
ENDBRANCH  24  30
ENDBRANCH  23  24
ENDBRANCH   1  23
TORSDOF 9
ENDMDL
MODEL 2
REMARK VINA RESULT:      -9.9      1.541      2.048
REMARK  Name = *****
REMARK                            x       y       z     vdW  Elec       q    Type
REMARK                         _______ _______ _______ _____ _____    ______ ____
ROOT
ATOM      1  C   LIG    1       25.324 -25.916   6.181  0.00  0.00    -0.046 A 
ATOM      2  C   LIG    1       26.206 -24.879   6.511  0.00  0.00    +0.005 A 
ATOM      3  C   LIG    1       25.731 -23.579   6.698  0.00  0.00    +0.029 A 
ATOM      4  C   LIG    1       24.365 -23.319   6.560  0.00  0.00    +0.113 A 
ATOM      5  C   LIG    1       23.469 -24.345   6.257  0.00  0.00    +0.029 A 
ATOM      6  C   LIG    1       23.951 -25.640   6.072  0.00  0.00    +0.005 A 
ENDROOT
BRANCH   4   7
ATOM      7  S   LIG    1       23.753 -21.655   6.713  0.00  0.00    +0.103 S 
ATOM      8  O   LIG    1       23.297 -21.483   8.080  0.00  0.00    -0.146 OA
ATOM      9  O   LIG    1       22.822 -21.451   5.614  0.00  0.00    -0.146 OA
BRANCH   7  10
ATOM     10  N   LIG    1       25.077 -20.770   6.471  0.00  0.00    -0.076 NA
ATOM     11  C   LIG    1       25.595 -20.580   5.311  0.00  0.00    +0.299 C 
BRANCH  11  12
ATOM     12  N   LIG    1       26.716 -19.866   5.052  0.00  0.00    -0.295 N 
ATOM     13  H   LIG    1       26.564 -18.998   4.553  0.00  0.00    +0.151 HD
BRANCH  12  14
ATOM     14  C   LIG    1       27.990 -20.041   5.724  0.00  0.00    +0.075 C 
ATOM     15  C   LIG    1       27.774 -20.294   7.223  0.00  0.00    +0.022 C 
ATOM     16  C   LIG    1       29.106 -20.381   7.971  0.00  0.00    +0.005 C 
ATOM     17  C   LIG    1       29.951 -19.119   7.757  0.00  0.00    -0.014 C 
ATOM     18  C   LIG    1       31.286 -19.224   8.493  0.00  0.00    +0.007 C 
ATOM     19  C   LIG    1       30.171 -18.868   6.260  0.00  0.00    +0.005 C 
ATOM     20  C   LIG    1       28.845 -18.789   5.504  0.00  0.00    +0.022 C 
ENDBRANCH  12  14
ENDBRANCH  11  12
BRANCH  11  21
ATOM     21  O   LIG    1       25.116 -21.064   4.155  0.00  0.00    -0.481 OA
ATOM     22  H   LIG    1       24.681 -21.935   4.269  0.00  0.00    +0.295 HD
ENDBRANCH  11  21
ENDBRANCH   7  10
ENDBRANCH   4   7
BRANCH   1  23
ATOM     23  C   LIG    1       25.834 -27.315   5.912  0.00  0.00    +0.054 C 
BRANCH  23  24
ATOM     24  C   LIG    1       24.989 -28.431   6.536  0.00  0.00    +0.110 C 
BRANCH  24  30
ATOM     25  C   LIG    1       26.708 -29.910  11.757  0.00  0.00    +0.015 C 
ATOM     26  C   LIG    1       26.558 -29.467  10.351  0.00  0.00    +0.250 C 
ATOM     27  O   LIG    1       27.375 -28.803   9.746  0.00  0.00    -0.270 OA
ATOM     28  N   LIG    1       25.334 -29.946   9.888  0.00  0.00    -0.218 N 
ATOM     29  C   LIG    1       24.725 -29.681   8.675  0.00  0.00    +0.309 C 
ATOM     30  N   LIG    1       25.451 -28.889   7.829  0.00  0.00    -0.299 N 
ATOM     31  H   LIG    1       26.354 -28.558   8.165  0.00  0.00    +0.150 HD
ATOM     32  O   LIG    1       23.600 -30.095   8.400  0.00  0.00    -0.252 OA
ATOM     33  C   LIG    1       24.666 -30.716  10.893  0.00  0.00    +0.149 C 
ATOM     34  C   LIG    1       25.602 -30.610  12.053  0.00  0.00    -0.047 C 
ATOM     35  C   LIG    1       25.219 -31.241  13.346  0.00  0.00    +0.041 C 
BRANCH  25  37
ATOM     36  C   LIG    1       27.542 -28.344  13.534  0.00  0.00    +0.009 C 
ATOM     37  C   LIG    1       27.876 -29.476  12.573  0.00  0.00    +0.037 C 
ENDBRANCH  25  37
ENDBRANCH  24  30
ENDBRANCH  23  24
ENDBRANCH   1  23
TORSDOF 9
ENDMDL
MODEL 3
REMARK VINA RESULT:      -9.6      1.744      2.931
REMARK  Name = *****
REMARK                            x       y       z     vdW  Elec       q    Type
REMARK                         _______ _______ _______ _____ _____    ______ ____
ROOT
ATOM      1  C   LIG    1       24.940 -25.568   6.414  0.00  0.00    -0.046 A 
ATOM      2  C   LIG    1       25.953 -24.617   6.594  0.00  0.00    +0.005 A 
ATOM      3  C   LIG    1       25.640 -23.259   6.685  0.00  0.00    +0.029 A 
ATOM      4  C   LIG    1       24.305 -22.853   6.603  0.00  0.00    +0.113 A 
ATOM      5  C   LIG    1       23.282 -23.789   6.450  0.00  0.00    +0.029 A 
ATOM      6  C   LIG    1       23.602 -25.143   6.359  0.00  0.00    +0.005 A 
ENDROOT
BRANCH   4   7
ATOM      7  S   LIG    1       23.894 -21.122   6.635  0.00  0.00    +0.103 S 
ATOM      8  O   LIG    1       23.426 -20.810   7.972  0.00  0.00    -0.146 OA
ATOM      9  O   LIG    1       23.025 -20.879   5.494  0.00  0.00    -0.146 OA
BRANCH   7  10
ATOM     10  N   LIG    1       25.323 -20.418   6.387  0.00  0.00    -0.076 NA
ATOM     11  C   LIG    1       25.864 -20.314   5.227  0.00  0.00    +0.299 C 
BRANCH  11  12
ATOM     12  N   LIG    1       27.069 -19.753   4.963  0.00  0.00    -0.295 N 
ATOM     13  H   LIG    1       27.035 -18.913   4.399  0.00  0.00    +0.151 HD
BRANCH  12  14
ATOM     14  C   LIG    1       28.292 -20.023   5.695  0.00  0.00    +0.075 C 
ATOM     15  C   LIG    1       27.970 -20.486   7.123  0.00  0.00    +0.022 C 
ATOM     16  C   LIG    1       29.244 -20.680   7.946  0.00  0.00    +0.005 C 
ATOM     17  C   LIG    1       30.090 -19.401   7.976  0.00  0.00    -0.014 C 
ATOM     18  C   LIG    1       31.369 -19.610   8.786  0.00  0.00    +0.007 C 
ATOM     19  C   LIG    1       30.416 -18.940   6.550  0.00  0.00    +0.005 C 
ATOM     20  C   LIG    1       29.148 -18.752   5.718  0.00  0.00    +0.022 C 
ENDBRANCH  12  14
ENDBRANCH  11  12
BRANCH  11  21
ATOM     21  O   LIG    1       25.330 -20.751   4.075  0.00  0.00    -0.481 OA
ATOM     22  H   LIG    1       25.449 -20.110   3.345  0.00  0.00    +0.295 HD
ENDBRANCH  11  21
ENDBRANCH   7  10
ENDBRANCH   4   7
BRANCH   1  23
ATOM     23  C   LIG    1       25.271 -27.035   6.248  0.00  0.00    +0.054 C 
BRANCH  23  24
ATOM     24  C   LIG    1       26.100 -27.633   7.390  0.00  0.00    +0.110 C 
BRANCH  24  30
ATOM     25  C   LIG    1       23.876 -32.354   9.663  0.00  0.00    +0.015 C 
ATOM     26  C   LIG    1       24.172 -31.083   8.960  0.00  0.00    +0.250 C 
ATOM     27  O   LIG    1       23.496 -30.616   8.067  0.00  0.00    -0.270 OA
ATOM     28  N   LIG    1       25.342 -30.561   9.511  0.00  0.00    -0.218 N 
ATOM     29  C   LIG    1       26.054 -29.454   9.090  0.00  0.00    +0.309 C 
ATOM     30  N   LIG    1       25.500 -28.781   8.035  0.00  0.00    -0.299 N 
ATOM     31  H   LIG    1       24.636 -29.156   7.650  0.00  0.00    +0.150 HD
ATOM     32  O   LIG    1       27.124 -29.126   9.602  0.00  0.00    -0.252 OA
ATOM     33  C   LIG    1       25.832 -31.392  10.569  0.00  0.00    +0.149 C 
ATOM     34  C   LIG    1       24.852 -32.520  10.571  0.00  0.00    -0.047 C 
ATOM     35  C   LIG    1       25.063 -33.654  11.513  0.00  0.00    +0.041 C 
BRANCH  25  37
ATOM     36  C   LIG    1       21.430 -32.850   9.934  0.00  0.00    +0.009 C 
ATOM     37  C   LIG    1       22.735 -33.212   9.240  0.00  0.00    +0.037 C 
ENDBRANCH  25  37
ENDBRANCH  24  30
ENDBRANCH  23  24
ENDBRANCH   1  23
TORSDOF 9
ENDMDL
MODEL 4
REMARK VINA RESULT:      -9.2      4.139     10.526
REMARK  Name = *****
REMARK                            x       y       z     vdW  Elec       q    Type
REMARK                         _______ _______ _______ _____ _____    ______ ____
ROOT
ATOM      1  C   LIG    1       25.506 -26.604   6.503  0.00  0.00    -0.046 A 
ATOM      2  C   LIG    1       24.490 -27.263   5.798  0.00  0.00    +0.005 A 
ATOM      3  C   LIG    1       24.081 -28.543   6.179  0.00  0.00    +0.029 A 
ATOM      4  C   LIG    1       24.688 -29.162   7.275  0.00  0.00    +0.113 A 
ATOM      5  C   LIG    1       25.683 -28.510   8.004  0.00  0.00    +0.029 A 
ATOM      6  C   LIG    1       26.086 -27.232   7.618  0.00  0.00    +0.005 A 
ENDROOT
BRANCH   4   7
ATOM      7  S   LIG    1       24.238 -30.824   7.724  0.00  0.00    +0.103 S 
ATOM      8  O   LIG    1       25.428 -31.475   8.238  0.00  0.00    -0.146 OA
ATOM      9  O   LIG    1       23.546 -31.392   6.578  0.00  0.00    -0.146 OA
BRANCH   7  10
ATOM     10  N   LIG    1       23.190 -30.591   8.927  0.00  0.00    -0.076 NA
ATOM     11  C   LIG    1       23.062 -31.400   9.916  0.00  0.00    +0.299 C 
BRANCH  11  12
ATOM     12  N   LIG    1       22.186 -31.266  10.940  0.00  0.00    -0.295 N 
ATOM     13  H   LIG    1       21.567 -32.055  11.079  0.00  0.00    +0.151 HD
BRANCH  12  14
ATOM     14  C   LIG    1       22.310 -30.310  12.023  0.00  0.00    +0.075 C 
ATOM     15  C   LIG    1       21.123 -29.336  12.017  0.00  0.00    +0.022 C 
ATOM     16  C   LIG    1       21.283 -28.256  13.088  0.00  0.00    +0.005 C 
ATOM     17  C   LIG    1       22.602 -27.492  12.919  0.00  0.00    -0.014 C 
ATOM     18  C   LIG    1       22.760 -26.427  14.003  0.00  0.00    +0.007 C 
ATOM     19  C   LIG    1       23.789 -28.463  12.929  0.00  0.00    +0.005 C 
ATOM     20  C   LIG    1       23.633 -29.550  11.868  0.00  0.00    +0.022 C 
ENDBRANCH  12  14
ENDBRANCH  11  12
BRANCH  11  21
ATOM     21  O   LIG    1       23.772 -32.524  10.101  0.00  0.00    -0.481 OA
ATOM     22  H   LIG    1       24.714 -32.411   9.859  0.00  0.00    +0.295 HD
ENDBRANCH  11  21
ENDBRANCH   7  10
ENDBRANCH   4   7
BRANCH   1  23
ATOM     23  C   LIG    1       26.004 -25.245   6.061  0.00  0.00    +0.054 C 
BRANCH  23  24
ATOM     24  C   LIG    1       25.633 -24.095   7.004  0.00  0.00    +0.110 C 
BRANCH  24  30
ATOM     25  C   LIG    1       24.235 -19.403   4.101  0.00  0.00    +0.015 C 
ATOM     26  C   LIG    1       24.886 -20.544   4.785  0.00  0.00    +0.250 C 
ATOM     27  O   LIG    1       26.016 -20.928   4.563  0.00  0.00    -0.270 OA
ATOM     28  N   LIG    1       23.969 -21.067   5.696  0.00  0.00    -0.218 N 
ATOM     29  C   LIG    1       24.099 -22.206   6.469  0.00  0.00    +0.309 C 
ATOM     30  N   LIG    1       25.298 -22.853   6.341  0.00  0.00    -0.299 N 
ATOM     31  H   LIG    1       25.972 -22.455   5.689  0.00  0.00    +0.150 HD
ATOM     32  O   LIG    1       23.189 -22.622   7.185  0.00  0.00    -0.252 OA
ATOM     33  C   LIG    1       22.748 -20.320   5.688  0.00  0.00    +0.149 C 
ATOM     34  C   LIG    1       23.001 -19.303   4.622  0.00  0.00    -0.047 C 
ATOM     35  C   LIG    1       21.912 -18.355   4.259  0.00  0.00    +0.041 C 
BRANCH  25  37
ATOM     36  C   LIG    1       25.880 -17.609   3.486  0.00  0.00    +0.009 C 
ATOM     37  C   LIG    1       24.923 -18.684   2.993  0.00  0.00    +0.037 C 
ENDBRANCH  25  37
ENDBRANCH  24  30
ENDBRANCH  23  24
ENDBRANCH   1  23
TORSDOF 9
ENDMDL
MODEL 5
REMARK VINA RESULT:      -9.2      3.834      6.408
REMARK  Name = *****
REMARK                            x       y       z     vdW  Elec       q    Type
REMARK                         _______ _______ _______ _____ _____    ______ ____
ROOT
ATOM      1  C   LIG    1       26.832 -29.501   9.997  0.00  0.00    -0.046 A 
ATOM      2  C   LIG    1       26.787 -28.186   9.515  0.00  0.00    +0.005 A 
ATOM      3  C   LIG    1       26.109 -27.890   8.331  0.00  0.00    +0.029 A 
ATOM      4  C   LIG    1       25.468 -28.915   7.630  0.00  0.00    +0.113 A 
ATOM      5  C   LIG    1       25.480 -30.225   8.109  0.00  0.00    +0.029 A 
ATOM      6  C   LIG    1       26.159 -30.513   9.292  0.00  0.00    +0.005 A 
ENDROOT
BRANCH   4   7
ATOM      7  S   LIG    1       24.669 -28.571   6.077  0.00  0.00    +0.103 S 
ATOM      8  O   LIG    1       23.654 -29.587   5.874  0.00  0.00    -0.146 OA
ATOM      9  O   LIG    1       25.727 -28.406   5.093  0.00  0.00    -0.146 OA
BRANCH   7  10
ATOM     10  N   LIG    1       23.961 -27.150   6.354  0.00  0.00    -0.076 NA
ATOM     11  C   LIG    1       24.207 -26.094   5.665  0.00  0.00    +0.299 C 
BRANCH  11  12
ATOM     12  N   LIG    1       23.660 -24.872   5.866  0.00  0.00    -0.295 N 
ATOM     13  H   LIG    1       22.666 -24.876   6.063  0.00  0.00    +0.151 HD
BRANCH  12  14
ATOM     14  C   LIG    1       24.403 -23.668   6.183  0.00  0.00    +0.075 C 
ATOM     15  C   LIG    1       25.629 -24.007   7.043  0.00  0.00    +0.022 C 
ATOM     16  C   LIG    1       26.374 -22.742   7.475  0.00  0.00    +0.005 C 
ATOM     17  C   LIG    1       25.446 -21.775   8.222  0.00  0.00    -0.014 C 
ATOM     18  C   LIG    1       26.194 -20.508   8.634  0.00  0.00    +0.007 C 
ATOM     19  C   LIG    1       24.223 -21.433   7.363  0.00  0.00    +0.005 C 
ATOM     20  C   LIG    1       23.479 -22.691   6.920  0.00  0.00    +0.022 C 
ENDBRANCH  12  14
ENDBRANCH  11  12
BRANCH  11  21
ATOM     21  O   LIG    1       25.057 -26.021   4.628  0.00  0.00    -0.481 OA
ATOM     22  H   LIG    1       24.643 -26.306   3.788  0.00  0.00    +0.295 HD
ENDBRANCH  11  21
ENDBRANCH   7  10
ENDBRANCH   4   7
BRANCH   1  23
ATOM     23  C   LIG    1       27.618 -29.846  11.243  0.00  0.00    +0.054 C 
BRANCH  23  24
ATOM     24  C   LIG    1       26.992 -29.343  12.549  0.00  0.00    +0.110 C 
BRANCH  24  30
ATOM     25  C   LIG    1       21.318 -28.946  12.754  0.00  0.00    +0.015 C 
ATOM     26  C   LIG    1       22.740 -29.304  12.539  0.00  0.00    +0.250 C 
ATOM     27  O   LIG    1       23.133 -30.410  12.229  0.00  0.00    -0.270 OA
ATOM     28  N   LIG    1       23.500 -28.157  12.762  0.00  0.00    -0.218 N 
ATOM     29  C   LIG    1       24.878 -28.047  12.789  0.00  0.00    +0.309 C 
ATOM     30  N   LIG    1       25.552 -29.206  12.517  0.00  0.00    -0.299 N 
ATOM     31  H   LIG    1       24.991 -30.036  12.335  0.00  0.00    +0.150 HD
ATOM     32  O   LIG    1       25.448 -26.995  13.076  0.00  0.00    -0.252 OA
ATOM     33  C   LIG    1       22.667 -27.037  13.081  0.00  0.00    +0.149 C 
ATOM     34  C   LIG    1       21.301 -27.644  13.082  0.00  0.00    -0.047 C 
ATOM     35  C   LIG    1       20.136 -26.791  13.445  0.00  0.00    +0.041 C 
BRANCH  25  37
ATOM     36  C   LIG    1       20.032 -30.519  11.279  0.00  0.00    +0.009 C 
ATOM     37  C   LIG    1       20.251 -29.983  12.686  0.00  0.00    +0.037 C 
ENDBRANCH  25  37
ENDBRANCH  24  30
ENDBRANCH  23  24
ENDBRANCH   1  23
TORSDOF 9
ENDMDL
MODEL 6
REMARK VINA RESULT:      -9.1      4.335      5.942
REMARK  Name = *****
REMARK                            x       y       z     vdW  Elec       q    Type
REMARK                         _______ _______ _______ _____ _____    ______ ____
ROOT
ATOM      1  C   LIG    1       24.455 -29.998   7.849  0.00  0.00    -0.046 A 
ATOM      2  C   LIG    1       25.395 -29.141   8.437  0.00  0.00    +0.005 A 
ATOM      3  C   LIG    1       25.884 -28.039   7.732  0.00  0.00    +0.029 A 
ATOM      4  C   LIG    1       25.424 -27.791   6.436  0.00  0.00    +0.113 A 
ATOM      5  C   LIG    1       24.469 -28.619   5.846  0.00  0.00    +0.029 A 
ATOM      6  C   LIG    1       23.985 -29.718   6.556  0.00  0.00    +0.005 A 
ENDROOT
BRANCH   4   7
ATOM      7  S   LIG    1       26.096 -26.439   5.493  0.00  0.00    +0.103 S 
ATOM      8  O   LIG    1       25.369 -26.379   4.239  0.00  0.00    -0.146 OA
ATOM      9  O   LIG    1       27.540 -26.620   5.479  0.00  0.00    -0.146 OA
BRANCH   7  10
ATOM     10  N   LIG    1       25.720 -25.160   6.397  0.00  0.00    -0.076 NA
ATOM     11  C   LIG    1       24.555 -24.619   6.402  0.00  0.00    +0.299 C 
BRANCH  11  12
ATOM     12  N   LIG    1       24.189 -23.533   7.123  0.00  0.00    -0.295 N 
ATOM     13  H   LIG    1       24.171 -23.671   8.127  0.00  0.00    +0.151 HD
BRANCH  12  14
ATOM     14  C   LIG    1       24.193 -22.168   6.633  0.00  0.00    +0.075 C 
ATOM     15  C   LIG    1       22.769 -21.728   6.263  0.00  0.00    +0.022 C 
ATOM     16  C   LIG    1       22.761 -20.327   5.648  0.00  0.00    +0.005 C 
ATOM     17  C   LIG    1       23.682 -20.248   4.424  0.00  0.00    -0.014 C 
ATOM     18  C   LIG    1       23.679 -18.841   3.828  0.00  0.00    +0.007 C 
ATOM     19  C   LIG    1       25.105 -20.683   4.794  0.00  0.00    +0.005 C 
ATOM     20  C   LIG    1       25.121 -22.078   5.416  0.00  0.00    +0.022 C 
ENDBRANCH  12  14
ENDBRANCH  11  12
BRANCH  11  21
ATOM     21  O   LIG    1       23.499 -25.037   5.686  0.00  0.00    -0.481 OA
ATOM     22  H   LIG    1       23.046 -24.299   5.228  0.00  0.00    +0.295 HD
ENDBRANCH  11  21
ENDBRANCH   7  10
ENDBRANCH   4   7
BRANCH   1  23
ATOM     23  C   LIG    1       23.966 -31.232   8.576  0.00  0.00    +0.054 C 
BRANCH  23  24
ATOM     24  C   LIG    1       24.473 -31.364  10.017  0.00  0.00    +0.110 C 
BRANCH  24  30
ATOM     25  C   LIG    1       22.535 -27.164  13.334  0.00  0.00    +0.015 C 
ATOM     26  C   LIG    1       23.307 -28.201  12.610  0.00  0.00    +0.250 C 
ATOM     27  O   LIG    1       24.518 -28.223  12.521  0.00  0.00    -0.270 OA
ATOM     28  N   LIG    1       22.393 -29.105  12.071  0.00  0.00    -0.218 N 
ATOM     29  C   LIG    1       22.651 -30.166  11.223  0.00  0.00    +0.309 C 
ATOM     30  N   LIG    1       23.973 -30.357  10.929  0.00  0.00    -0.299 N 
ATOM     31  H   LIG    1       24.639 -29.706  11.341  0.00  0.00    +0.150 HD
ATOM     32  O   LIG    1       21.754 -30.855  10.740  0.00  0.00    -0.252 OA
ATOM     33  C   LIG    1       21.050 -28.754  12.420  0.00  0.00    +0.149 C 
ATOM     34  C   LIG    1       21.240 -27.491  13.197  0.00  0.00    -0.047 C 
ATOM     35  C   LIG    1       20.039 -26.762  13.691  0.00  0.00    +0.041 C 
BRANCH  25  37
ATOM     36  C   LIG    1       23.670 -26.247  15.378  0.00  0.00    +0.009 C 
ATOM     37  C   LIG    1       23.220 -25.992  13.946  0.00  0.00    +0.037 C 
ENDBRANCH  25  37
ENDBRANCH  24  30
ENDBRANCH  23  24
ENDBRANCH   1  23
TORSDOF 9
ENDMDL
MODEL 7
REMARK VINA RESULT:      -9.1      4.269      6.406
REMARK  Name = *****
REMARK                            x       y       z     vdW  Elec       q    Type
REMARK                         _______ _______ _______ _____ _____    ______ ____
ROOT
ATOM      1  C   LIG    1       25.419 -29.612   9.315  0.00  0.00    -0.046 A 
ATOM      2  C   LIG    1       26.347 -28.563   9.306  0.00  0.00    +0.005 A 
ATOM      3  C   LIG    1       26.449 -27.718   8.199  0.00  0.00    +0.029 A 
ATOM      4  C   LIG    1       25.613 -27.922   7.098  0.00  0.00    +0.113 A 
ATOM      5  C   LIG    1       24.665 -28.946   7.101  0.00  0.00    +0.029 A 
ATOM      6  C   LIG    1       24.569 -29.785   8.210  0.00  0.00    +0.005 A 
ENDROOT
BRANCH   4   7
ATOM      7  S   LIG    1       25.784 -26.907   5.646  0.00  0.00    +0.103 S 
ATOM      8  O   LIG    1       24.720 -27.273   4.730  0.00  0.00    -0.146 OA
ATOM      9  O   LIG    1       27.170 -27.023   5.220  0.00  0.00    -0.146 OA
BRANCH   7  10
ATOM     10  N   LIG    1       25.516 -25.426   6.220  0.00  0.00    -0.076 NA
ATOM     11  C   LIG    1       25.123 -24.447   5.486  0.00  0.00    +0.299 C 
BRANCH  11  12
ATOM     12  N   LIG    1       24.903 -23.179   5.909  0.00  0.00    -0.295 N 
ATOM     13  H   LIG    1       25.500 -22.872   6.668  0.00  0.00    +0.151 HD
BRANCH  12  14
ATOM     14  C   LIG    1       24.192 -22.162   5.159  0.00  0.00    +0.075 C 
ATOM     15  C   LIG    1       25.062 -20.907   5.002  0.00  0.00    +0.022 C 
ATOM     16  C   LIG    1       24.297 -19.782   4.302  0.00  0.00    +0.005 C 
ATOM     17  C   LIG    1       22.998 -19.444   5.044  0.00  0.00    -0.014 C 
ATOM     18  C   LIG    1       22.233 -18.332   4.328  0.00  0.00    +0.007 C 
ATOM     19  C   LIG    1       22.126 -20.696   5.198  0.00  0.00    +0.005 C 
ATOM     20  C   LIG    1       22.886 -21.827   5.888  0.00  0.00    +0.022 C 
ENDBRANCH  12  14
ENDBRANCH  11  12
BRANCH  11  21
ATOM     21  O   LIG    1       24.868 -24.513   4.170  0.00  0.00    -0.481 OA
ATOM     22  H   LIG    1       25.655 -24.785   3.653  0.00  0.00    +0.295 HD
ENDBRANCH  11  21
ENDBRANCH   7  10
ENDBRANCH   4   7
BRANCH   1  23
ATOM     23  C   LIG    1       25.343 -30.574  10.480  0.00  0.00    +0.054 C 
BRANCH  23  24
ATOM     24  C   LIG    1       24.510 -30.073  11.665  0.00  0.00    +0.110 C 
BRANCH  24  30
ATOM     25  C   LIG    1       26.787 -25.451  14.083  0.00  0.00    +0.015 C 
ATOM     26  C   LIG    1       26.469 -26.780  13.510  0.00  0.00    +0.250 C 
ATOM     27  O   LIG    1       27.296 -27.598  13.164  0.00  0.00    -0.270 OA
ATOM     28  N   LIG    1       25.080 -26.888  13.449  0.00  0.00    -0.218 N 
ATOM     29  C   LIG    1       24.335 -27.904  12.879  0.00  0.00    +0.309 C 
ATOM     30  N   LIG    1       25.071 -28.935  12.362  0.00  0.00    -0.299 N 
ATOM     31  H   LIG    1       26.084 -28.860  12.427  0.00  0.00    +0.150 HD
ATOM     32  O   LIG    1       23.108 -27.860  12.809  0.00  0.00    -0.252 OA
ATOM     33  C   LIG    1       24.445 -25.720  13.980  0.00  0.00    +0.149 C 
ATOM     34  C   LIG    1       25.611 -24.852  14.328  0.00  0.00    -0.047 C 
ATOM     35  C   LIG    1       25.356 -23.486  14.862  0.00  0.00    +0.041 C 
BRANCH  25  37
ATOM     36  C   LIG    1       28.859 -25.393  15.500  0.00  0.00    +0.009 C 
ATOM     37  C   LIG    1       28.198 -24.986  14.191  0.00  0.00    +0.037 C 
ENDBRANCH  25  37
ENDBRANCH  24  30
ENDBRANCH  23  24
ENDBRANCH   1  23
TORSDOF 9
ENDMDL
MODEL 8
REMARK VINA RESULT:      -9.1      3.106      4.721
REMARK  Name = *****
REMARK                            x       y       z     vdW  Elec       q    Type
REMARK                         _______ _______ _______ _____ _____    ______ ____
ROOT
ATOM      1  C   LIG    1       25.759 -29.809   8.607  0.00  0.00    -0.046 A 
ATOM      2  C   LIG    1       26.467 -28.621   8.827  0.00  0.00    +0.005 A 
ATOM      3  C   LIG    1       26.265 -27.513   8.001  0.00  0.00    +0.029 A 
ATOM      4  C   LIG    1       25.343 -27.595   6.953  0.00  0.00    +0.113 A 
ATOM      5  C   LIG    1       24.610 -28.762   6.736  0.00  0.00    +0.029 A 
ATOM      6  C   LIG    1       24.818 -29.864   7.565  0.00  0.00    +0.005 A 
ENDROOT
BRANCH   4   7
ATOM      7  S   LIG    1       25.131 -26.222   5.841  0.00  0.00    +0.103 S 
ATOM      8  O   LIG    1       23.706 -26.024   5.660  0.00  0.00    -0.146 OA
ATOM      9  O   LIG    1       25.972 -26.490   4.685  0.00  0.00    -0.146 OA
BRANCH   7  10
ATOM     10  N   LIG    1       25.744 -24.992   6.682  0.00  0.00    -0.076 NA
ATOM     11  C   LIG    1       25.348 -23.778   6.543  0.00  0.00    +0.299 C 
BRANCH  11  12
ATOM     12  N   LIG    1       25.841 -22.704   7.206  0.00  0.00    -0.295 N 
ATOM     13  H   LIG    1       25.481 -22.579   8.145  0.00  0.00    +0.151 HD
BRANCH  12  14
ATOM     14  C   LIG    1       27.048 -21.986   6.847  0.00  0.00    +0.075 C 
ATOM     15  C   LIG    1       27.897 -21.709   8.096  0.00  0.00    +0.022 C 
ATOM     16  C   LIG    1       29.127 -20.863   7.758  0.00  0.00    +0.005 C 
ATOM     17  C   LIG    1       28.730 -19.547   7.077  0.00  0.00    -0.014 C 
ATOM     18  C   LIG    1       29.966 -18.719   6.728  0.00  0.00    +0.007 C 
ATOM     19  C   LIG    1       27.886 -19.823   5.827  0.00  0.00    +0.005 C 
ATOM     20  C   LIG    1       26.661 -20.674   6.155  0.00  0.00    +0.022 C 
ENDBRANCH  12  14
ENDBRANCH  11  12
BRANCH  11  21
ATOM     21  O   LIG    1       24.379 -23.364   5.711  0.00  0.00    -0.481 OA
ATOM     22  H   LIG    1       24.565 -23.600   4.779  0.00  0.00    +0.295 HD
ENDBRANCH  11  21
ENDBRANCH   7  10
ENDBRANCH   4   7
BRANCH   1  23
ATOM     23  C   LIG    1       26.017 -31.037   9.453  0.00  0.00    +0.054 C 
BRANCH  23  24
ATOM     24  C   LIG    1       24.829 -31.473  10.318  0.00  0.00    +0.110 C 
BRANCH  24  30
ATOM     25  C   LIG    1       22.660 -27.130  13.290  0.00  0.00    +0.015 C 
ATOM     26  C   LIG    1       23.481 -28.200  12.674  0.00  0.00    +0.250 C 
ATOM     27  O   LIG    1       24.694 -28.230  12.684  0.00  0.00    -0.270 OA
ATOM     28  N   LIG    1       22.606 -29.122  12.102  0.00  0.00    -0.218 N 
ATOM     29  C   LIG    1       22.925 -30.218  11.322  0.00  0.00    +0.309 C 
ATOM     30  N   LIG    1       24.265 -30.427  11.144  0.00  0.00    -0.299 N 
ATOM     31  H   LIG    1       24.900 -29.761  11.581  0.00  0.00    +0.150 HD
ATOM     32  O   LIG    1       22.065 -30.924  10.798  0.00  0.00    -0.252 OA
ATOM     33  C   LIG    1       21.242 -28.751  12.326  0.00  0.00    +0.149 C 
ATOM     34  C   LIG    1       21.379 -27.457  13.063  0.00  0.00    -0.047 C 
ATOM     35  C   LIG    1       20.147 -26.704  13.427  0.00  0.00    +0.041 C 
BRANCH  25  37
ATOM     36  C   LIG    1       23.568 -26.105  15.395  0.00  0.00    +0.009 C 
ATOM     37  C   LIG    1       23.302 -25.935  13.906  0.00  0.00    +0.037 C 
ENDBRANCH  25  37
ENDBRANCH  24  30
ENDBRANCH  23  24
ENDBRANCH   1  23
TORSDOF 9
ENDMDL
MODEL 9
REMARK VINA RESULT:      -9.1      3.730      6.130
REMARK  Name = *****
REMARK                            x       y       z     vdW  Elec       q    Type
REMARK                         _______ _______ _______ _____ _____    ______ ____
ROOT
ATOM      1  C   LIG    1       25.437 -31.068   9.088  0.00  0.00    -0.046 A 
ATOM      2  C   LIG    1       25.849 -29.731   9.181  0.00  0.00    +0.005 A 
ATOM      3  C   LIG    1       25.631 -28.849   8.121  0.00  0.00    +0.029 A 
ATOM      4  C   LIG    1       24.992 -29.306   6.964  0.00  0.00    +0.113 A 
ATOM      5  C   LIG    1       24.553 -30.627   6.865  0.00  0.00    +0.029 A 
ATOM      6  C   LIG    1       24.773 -31.502   7.928  0.00  0.00    +0.005 A 
ENDROOT
BRANCH   4   7
ATOM      7  S   LIG    1       24.780 -28.218   5.572  0.00  0.00    +0.103 S 
ATOM      8  O   LIG    1       23.796 -28.822   4.693  0.00  0.00    -0.146 OA
ATOM      9  O   LIG    1       26.112 -27.926   5.066  0.00  0.00    -0.146 OA
BRANCH   7  10
ATOM     10  N   LIG    1       24.157 -26.897   6.251  0.00  0.00    -0.076 NA
ATOM     11  C   LIG    1       24.149 -25.747   5.678  0.00  0.00    +0.299 C 
BRANCH  11  12
ATOM     12  N   LIG    1       23.659 -24.601   6.209  0.00  0.00    -0.295 N 
ATOM     13  H   LIG    1       22.780 -24.700   6.702  0.00  0.00    +0.151 HD
BRANCH  12  14
ATOM     14  C   LIG    1       24.431 -23.396   6.445  0.00  0.00    +0.075 C 
ATOM     15  C   LIG    1       25.730 -23.730   7.192  0.00  0.00    +0.022 C 
ATOM     16  C   LIG    1       26.512 -22.463   7.542  0.00  0.00    +0.005 C 
ATOM     17  C   LIG    1       25.659 -21.486   8.361  0.00  0.00    -0.014 C 
ATOM     18  C   LIG    1       26.444 -20.217   8.690  0.00  0.00    +0.007 C 
ATOM     19  C   LIG    1       24.363 -21.149   7.613  0.00  0.00    +0.005 C 
ATOM     20  C   LIG    1       23.580 -22.410   7.253  0.00  0.00    +0.022 C 
ENDBRANCH  12  14
ENDBRANCH  11  12
BRANCH  11  21
ATOM     21  O   LIG    1       24.632 -25.483   4.454  0.00  0.00    -0.481 OA
ATOM     22  H   LIG    1       24.085 -24.829   3.973  0.00  0.00    +0.295 HD
ENDBRANCH  11  21
ENDBRANCH   7  10
ENDBRANCH   4   7
BRANCH   1  23
ATOM     23  C   LIG    1       25.725 -32.050  10.202  0.00  0.00    +0.054 C 
BRANCH  23  24
ATOM     24  C   LIG    1       24.573 -32.240  11.195  0.00  0.00    +0.110 C 
BRANCH  24  30
ATOM     25  C   LIG    1       22.716 -27.258  13.227  0.00  0.00    +0.015 C 
ATOM     26  C   LIG    1       23.450 -28.492  12.864  0.00  0.00    +0.250 C 
ATOM     27  O   LIG    1       24.650 -28.640  12.975  0.00  0.00    -0.270 OA
ATOM     28  N   LIG    1       22.517 -29.409  12.383  0.00  0.00    -0.218 N 
ATOM     29  C   LIG    1       22.760 -30.650  11.823  0.00  0.00    +0.309 C 
ATOM     30  N   LIG    1       24.077 -31.016  11.789  0.00  0.00    -0.299 N 
ATOM     31  H   LIG    1       24.753 -30.351  12.160  0.00  0.00    +0.150 HD
ATOM     32  O   LIG    1       21.861 -31.348  11.355  0.00  0.00    -0.252 OA
ATOM     33  C   LIG    1       21.190 -28.873  12.434  0.00  0.00    +0.149 C 
ATOM     34  C   LIG    1       21.423 -27.492  12.955  0.00  0.00    -0.047 C 
ATOM     35  C   LIG    1       20.262 -26.570  13.090  0.00  0.00    +0.041 C 
BRANCH  25  37
ATOM     36  C   LIG    1       23.506 -25.924  15.202  0.00  0.00    +0.009 C 
ATOM     37  C   LIG    1       23.447 -26.043  13.686  0.00  0.00    +0.037 C 
ENDBRANCH  25  37
ENDBRANCH  24  30
ENDBRANCH  23  24
ENDBRANCH   1  23
TORSDOF 9
ENDMDL
