MODEL 1
REMARK VINA RESULT:      -6.4      0.000      0.000
REMARK  Name = *****
REMARK                            x       y       z     vdW  Elec       q    Type
REMARK                         _______ _______ _______ _____ _____    ______ ____
ROOT
ATOM      1  C   LIG    1       24.373 -22.538   5.592  0.00  0.00    +0.022 C 
ENDROOT
BRANCH   1   2
ATOM      2  C   LIG    1       24.563 -21.080   6.078  0.00  0.00    -0.010 C 
ATOM      3  C   LIG    1       25.440 -20.290   5.085  0.00  0.00    +0.003 C 
ATOM      4  C   LIG    1       24.718 -19.959   3.779  0.00  0.00    +0.000 C 
ATOM      5  C   LIG    1       23.392 -19.247   4.029  0.00  0.00    +0.000 C 
ATOM      6  C   LIG    1       22.503 -20.010   5.007  0.00  0.00    +0.000 C 
ATOM      7  C   LIG    1       23.241 -20.328   6.307  0.00  0.00    +0.003 C 
ENDBRANCH   1   2
BRANCH   1   8
ATOM      8  C   LIG    1       24.325 -23.616   6.697  0.00  0.00    +0.051 C 
ATOM      9  C   LIG    1       25.715 -24.190   6.994  0.00  0.00    +0.024 C 
BRANCH   8  11
ATOM     10  C   LIG    1       24.202 -25.958   5.978  0.00  0.00    +0.101 C 
ATOM     11  N   LIG    1       23.463 -24.755   6.333  0.00  0.00    -0.317 NA
ATOM     12  H   LIG    1       22.817 -24.963   7.090  0.00  0.00    +0.122 HD
ENDBRANCH   8  11
ENDBRANCH   1   8
TORSDOF 3
ENDMDL
MODEL 2
REMARK VINA RESULT:      -6.3      1.762      2.765
REMARK  Name = *****
REMARK                            x       y       z     vdW  Elec       q    Type
REMARK                         _______ _______ _______ _____ _____    ______ ____
ROOT
ATOM      1  C   LIG    1       25.696 -20.516   5.707  0.00  0.00    +0.022 C 
ENDROOT
BRANCH   1   2
ATOM      2  C   LIG    1       24.654 -21.009   4.674  0.00  0.00    -0.010 C 
ATOM      3  C   LIG    1       23.266 -21.151   5.332  0.00  0.00    +0.003 C 
ATOM      4  C   LIG    1       22.606 -19.807   5.635  0.00  0.00    +0.000 C 
ATOM      5  C   LIG    1       22.539 -18.916   4.398  0.00  0.00    +0.000 C 
ATOM      6  C   LIG    1       23.901 -18.757   3.728  0.00  0.00    +0.000 C 
ATOM      7  C   LIG    1       24.543 -20.111   3.430  0.00  0.00    +0.003 C 
ENDBRANCH   1   2
BRANCH   1   8
ATOM      8  C   LIG    1       25.773 -21.321   7.024  0.00  0.00    +0.051 C 
ATOM      9  C   LIG    1       26.387 -20.496   8.160  0.00  0.00    +0.024 C 
BRANCH   8  11
ATOM     10  C   LIG    1       25.843 -23.772   7.072  0.00  0.00    +0.101 C 
ATOM     11  N   LIG    1       26.593 -22.537   6.890  0.00  0.00    -0.317 NA
ATOM     12  H   LIG    1       27.058 -22.551   5.985  0.00  0.00    +0.122 HD
ENDBRANCH   8  11
ENDBRANCH   1   8
TORSDOF 3
ENDMDL
MODEL 3
REMARK VINA RESULT:      -6.2      2.636      3.654
REMARK  Name = *****
REMARK                            x       y       z     vdW  Elec       q    Type
REMARK                         _______ _______ _______ _____ _____    ______ ____
ROOT
ATOM      1  C   LIG    1       25.960 -20.341   5.601  0.00  0.00    +0.022 C 
ENDROOT
BRANCH   1   2
ATOM      2  C   LIG    1       24.883 -21.004   4.707  0.00  0.00    -0.010 C 
ATOM      3  C   LIG    1       23.609 -21.299   5.526  0.00  0.00    +0.003 C 
ATOM      4  C   LIG    1       22.815 -20.040   5.874  0.00  0.00    +0.000 C 
ATOM      5  C   LIG    1       22.492 -19.213   4.633  0.00  0.00    +0.000 C 
ATOM      6  C   LIG    1       23.736 -18.905   3.805  0.00  0.00    +0.000 C 
ATOM      7  C   LIG    1       24.514 -20.175   3.464  0.00  0.00    +0.003 C 
ENDBRANCH   1   2
BRANCH   1   8
ATOM      8  C   LIG    1       26.463 -21.189   6.790  0.00  0.00    +0.051 C 
ATOM      9  C   LIG    1       26.095 -20.554   8.137  0.00  0.00    +0.024 C 
BRANCH   8  11
ATOM     10  C   LIG    1       28.643 -20.191   6.274  0.00  0.00    +0.101 C 
ATOM     11  N   LIG    1       27.927 -21.353   6.783  0.00  0.00    -0.317 NA
ATOM     12  H   LIG    1       28.261 -21.576   7.717  0.00  0.00    +0.122 HD
ENDBRANCH   8  11
ENDBRANCH   1   8
TORSDOF 3
ENDMDL
MODEL 4
REMARK VINA RESULT:      -6.0      2.131      2.840
REMARK  Name = *****
REMARK                            x       y       z     vdW  Elec       q    Type
REMARK                         _______ _______ _______ _____ _____    ______ ____
ROOT
ATOM      1  C   LIG    1       25.044 -23.869   5.499  0.00  0.00    +0.022 C 
ENDROOT
BRANCH   1   2
ATOM      2  C   LIG    1       24.406 -23.584   6.881  0.00  0.00    -0.010 C 
ATOM      3  C   LIG    1       25.275 -22.593   7.682  0.00  0.00    +0.003 C 
ATOM      4  C   LIG    1       25.204 -21.164   7.147  0.00  0.00    +0.000 C 
ATOM      5  C   LIG    1       23.765 -20.670   7.037  0.00  0.00    +0.000 C 
ATOM      6  C   LIG    1       22.883 -21.632   6.246  0.00  0.00    +0.000 C 
ATOM      7  C   LIG    1       22.964 -23.053   6.800  0.00  0.00    +0.003 C 
ENDBRANCH   1   2
BRANCH   1   8
ATOM      8  C   LIG    1       25.284 -25.357   5.161  0.00  0.00    +0.051 C 
ATOM      9  C   LIG    1       24.094 -26.233   5.573  0.00  0.00    +0.024 C 
BRANCH   8  11
ATOM     10  C   LIG    1       26.152 -26.847   6.906  0.00  0.00    +0.101 C 
ATOM     11  N   LIG    1       26.470 -25.903   5.843  0.00  0.00    -0.317 NA
ATOM     12  H   LIG    1       27.091 -26.344   5.170  0.00  0.00    +0.122 HD
ENDBRANCH   8  11
ENDBRANCH   1   8
TORSDOF 3
ENDMDL
MODEL 5
REMARK VINA RESULT:      -6.0      2.019      4.718
REMARK  Name = *****
REMARK                            x       y       z     vdW  Elec       q    Type
REMARK                         _______ _______ _______ _____ _____    ______ ____
ROOT
ATOM      1  C   LIG    1       23.169 -21.616   5.449  0.00  0.00    +0.022 C 
ENDROOT
BRANCH   1   2
ATOM      2  C   LIG    1       23.222 -22.202   6.881  0.00  0.00    -0.010 C 
ATOM      3  C   LIG    1       22.889 -23.708   6.860  0.00  0.00    +0.003 C 
ATOM      4  C   LIG    1       24.010 -24.562   6.267  0.00  0.00    +0.000 C 
ATOM      5  C   LIG    1       25.346 -24.303   6.958  0.00  0.00    +0.000 C 
ATOM      6  C   LIG    1       25.700 -22.819   6.991  0.00  0.00    +0.000 C 
ATOM      7  C   LIG    1       24.570 -21.984   7.590  0.00  0.00    +0.003 C 
ENDBRANCH   1   2
BRANCH   1   8
ATOM      8  C   LIG    1       23.619 -20.145   5.306  0.00  0.00    +0.051 C 
ATOM      9  C   LIG    1       22.444 -19.220   4.968  0.00  0.00    +0.024 C 
BRANCH   8  11
ATOM     10  C   LIG    1       25.995 -19.954   4.727  0.00  0.00    +0.101 C 
ATOM     11  N   LIG    1       24.622 -19.966   4.242  0.00  0.00    -0.317 NA
ATOM     12  H   LIG    1       24.516 -20.688   3.534  0.00  0.00    +0.122 HD
ENDBRANCH   8  11
ENDBRANCH   1   8
TORSDOF 3
ENDMDL
MODEL 6
REMARK VINA RESULT:      -5.9      3.137      4.950
REMARK  Name = *****
REMARK                            x       y       z     vdW  Elec       q    Type
REMARK                         _______ _______ _______ _____ _____    ______ ____
ROOT
ATOM      1  C   LIG    1       26.256 -20.596   6.240  0.00  0.00    +0.022 C 
ENDROOT
BRANCH   1   2
ATOM      2  C   LIG    1       25.540 -21.061   7.533  0.00  0.00    -0.010 C 
ATOM      3  C   LIG    1       24.033 -20.742   7.459  0.00  0.00    +0.003 C 
ATOM      4  C   LIG    1       23.274 -21.647   6.490  0.00  0.00    +0.000 C 
ATOM      5  C   LIG    1       23.510 -23.124   6.792  0.00  0.00    +0.000 C 
ATOM      6  C   LIG    1       24.995 -23.468   6.868  0.00  0.00    +0.000 C 
ATOM      7  C   LIG    1       25.734 -22.555   7.844  0.00  0.00    +0.003 C 
ENDBRANCH   1   2
BRANCH   1   8
ATOM      8  C   LIG    1       27.786 -20.411   6.347  0.00  0.00    +0.051 C 
ATOM      9  C   LIG    1       28.210 -19.977   7.755  0.00  0.00    +0.024 C 
BRANCH   8  11
ATOM     10  C   LIG    1       29.429 -18.638   5.933  0.00  0.00    +0.101 C 
ATOM     11  N   LIG    1       28.294 -19.389   5.416  0.00  0.00    -0.317 NA
ATOM     12  H   LIG    1       28.544 -19.816   4.527  0.00  0.00    +0.122 HD
ENDBRANCH   8  11
ENDBRANCH   1   8
TORSDOF 3
ENDMDL
MODEL 7
REMARK VINA RESULT:      -5.8      6.941      8.474
REMARK  Name = *****
REMARK                            x       y       z     vdW  Elec       q    Type
REMARK                         _______ _______ _______ _____ _____    ______ ____
ROOT
ATOM      1  C   LIG    1       30.142 -18.223   8.564  0.00  0.00    +0.022 C 
ENDROOT
BRANCH   1   2
ATOM      2  C   LIG    1       30.464 -19.415   7.629  0.00  0.00    -0.010 C 
ATOM      3  C   LIG    1       29.471 -20.571   7.868  0.00  0.00    +0.003 C 
ATOM      4  C   LIG    1       28.072 -20.282   7.325  0.00  0.00    +0.000 C 
ATOM      5  C   LIG    1       28.106 -19.880   5.854  0.00  0.00    +0.000 C 
ATOM      6  C   LIG    1       29.079 -18.735   5.591  0.00  0.00    +0.000 C 
ATOM      7  C   LIG    1       30.473 -19.045   6.136  0.00  0.00    +0.003 C 
ENDBRANCH   1   2
BRANCH   1   8
ATOM      8  C   LIG    1       31.283 -17.778   9.506  0.00  0.00    +0.051 C 
ATOM      9  C   LIG    1       30.748 -17.035  10.736  0.00  0.00    +0.024 C 
BRANCH   8  11
ATOM     10  C   LIG    1       32.767 -15.837   9.719  0.00  0.00    +0.101 C 
ATOM     11  N   LIG    1       32.236 -16.871   8.842  0.00  0.00    -0.317 NA
ATOM     12  H   LIG    1       33.003 -17.402   8.437  0.00  0.00    +0.122 HD
ENDBRANCH   8  11
ENDBRANCH   1   8
TORSDOF 3
ENDMDL
MODEL 8
REMARK VINA RESULT:      -5.8      2.068      4.845
REMARK  Name = *****
REMARK                            x       y       z     vdW  Elec       q    Type
REMARK                         _______ _______ _______ _____ _____    ______ ____
ROOT
ATOM      1  C   LIG    1       24.678 -20.511   5.880  0.00  0.00    +0.022 C 
ENDROOT
BRANCH   1   2
ATOM      2  C   LIG    1       24.269 -21.264   7.170  0.00  0.00    -0.010 C 
ATOM      3  C   LIG    1       23.570 -22.593   6.820  0.00  0.00    +0.003 C 
ATOM      4  C   LIG    1       24.530 -23.654   6.283  0.00  0.00    +0.000 C 
ATOM      5  C   LIG    1       25.707 -23.883   7.225  0.00  0.00    +0.000 C 
ATOM      6  C   LIG    1       26.420 -22.582   7.586  0.00  0.00    +0.000 C 
ATOM      7  C   LIG    1       25.444 -21.537   8.125  0.00  0.00    +0.003 C 
ENDBRANCH   1   2
BRANCH   1   8
ATOM      8  C   LIG    1       23.554 -20.292   4.843  0.00  0.00    +0.051 C 
ATOM      9  C   LIG    1       24.083 -19.643   3.559  0.00  0.00    +0.024 C 
BRANCH   8  11
ATOM     10  C   LIG    1       22.156 -18.314   4.461  0.00  0.00    +0.101 C 
ATOM     11  N   LIG    1       22.483 -19.418   5.352  0.00  0.00    -0.317 NA
ATOM     12  H   LIG    1       21.646 -19.962   5.542  0.00  0.00    +0.122 HD
ENDBRANCH   8  11
ENDBRANCH   1   8
TORSDOF 3
ENDMDL
MODEL 9
REMARK VINA RESULT:      -5.8      1.416      2.764
REMARK  Name = *****
REMARK                            x       y       z     vdW  Elec       q    Type
REMARK                         _______ _______ _______ _____ _____    ______ ____
ROOT
ATOM      1  C   LIG    1       24.795 -22.817   5.537  0.00  0.00    +0.022 C 
ENDROOT
BRANCH   1   2
ATOM      2  C   LIG    1       24.481 -21.352   5.929  0.00  0.00    -0.010 C 
ATOM      3  C   LIG    1       24.269 -21.236   7.453  0.00  0.00    +0.003 C 
ATOM      4  C   LIG    1       25.565 -21.369   8.251  0.00  0.00    +0.000 C 
ATOM      5  C   LIG    1       26.632 -20.391   7.768  0.00  0.00    +0.000 C 
ATOM      6  C   LIG    1       26.864 -20.488   6.262  0.00  0.00    +0.000 C 
ATOM      7  C   LIG    1       25.557 -20.348   5.482  0.00  0.00    +0.003 C 
ENDBRANCH   1   2
BRANCH   1   8
ATOM      8  C   LIG    1       24.524 -23.880   6.625  0.00  0.00    +0.051 C 
ATOM      9  C   LIG    1       25.796 -24.650   6.997  0.00  0.00    +0.024 C 
BRANCH   8  11
ATOM     10  C   LIG    1       24.118 -26.128   5.735  0.00  0.00    +0.101 C 
ATOM     11  N   LIG    1       23.530 -24.879   6.198  0.00  0.00    -0.317 NA
ATOM     12  H   LIG    1       22.876 -25.070   6.953  0.00  0.00    +0.122 HD
ENDBRANCH   8  11
ENDBRANCH   1   8
TORSDOF 3
ENDMDL
