MODEL 1
REMARK VINA RESULT:      -4.8      0.000      0.000
REMARK  Name = *****
REMARK                            x       y       z     vdW  Elec       q    Type
REMARK                         _______ _______ _______ _____ _____    ______ ____
ROOT
ATOM      1  C   LIG    1       31.159 -18.780   8.015  0.00  0.00    +0.175 C 
ENDROOT
BRANCH   1   3
ATOM      2  O   LIG    1       30.149 -20.887   8.760  0.00  0.00    -0.250 OA
ATOM      3  C   LIG    1       31.103 -20.118   8.733  0.00  0.00    +0.319 C 
BRANCH   3   4
ATOM      4  O   LIG    1       32.253 -20.450   9.345  0.00  0.00    -0.480 OA
ATOM      5  H   LIG    1       32.602 -21.214   8.839  0.00  0.00    +0.295 HD
ENDBRANCH   3   4
ENDBRANCH   1   3
BRANCH   1   6
ATOM      6  S   LIG    1       29.974 -18.802   6.610  0.00  0.00    -0.162 S 
ATOM      7  H   LIG    1       30.653 -19.674   5.847  0.00  0.00    +0.102 HD
ENDBRANCH   1   6
BRANCH   1   8
ATOM      8  C   LIG    1       30.923 -17.599   8.972  0.00  0.00    +0.175 C 
BRANCH   8   9
ATOM      9  C   LIG    1       32.265 -17.064   9.463  0.00  0.00    +0.319 C 
ATOM     10  O   LIG    1       32.879 -17.547  10.404  0.00  0.00    -0.250 OA
BRANCH   9  11
ATOM     11  O   LIG    1       32.779 -16.049   8.732  0.00  0.00    -0.480 OA
ATOM     12  H   LIG    1       32.161 -15.287   8.672  0.00  0.00    +0.295 HD
ENDBRANCH   9  11
ENDBRANCH   8   9
BRANCH   8  13
ATOM     13  S   LIG    1       29.790 -17.922  10.401  0.00  0.00    -0.162 S 
ATOM     14  H   LIG    1       30.281 -19.146  10.695  0.00  0.00    +0.102 HD
ENDBRANCH   8  13
ENDBRANCH   1   8
TORSDOF 7
ENDMDL
MODEL 2
REMARK VINA RESULT:      -4.5      2.144      2.781
REMARK  Name = *****
REMARK                            x       y       z     vdW  Elec       q    Type
REMARK                         _______ _______ _______ _____ _____    ______ ____
ROOT
ATOM      1  C   LIG    1       30.353 -21.157   7.867  0.00  0.00    +0.175 C 
ENDROOT
BRANCH   1   3
ATOM      2  O   LIG    1       30.682 -21.897  10.182  0.00  0.00    -0.250 OA
ATOM      3  C   LIG    1       31.071 -21.835   9.021  0.00  0.00    +0.319 C 
BRANCH   3   4
ATOM      4  O   LIG    1       32.217 -22.439   8.662  0.00  0.00    -0.480 OA
ATOM      5  H   LIG    1       32.779 -22.425   9.466  0.00  0.00    +0.295 HD
ENDBRANCH   3   4
ENDBRANCH   1   3
BRANCH   1   6
ATOM      6  S   LIG    1       28.538 -21.286   8.130  0.00  0.00    -0.162 S 
ATOM      7  H   LIG    1       28.209 -20.146   7.502  0.00  0.00    +0.102 HD
ENDBRANCH   1   6
BRANCH   1   8
ATOM      8  C   LIG    1       30.821 -19.705   7.667  0.00  0.00    +0.175 C 
BRANCH   8   9
ATOM      9  C   LIG    1       30.829 -18.981   9.011  0.00  0.00    +0.319 C 
ATOM     10  O   LIG    1       29.828 -18.499   9.522  0.00  0.00    -0.250 OA
BRANCH   9  11
ATOM     11  O   LIG    1       32.021 -18.973   9.650  0.00  0.00    -0.480 OA
ATOM     12  H   LIG    1       32.216 -19.835  10.080  0.00  0.00    +0.295 HD
ENDBRANCH   9  11
ENDBRANCH   8   9
BRANCH   8  13
ATOM     13  S   LIG    1       29.895 -18.717   6.404  0.00  0.00    -0.162 S 
ATOM     14  H   LIG    1       29.392 -17.813   7.273  0.00  0.00    +0.102 HD
ENDBRANCH   8  13
ENDBRANCH   1   8
TORSDOF 7
ENDMDL
MODEL 3
REMARK VINA RESULT:      -4.5      1.885      2.232
REMARK  Name = *****
REMARK                            x       y       z     vdW  Elec       q    Type
REMARK                         _______ _______ _______ _____ _____    ______ ____
ROOT
ATOM      1  C   LIG    1       31.544 -18.709   8.597  0.00  0.00    +0.175 C 
ENDROOT
BRANCH   1   3
ATOM      2  O   LIG    1       32.282 -20.915   9.375  0.00  0.00    -0.250 OA
ATOM      3  C   LIG    1       31.386 -20.164   9.005  0.00  0.00    +0.319 C 
BRANCH   3   4
ATOM      4  O   LIG    1       30.114 -20.597   8.972  0.00  0.00    -0.480 OA
ATOM      5  H   LIG    1       30.066 -21.193   8.195  0.00  0.00    +0.295 HD
ENDBRANCH   3   4
ENDBRANCH   1   3
BRANCH   1   6
ATOM      6  S   LIG    1       29.993 -18.138   7.792  0.00  0.00    -0.162 S 
ATOM      7  H   LIG    1       30.082 -18.927   6.708  0.00  0.00    +0.102 HD
ENDBRANCH   1   6
BRANCH   1   8
ATOM      8  C   LIG    1       31.960 -17.818   9.780  0.00  0.00    +0.175 C 
BRANCH   8   9
ATOM      9  C   LIG    1       30.813 -17.733  10.784  0.00  0.00    +0.319 C 
ATOM     10  O   LIG    1       30.495 -18.654  11.522  0.00  0.00    -0.250 OA
BRANCH   9  11
ATOM     11  O   LIG    1       30.207 -16.526  10.859  0.00  0.00    -0.480 OA
ATOM     12  H   LIG    1       30.232 -16.156  11.769  0.00  0.00    +0.295 HD
ENDBRANCH   9  11
ENDBRANCH   8   9
BRANCH   8  13
ATOM     13  S   LIG    1       32.573 -16.124   9.349  0.00  0.00    -0.162 S 
ATOM     14  H   LIG    1       33.878 -16.462   9.272  0.00  0.00    +0.102 HD
ENDBRANCH   8  13
ENDBRANCH   1   8
TORSDOF 7
ENDMDL
MODEL 4
REMARK VINA RESULT:      -4.4      5.792      7.472
REMARK  Name = *****
REMARK                            x       y       z     vdW  Elec       q    Type
REMARK                         _______ _______ _______ _____ _____    ______ ____
ROOT
ATOM      1  C   LIG    1       26.098 -20.412   7.018  0.00  0.00    +0.175 C 
ENDROOT
BRANCH   1   3
ATOM      2  O   LIG    1       25.812 -20.791   9.425  0.00  0.00    -0.250 OA
ATOM      3  C   LIG    1       26.509 -20.837   8.418  0.00  0.00    +0.319 C 
BRANCH   3   4
ATOM      4  O   LIG    1       27.755 -21.339   8.483  0.00  0.00    -0.480 OA
ATOM      5  H   LIG    1       27.738 -21.972   9.232  0.00  0.00    +0.295 HD
ENDBRANCH   3   4
ENDBRANCH   1   3
BRANCH   1   6
ATOM      6  S   LIG    1       27.603 -20.217   5.982  0.00  0.00    -0.162 S 
ATOM      7  H   LIG    1       27.928 -18.986   6.409  0.00  0.00    +0.102 HD
ENDBRANCH   1   6
BRANCH   1   8
ATOM      8  C   LIG    1       25.072 -21.377   6.398  0.00  0.00    +0.175 C 
BRANCH   8   9
ATOM      9  C   LIG    1       23.662 -20.950   6.799  0.00  0.00    +0.319 C 
ATOM     10  O   LIG    1       22.969 -20.201   6.125  0.00  0.00    -0.250 OA
BRANCH   9  11
ATOM     11  O   LIG    1       23.190 -21.523   7.929  0.00  0.00    -0.480 OA
ATOM     12  H   LIG    1       22.640 -20.902   8.456  0.00  0.00    +0.295 HD
ENDBRANCH   9  11
ENDBRANCH   8   9
BRANCH   8  13
ATOM     13  S   LIG    1       25.330 -23.177   6.750  0.00  0.00    -0.162 S 
ATOM     14  H   LIG    1       24.240 -23.609   6.079  0.00  0.00    +0.102 HD
ENDBRANCH   8  13
ENDBRANCH   1   8
TORSDOF 7
ENDMDL
MODEL 5
REMARK VINA RESULT:      -4.3      6.028      7.848
REMARK  Name = *****
REMARK                            x       y       z     vdW  Elec       q    Type
REMARK                         _______ _______ _______ _____ _____    ______ ____
ROOT
ATOM      1  C   LIG    1       26.139 -21.450   6.953  0.00  0.00    +0.175 C 
ENDROOT
BRANCH   1   3
ATOM      2  O   LIG    1       27.583 -20.083   8.389  0.00  0.00    -0.250 OA
ATOM      3  C   LIG    1       26.606 -20.811   8.250  0.00  0.00    +0.319 C 
BRANCH   3   4
ATOM      4  O   LIG    1       25.809 -21.075   9.298  0.00  0.00    -0.480 OA
ATOM      5  H   LIG    1       25.593 -20.201   9.685  0.00  0.00    +0.295 HD
ENDBRANCH   3   4
ENDBRANCH   1   3
BRANCH   1   6
ATOM      6  S   LIG    1       25.848 -23.242   7.237  0.00  0.00    -0.162 S 
ATOM      7  H   LIG    1       26.125 -23.238   8.551  0.00  0.00    +0.102 HD
ENDBRANCH   1   6
BRANCH   1   8
ATOM      8  C   LIG    1       24.910 -20.735   6.365  0.00  0.00    +0.175 C 
BRANCH   8   9
ATOM      9  C   LIG    1       23.642 -21.482   6.772  0.00  0.00    +0.319 C 
ATOM     10  O   LIG    1       23.179 -21.454   7.903  0.00  0.00    -0.250 OA
BRANCH   9  11
ATOM     11  O   LIG    1       23.009 -22.127   5.766  0.00  0.00    -0.480 OA
ATOM     12  H   LIG    1       23.067 -21.634   4.917  0.00  0.00    +0.295 HD
ENDBRANCH   9  11
ENDBRANCH   8   9
BRANCH   8  13
ATOM     13  S   LIG    1       24.933 -20.445   4.536  0.00  0.00    -0.162 S 
ATOM     14  H   LIG    1       25.939 -21.307   4.270  0.00  0.00    +0.102 HD
ENDBRANCH   8  13
ENDBRANCH   1   8
TORSDOF 7
ENDMDL
MODEL 6
REMARK VINA RESULT:      -4.3      6.176      7.201
REMARK  Name = *****
REMARK                            x       y       z     vdW  Elec       q    Type
REMARK                         _______ _______ _______ _____ _____    ______ ____
ROOT
ATOM      1  C   LIG    1       24.692 -20.763   6.618  0.00  0.00    +0.175 C 
ENDROOT
BRANCH   1   3
ATOM      2  O   LIG    1       26.829 -20.120   5.600  0.00  0.00    -0.250 OA
ATOM      3  C   LIG    1       25.696 -20.576   5.493  0.00  0.00    +0.319 C 
BRANCH   3   4
ATOM      4  O   LIG    1       25.253 -21.007   4.299  0.00  0.00    -0.480 OA
ATOM      5  H   LIG    1       25.487 -20.296   3.666  0.00  0.00    +0.295 HD
ENDBRANCH   3   4
ENDBRANCH   1   3
BRANCH   1   6
ATOM      6  S   LIG    1       23.053 -21.179   5.898  0.00  0.00    -0.162 S 
ATOM      7  H   LIG    1       22.848 -22.296   6.614  0.00  0.00    +0.102 HD
ENDBRANCH   1   6
BRANCH   1   8
ATOM      8  C   LIG    1       25.166 -21.799   7.651  0.00  0.00    +0.175 C 
BRANCH   8   9
ATOM      9  C   LIG    1       26.198 -21.161   8.578  0.00  0.00    +0.319 C 
ATOM     10  O   LIG    1       25.901 -20.435   9.516  0.00  0.00    -0.250 OA
BRANCH   9  11
ATOM     11  O   LIG    1       27.480 -21.517   8.339  0.00  0.00    -0.480 OA
ATOM     12  H   LIG    1       27.611 -22.489   8.396  0.00  0.00    +0.295 HD
ENDBRANCH   9  11
ENDBRANCH   8   9
BRANCH   8  13
ATOM     13  S   LIG    1       25.808 -23.397   6.967  0.00  0.00    -0.162 S 
ATOM     14  H   LIG    1       26.368 -22.861   5.861  0.00  0.00    +0.102 HD
ENDBRANCH   8  13
ENDBRANCH   1   8
TORSDOF 7
ENDMDL
MODEL 7
REMARK VINA RESULT:      -4.2      6.109      7.633
REMARK  Name = *****
REMARK                            x       y       z     vdW  Elec       q    Type
REMARK                         _______ _______ _______ _____ _____    ______ ____
ROOT
ATOM      1  C   LIG    1       25.088 -23.042   7.260  0.00  0.00    +0.175 C 
ENDROOT
BRANCH   1   3
ATOM      2  O   LIG    1       23.218 -21.579   7.877  0.00  0.00    -0.250 OA
ATOM      3  C   LIG    1       23.706 -22.422   7.132  0.00  0.00    +0.319 C 
BRANCH   3   4
ATOM      4  O   LIG    1       23.021 -22.851   6.059  0.00  0.00    -0.480 OA
ATOM      5  H   LIG    1       22.186 -22.338   6.065  0.00  0.00    +0.295 HD
ENDBRANCH   3   4
ENDBRANCH   1   3
BRANCH   1   6
ATOM      6  S   LIG    1       25.176 -24.538   6.196  0.00  0.00    -0.162 S 
ATOM      7  H   LIG    1       23.858 -24.793   6.177  0.00  0.00    +0.102 HD
ENDBRANCH   1   6
BRANCH   1   8
ATOM      8  C   LIG    1       26.207 -22.030   6.956  0.00  0.00    +0.175 C 
BRANCH   8   9
ATOM      9  C   LIG    1       26.805 -21.521   8.265  0.00  0.00    +0.319 C 
ATOM     10  O   LIG    1       28.005 -21.371   8.443  0.00  0.00    -0.250 OA
BRANCH   9  11
ATOM     11  O   LIG    1       25.901 -21.168   9.207  0.00  0.00    -0.480 OA
ATOM     12  H   LIG    1       25.781 -21.869   9.885  0.00  0.00    +0.295 HD
ENDBRANCH   9  11
ENDBRANCH   8   9
BRANCH   8  13
ATOM     13  S   LIG    1       25.747 -20.612   5.857  0.00  0.00    -0.162 S 
ATOM     14  H   LIG    1       25.301 -21.369   4.831  0.00  0.00    +0.102 HD
ENDBRANCH   8  13
ENDBRANCH   1   8
TORSDOF 7
ENDMDL
MODEL 8
REMARK VINA RESULT:      -4.2      2.468      3.238
REMARK  Name = *****
REMARK                            x       y       z     vdW  Elec       q    Type
REMARK                         _______ _______ _______ _____ _____    ______ ____
ROOT
ATOM      1  C   LIG    1       29.943 -20.062   8.706  0.00  0.00    +0.175 C 
ENDROOT
BRANCH   1   3
ATOM      2  O   LIG    1       30.814 -22.088   9.779  0.00  0.00    -0.250 OA
ATOM      3  C   LIG    1       30.999 -20.967   9.317  0.00  0.00    +0.319 C 
BRANCH   3   4
ATOM      4  O   LIG    1       32.238 -20.449   9.283  0.00  0.00    -0.480 OA
ATOM      5  H   LIG    1       32.110 -19.479   9.213  0.00  0.00    +0.295 HD
ENDBRANCH   3   4
ENDBRANCH   1   3
BRANCH   1   6
ATOM      6  S   LIG    1       30.278 -18.325   9.205  0.00  0.00    -0.162 S 
ATOM      7  H   LIG    1       31.286 -18.107   8.345  0.00  0.00    +0.102 HD
ENDBRANCH   1   6
BRANCH   1   8
ATOM      8  C   LIG    1       29.848 -20.232   7.179  0.00  0.00    +0.175 C 
BRANCH   8   9
ATOM      9  C   LIG    1       30.734 -19.195   6.494  0.00  0.00    +0.319 C 
ATOM     10  O   LIG    1       31.952 -19.170   6.607  0.00  0.00    -0.250 OA
BRANCH   9  11
ATOM     11  O   LIG    1       30.084 -18.336   5.677  0.00  0.00    -0.480 OA
ATOM     12  H   LIG    1       29.938 -17.462   6.101  0.00  0.00    +0.295 HD
ENDBRANCH   9  11
ENDBRANCH   8   9
BRANCH   8  13
ATOM     13  S   LIG    1       28.141 -20.204   6.461  0.00  0.00    -0.162 S 
ATOM     14  H   LIG    1       28.399 -21.066   5.453  0.00  0.00    +0.102 HD
ENDBRANCH   8  13
ENDBRANCH   1   8
TORSDOF 7
ENDMDL
MODEL 9
REMARK VINA RESULT:      -4.2      2.561      3.224
REMARK  Name = *****
REMARK                            x       y       z     vdW  Elec       q    Type
REMARK                         _______ _______ _______ _____ _____    ______ ____
ROOT
ATOM      1  C   LIG    1       29.119 -19.237   7.533  0.00  0.00    +0.175 C 
ENDROOT
BRANCH   1   3
ATOM      2  O   LIG    1       28.122 -19.631   5.327  0.00  0.00    -0.250 OA
ATOM      3  C   LIG    1       28.945 -19.061   6.034  0.00  0.00    +0.319 C 
BRANCH   3   4
ATOM      4  O   LIG    1       29.777 -18.151   5.499  0.00  0.00    -0.480 OA
ATOM      5  H   LIG    1       29.572 -17.311   5.961  0.00  0.00    +0.295 HD
ENDBRANCH   3   4
ENDBRANCH   1   3
BRANCH   1   6
ATOM      6  S   LIG    1       29.207 -21.032   7.920  0.00  0.00    -0.162 S 
ATOM      7  H   LIG    1       30.495 -21.202   7.579  0.00  0.00    +0.102 HD
ENDBRANCH   1   6
BRANCH   1   8
ATOM      8  C   LIG    1       30.329 -18.454   8.072  0.00  0.00    +0.175 C 
BRANCH   8   9
ATOM      9  C   LIG    1       31.554 -19.364   8.100  0.00  0.00    +0.319 C 
ATOM     10  O   LIG    1       32.084 -19.748   9.133  0.00  0.00    -0.250 OA
BRANCH   9  11
ATOM     11  O   LIG    1       31.981 -19.787   6.889  0.00  0.00    -0.480 OA
ATOM     12  H   LIG    1       32.879 -20.182   6.930  0.00  0.00    +0.295 HD
ENDBRANCH   9  11
ENDBRANCH   8   9
BRANCH   8  13
ATOM     13  S   LIG    1       30.098 -17.625   9.711  0.00  0.00    -0.162 S 
ATOM     14  H   LIG    1       28.777 -17.887   9.817  0.00  0.00    +0.102 HD
ENDBRANCH   8  13
ENDBRANCH   1   8
TORSDOF 7
ENDMDL
