MODEL 1
REMARK VINA RESULT:      -5.2      0.000      0.000
REMARK  Name = *****
REMARK                            x       y       z     vdW  Elec       q    Type
REMARK                         _______ _______ _______ _____ _____    ______ ____
ROOT
ATOM      1  C   LIG    1       28.059 -20.171   7.645  0.00  0.00    +0.002 C 
ENDROOT
BRANCH   1   2
ATOM      2  C   LIG    1       26.799 -20.715   6.960  0.00  0.00    +0.015 C 
BRANCH   2   3
ATOM      3  C   LIG    1       25.572 -20.627   7.869  0.00  0.00    +0.077 C 
BRANCH   3   4
ATOM      4  N   LIG    1       25.987 -20.577   9.267  0.00  0.00    -0.330 NA
ATOM      5  H   LIG    1       26.046 -19.605   9.569  0.00  0.00    +0.118 HD
ATOM      6  H   LIG    1       25.269 -21.008   9.849  0.00  0.00    +0.118 HD
ENDBRANCH   3   4
ENDBRANCH   2   3
ENDBRANCH   1   2
BRANCH   1   7
ATOM      7  C   LIG    1       29.188 -21.210   7.618  0.00  0.00    +0.011 C 
BRANCH   7   8
ATOM      8  C   LIG    1       30.458 -20.788   8.358  0.00  0.00    +0.120 C 
BRANCH   8   9
ATOM      9  C   LIG    1       31.121 -21.887   9.158  0.00  0.00    +0.305 C 
ATOM     10  O   LIG    1       30.741 -22.315  10.238  0.00  0.00    -0.251 OA
BRANCH   9  11
ATOM     11  O   LIG    1       32.220 -22.381   8.540  0.00  0.00    -0.481 OA
ATOM     12  H   LIG    1       33.032 -22.332   9.078  0.00  0.00    +0.295 HD
ENDBRANCH   9  11
ENDBRANCH   8   9
ENDBRANCH   7   8
ENDBRANCH   1   7
TORSDOF 7
ENDMDL
MODEL 2
REMARK VINA RESULT:      -5.1      2.902      3.627
REMARK  Name = *****
REMARK                            x       y       z     vdW  Elec       q    Type
REMARK                         _______ _______ _______ _____ _____    ______ ____
ROOT
ATOM      1  C   LIG    1       31.541 -18.670   8.565  0.00  0.00    +0.002 C 
ENDROOT
BRANCH   1   2
ATOM      2  C   LIG    1       30.338 -17.787   8.920  0.00  0.00    +0.015 C 
BRANCH   2   3
ATOM      3  C   LIG    1       30.410 -17.274  10.360  0.00  0.00    +0.077 C 
BRANCH   3   4
ATOM      4  N   LIG    1       30.736 -18.372  11.265  0.00  0.00    -0.330 NA
ATOM      5  H   LIG    1       31.607 -18.161  11.753  0.00  0.00    +0.118 HD
ATOM      6  H   LIG    1       30.019 -18.438  11.987  0.00  0.00    +0.118 HD
ENDBRANCH   3   4
ENDBRANCH   2   3
ENDBRANCH   1   2
BRANCH   1   7
ATOM      7  C   LIG    1       31.133 -19.785   7.594  0.00  0.00    +0.011 C 
BRANCH   7   8
ATOM      8  C   LIG    1       30.309 -20.908   8.226  0.00  0.00    +0.120 C 
BRANCH   8   9
ATOM      9  C   LIG    1       31.082 -21.816   9.157  0.00  0.00    +0.305 C 
ATOM     10  O   LIG    1       30.791 -22.067  10.317  0.00  0.00    -0.251 OA
BRANCH   9  11
ATOM     11  O   LIG    1       32.172 -22.353   8.561  0.00  0.00    -0.481 OA
ATOM     12  H   LIG    1       32.887 -21.712   8.391  0.00  0.00    +0.295 HD
ENDBRANCH   9  11
ENDBRANCH   8   9
ENDBRANCH   7   8
ENDBRANCH   1   7
TORSDOF 7
ENDMDL
MODEL 3
REMARK VINA RESULT:      -5.0      2.339      2.526
REMARK  Name = *****
REMARK                            x       y       z     vdW  Elec       q    Type
REMARK                         _______ _______ _______ _____ _____    ______ ____
ROOT
ATOM      1  C   LIG    1       28.940 -20.660   7.110  0.00  0.00    +0.002 C 
ENDROOT
BRANCH   1   2
ATOM      2  C   LIG    1       27.448 -20.351   7.282  0.00  0.00    +0.015 C 
BRANCH   2   3
ATOM      3  C   LIG    1       26.759 -21.351   8.212  0.00  0.00    +0.077 C 
BRANCH   3   4
ATOM      4  N   LIG    1       25.958 -20.641   9.205  0.00  0.00    -0.330 NA
ATOM      5  H   LIG    1       25.058 -20.390   8.797  0.00  0.00    +0.118 HD
ATOM      6  H   LIG    1       25.749 -21.268   9.982  0.00  0.00    +0.118 HD
ENDBRANCH   3   4
ENDBRANCH   2   3
ENDBRANCH   1   2
BRANCH   1   7
ATOM      7  C   LIG    1       29.748 -19.371   6.915  0.00  0.00    +0.011 C 
BRANCH   7   8
ATOM      8  C   LIG    1       30.094 -18.636   8.211  0.00  0.00    +0.120 C 
BRANCH   8   9
ATOM      9  C   LIG    1       31.559 -18.673   8.589  0.00  0.00    +0.305 C 
ATOM     10  O   LIG    1       32.112 -19.560   9.224  0.00  0.00    -0.251 OA
BRANCH   9  11
ATOM     11  O   LIG    1       32.233 -17.591   8.135  0.00  0.00    -0.481 OA
ATOM     12  H   LIG    1       32.129 -16.798   8.694  0.00  0.00    +0.295 HD
ENDBRANCH   9  11
ENDBRANCH   8   9
ENDBRANCH   7   8
ENDBRANCH   1   7
TORSDOF 7
ENDMDL
MODEL 4
REMARK VINA RESULT:      -5.0      2.314      2.562
REMARK  Name = *****
REMARK                            x       y       z     vdW  Elec       q    Type
REMARK                         _______ _______ _______ _____ _____    ______ ____
ROOT
ATOM      1  C   LIG    1       28.693 -20.665   6.844  0.00  0.00    +0.002 C 
ENDROOT
BRANCH   1   2
ATOM      2  C   LIG    1       27.626 -21.375   7.688  0.00  0.00    +0.015 C 
BRANCH   2   3
ATOM      3  C   LIG    1       26.391 -20.499   7.902  0.00  0.00    +0.077 C 
BRANCH   3   4
ATOM      4  N   LIG    1       25.961 -20.573   9.295  0.00  0.00    -0.330 NA
ATOM      5  H   LIG    1       25.133 -19.991   9.425  0.00  0.00    +0.118 HD
ATOM      6  H   LIG    1       25.670 -21.527   9.509  0.00  0.00    +0.118 HD
ENDBRANCH   3   4
ENDBRANCH   2   3
ENDBRANCH   1   2
BRANCH   1   7
ATOM      7  C   LIG    1       29.367 -19.543   7.644  0.00  0.00    +0.011 C 
BRANCH   7   8
ATOM      8  C   LIG    1       30.787 -19.203   7.190  0.00  0.00    +0.120 C 
BRANCH   8   9
ATOM      9  C   LIG    1       31.679 -18.633   8.271  0.00  0.00    +0.305 C 
ATOM     10  O   LIG    1       32.030 -17.466   8.369  0.00  0.00    -0.251 OA
BRANCH   9  11
ATOM     11  O   LIG    1       32.067 -19.574   9.163  0.00  0.00    -0.481 OA
ATOM     12  H   LIG    1       32.084 -19.259  10.086  0.00  0.00    +0.295 HD
ENDBRANCH   9  11
ENDBRANCH   8   9
ENDBRANCH   7   8
ENDBRANCH   1   7
TORSDOF 7
ENDMDL
MODEL 5
REMARK VINA RESULT:      -5.0      2.821      3.056
REMARK  Name = *****
REMARK                            x       y       z     vdW  Elec       q    Type
REMARK                         _______ _______ _______ _____ _____    ______ ____
ROOT
ATOM      1  C   LIG    1       29.084 -20.247   6.611  0.00  0.00    +0.002 C 
ENDROOT
BRANCH   1   2
ATOM      2  C   LIG    1       27.694 -20.227   7.261  0.00  0.00    +0.015 C 
BRANCH   2   3
ATOM      3  C   LIG    1       26.588 -20.547   6.254  0.00  0.00    +0.077 C 
BRANCH   3   4
ATOM      4  N   LIG    1       26.979 -20.097   4.922  0.00  0.00    -0.330 NA
ATOM      5  H   LIG    1       27.755 -20.667   4.585  0.00  0.00    +0.118 HD
ATOM      6  H   LIG    1       26.209 -20.259   4.272  0.00  0.00    +0.118 HD
ENDBRANCH   3   4
ENDBRANCH   2   3
ENDBRANCH   1   2
BRANCH   1   7
ATOM      7  C   LIG    1       29.790 -18.897   6.787  0.00  0.00    +0.011 C 
BRANCH   7   8
ATOM      8  C   LIG    1       30.111 -18.530   8.237  0.00  0.00    +0.120 C 
BRANCH   8   9
ATOM      9  C   LIG    1       31.575 -18.618   8.604  0.00  0.00    +0.305 C 
ATOM     10  O   LIG    1       32.109 -19.538   9.206  0.00  0.00    -0.251 OA
BRANCH   9  11
ATOM     11  O   LIG    1       32.275 -17.539   8.180  0.00  0.00    -0.481 OA
ATOM     12  H   LIG    1       32.471 -16.893   8.885  0.00  0.00    +0.295 HD
ENDBRANCH   9  11
ENDBRANCH   8   9
ENDBRANCH   7   8
ENDBRANCH   1   7
TORSDOF 7
ENDMDL
MODEL 6
REMARK VINA RESULT:      -5.0      4.140      5.214
REMARK  Name = *****
REMARK                            x       y       z     vdW  Elec       q    Type
REMARK                         _______ _______ _______ _____ _____    ______ ____
ROOT
ATOM      1  C   LIG    1       23.152 -20.583   5.742  0.00  0.00    +0.002 C 
ENDROOT
BRANCH   1   2
ATOM      2  C   LIG    1       24.252 -21.182   4.857  0.00  0.00    +0.015 C 
BRANCH   2   3
ATOM      3  C   LIG    1       25.039 -20.102   4.113  0.00  0.00    +0.077 C 
BRANCH   3   4
ATOM      4  N   LIG    1       26.445 -20.152   4.501  0.00  0.00    -0.330 NA
ATOM      5  H   LIG    1       26.760 -21.122   4.509  0.00  0.00    +0.118 HD
ATOM      6  H   LIG    1       27.008 -19.681   3.792  0.00  0.00    +0.118 HD
ENDBRANCH   3   4
ENDBRANCH   2   3
ENDBRANCH   1   2
BRANCH   1   7
ATOM      7  C   LIG    1       23.508 -20.722   7.228  0.00  0.00    +0.011 C 
BRANCH   7   8
ATOM      8  C   LIG    1       24.785 -21.519   7.503  0.00  0.00    +0.120 C 
BRANCH   8   9
ATOM      9  C   LIG    1       25.924 -20.710   8.082  0.00  0.00    +0.305 C 
ATOM     10  O   LIG    1       26.831 -20.193   7.444  0.00  0.00    -0.251 OA
BRANCH   9  11
ATOM     11  O   LIG    1       25.843 -20.599   9.428  0.00  0.00    -0.481 OA
ATOM     12  H   LIG    1       25.042 -20.137   9.739  0.00  0.00    +0.295 HD
ENDBRANCH   9  11
ENDBRANCH   8   9
ENDBRANCH   7   8
ENDBRANCH   1   7
TORSDOF 7
ENDMDL
MODEL 7
REMARK VINA RESULT:      -4.8      6.271      6.823
REMARK  Name = *****
REMARK                            x       y       z     vdW  Elec       q    Type
REMARK                         _______ _______ _______ _____ _____    ______ ____
ROOT
ATOM      1  C   LIG    1       23.236 -20.377   5.924  0.00  0.00    +0.002 C 
ENDROOT
BRANCH   1   2
ATOM      2  C   LIG    1       23.715 -20.923   4.574  0.00  0.00    +0.015 C 
BRANCH   2   3
ATOM      3  C   LIG    1       24.742 -20.001   3.915  0.00  0.00    +0.077 C 
BRANCH   3   4
ATOM      4  N   LIG    1       26.072 -20.267   4.454  0.00  0.00    -0.330 NA
ATOM      5  H   LIG    1       26.162 -19.825   5.369  0.00  0.00    +0.118 HD
ATOM      6  H   LIG    1       26.176 -21.269   4.615  0.00  0.00    +0.118 HD
ENDBRANCH   3   4
ENDBRANCH   2   3
ENDBRANCH   1   2
BRANCH   1   7
ATOM      7  C   LIG    1       23.376 -21.437   7.024  0.00  0.00    +0.011 C 
BRANCH   7   8
ATOM      8  C   LIG    1       24.090 -22.717   6.586  0.00  0.00    +0.120 C 
BRANCH   8   9
ATOM      9  C   LIG    1       23.233 -23.964   6.616  0.00  0.00    +0.305 C 
ATOM     10  O   LIG    1       23.644 -25.115   6.610  0.00  0.00    -0.251 OA
BRANCH   9  11
ATOM     11  O   LIG    1       21.911 -23.676   6.659  0.00  0.00    -0.481 OA
ATOM     12  H   LIG    1       21.533 -23.688   7.558  0.00  0.00    +0.295 HD
ENDBRANCH   9  11
ENDBRANCH   8   9
ENDBRANCH   7   8
ENDBRANCH   1   7
TORSDOF 7
ENDMDL
MODEL 8
REMARK VINA RESULT:      -4.8      6.215      6.951
REMARK  Name = *****
REMARK                            x       y       z     vdW  Elec       q    Type
REMARK                         _______ _______ _______ _____ _____    ______ ____
ROOT
ATOM      1  C   LIG    1       23.933 -22.196   7.314  0.00  0.00    +0.002 C 
ENDROOT
BRANCH   1   2
ATOM      2  C   LIG    1       22.980 -23.306   6.857  0.00  0.00    +0.015 C 
BRANCH   2   3
ATOM      3  C   LIG    1       23.733 -24.564   6.421  0.00  0.00    +0.077 C 
BRANCH   3   4
ATOM      4  N   LIG    1       24.601 -24.259   5.287  0.00  0.00    -0.330 NA
ATOM      5  H   LIG    1       25.553 -24.559   5.499  0.00  0.00    +0.118 HD
ATOM      6  H   LIG    1       24.307 -24.808   4.480  0.00  0.00    +0.118 HD
ENDBRANCH   3   4
ENDBRANCH   2   3
ENDBRANCH   1   2
BRANCH   1   7
ATOM      7  C   LIG    1       23.342 -20.811   7.021  0.00  0.00    +0.011 C 
BRANCH   7   8
ATOM      8  C   LIG    1       22.889 -20.607   5.574  0.00  0.00    +0.120 C 
BRANCH   8   9
ATOM      9  C   LIG    1       23.994 -20.699   4.545  0.00  0.00    +0.305 C 
ATOM     10  O   LIG    1       24.926 -19.916   4.424  0.00  0.00    -0.251 OA
BRANCH   9  11
ATOM     11  O   LIG    1       23.856 -21.776   3.738  0.00  0.00    -0.481 OA
ATOM     12  H   LIG    1       22.979 -22.201   3.792  0.00  0.00    +0.295 HD
ENDBRANCH   9  11
ENDBRANCH   8   9
ENDBRANCH   7   8
ENDBRANCH   1   7
TORSDOF 7
ENDMDL
MODEL 9
REMARK VINA RESULT:      -4.8      3.689      5.087
REMARK  Name = *****
REMARK                            x       y       z     vdW  Elec       q    Type
REMARK                         _______ _______ _______ _____ _____    ______ ____
ROOT
ATOM      1  C   LIG    1       29.121 -19.538   6.942  0.00  0.00    +0.002 C 
ENDROOT
BRANCH   1   2
ATOM      2  C   LIG    1       30.020 -18.605   7.763  0.00  0.00    +0.015 C 
BRANCH   2   3
ATOM      3  C   LIG    1       31.482 -19.052   7.738  0.00  0.00    +0.077 C 
BRANCH   3   4
ATOM      4  N   LIG    1       31.877 -19.545   9.055  0.00  0.00    -0.330 NA
ATOM      5  H   LIG    1       32.761 -19.116   9.326  0.00  0.00    +0.118 HD
ATOM      6  H   LIG    1       31.193 -19.241   9.748  0.00  0.00    +0.118 HD
ENDBRANCH   3   4
ENDBRANCH   2   3
ENDBRANCH   1   2
BRANCH   1   7
ATOM      7  C   LIG    1       28.089 -20.233   7.839  0.00  0.00    +0.011 C 
BRANCH   7   8
ATOM      8  C   LIG    1       26.736 -20.490   7.171  0.00  0.00    +0.120 C 
BRANCH   8   9
ATOM      9  C   LIG    1       25.576 -20.643   8.129  0.00  0.00    +0.305 C 
ATOM     10  O   LIG    1       24.399 -20.759   7.816  0.00  0.00    -0.251 OA
BRANCH   9  11
ATOM     11  O   LIG    1       25.975 -20.647   9.422  0.00  0.00    -0.481 OA
ATOM     12  H   LIG    1       25.961 -21.529   9.838  0.00  0.00    +0.295 HD
ENDBRANCH   9  11
ENDBRANCH   8   9
ENDBRANCH   7   8
ENDBRANCH   1   7
TORSDOF 7
ENDMDL
