MODEL 1
REMARK VINA RESULT:      -5.4      0.000      0.000
REMARK  Name = *****
REMARK                            x       y       z     vdW  Elec       q    Type
REMARK                         _______ _______ _______ _____ _____    ______ ____
ROOT
ATOM      1  N   LIG    1       27.253 -20.025   4.836  0.00  0.00    -0.341 N 
ATOM      2  H   LIG    1       27.143 -19.573   3.931  0.00  0.00    +0.146 HD
ENDROOT
BRANCH   1   3
ATOM      3  C   LIG    1       26.003 -20.366   5.410  0.00  0.00    +0.038 A 
ATOM      4  C   LIG    1       24.761 -19.904   4.876  0.00  0.00    +0.021 A 
ATOM      5  C   LIG    1       23.577 -20.269   5.568  0.00  0.00    +0.074 A 
ATOM      6  C   LIG    1       22.344 -19.791   5.152  0.00  0.00    +0.048 A 
ATOM      7  C   LIG    1       22.229 -18.959   4.048  0.00  0.00    +0.043 A 
ATOM      8  C   LIG    1       23.355 -18.617   3.313  0.00  0.00    +0.021 A 
ATOM      9 CL   LIG    1       20.685 -18.351   3.594  0.00  0.00    -0.084 Cl
ATOM     10  N   LIG    1       23.570 -21.079   6.637  0.00  0.00    -0.255 NA
ATOM     11  C   LIG    1       24.740 -21.572   7.056  0.00  0.00    +0.113 A 
ATOM     12  C   LIG    1       24.608 -19.088   3.718  0.00  0.00    +0.013 A 
ATOM     13  C   LIG    1       25.956 -21.261   6.487  0.00  0.00    +0.043 A 
ENDBRANCH   1   3
BRANCH   1  14
ATOM     14  C   LIG    1       28.235 -19.293   5.670  0.00  0.00    +0.067 C 
ATOM     15  C   LIG    1       29.150 -20.305   6.365  0.00  0.00    +0.027 C 
BRANCH  14  16
ATOM     16  C   LIG    1       29.017 -18.297   4.787  0.00  0.00    +0.023 C 
BRANCH  16  17
ATOM     17  C   LIG    1       28.438 -16.877   4.800  0.00  0.00    +0.017 C 
BRANCH  17  18
ATOM     18  C   LIG    1       27.246 -16.709   3.834  0.00  0.00    +0.084 C 
BRANCH  18  19
ATOM     19  N   LIG    1       26.942 -15.329   3.380  0.00  0.00    -0.300 NA
BRANCH  19  21
ATOM     20  C   LIG    1       24.929 -13.856   3.971  0.00  0.00    +0.020 C 
ATOM     21  C   LIG    1       25.477 -15.118   3.301  0.00  0.00    +0.081 C 
ENDBRANCH  19  21
BRANCH  19  22
ATOM     22  C   LIG    1       27.571 -14.342   4.301  0.00  0.00    +0.112 C 
BRANCH  22  23
ATOM     23  C   LIG    1       28.663 -13.397   3.752  0.00  0.00    +0.171 C 
BRANCH  23  24
ATOM     24  O   LIG    1       28.984 -12.315   4.620  0.00  0.00    -0.394 OA
ATOM     25  H   LIG    1       29.614 -11.738   4.158  0.00  0.00    +0.209 HD
ENDBRANCH  23  24
ENDBRANCH  22  23
ENDBRANCH  19  22
ENDBRANCH  18  19
ENDBRANCH  17  18
ENDBRANCH  16  17
ENDBRANCH  14  16
ENDBRANCH   1  14
TORSDOF 10
ENDMDL
MODEL 2
REMARK VINA RESULT:      -4.1      2.803      4.560
REMARK  Name = *****
REMARK                            x       y       z     vdW  Elec       q    Type
REMARK                         _______ _______ _______ _____ _____    ______ ____
ROOT
ATOM      1  N   LIG    1       23.527 -19.316   3.560  0.00  0.00    -0.341 N 
ATOM      2  H   LIG    1       23.093 -19.903   2.851  0.00  0.00    +0.146 HD
ENDROOT
BRANCH   1   3
ATOM      3  C   LIG    1       23.834 -20.047   4.735  0.00  0.00    +0.038 A 
ATOM      4  C   LIG    1       25.156 -20.117   5.272  0.00  0.00    +0.021 A 
ATOM      5  C   LIG    1       25.350 -20.923   6.423  0.00  0.00    +0.074 A 
ATOM      6  C   LIG    1       26.620 -21.099   6.952  0.00  0.00    +0.048 A 
ATOM      7  C   LIG    1       27.728 -20.488   6.384  0.00  0.00    +0.043 A 
ATOM      8  C   LIG    1       27.577 -19.653   5.287  0.00  0.00    +0.021 A 
ATOM      9 CL   LIG    1       29.291 -20.772   7.043  0.00  0.00    -0.084 Cl
ATOM     10  N   LIG    1       24.350 -21.547   7.062  0.00  0.00    -0.255 NA
ATOM     11  C   LIG    1       23.109 -21.386   6.589  0.00  0.00    +0.113 A 
ATOM     12  C   LIG    1       26.304 -19.463   4.738  0.00  0.00    +0.013 A 
ATOM     13  C   LIG    1       22.803 -20.657   5.460  0.00  0.00    +0.043 A 
ENDBRANCH   1   3
BRANCH   1  14
ATOM     14  C   LIG    1       22.792 -18.036   3.698  0.00  0.00    +0.067 C 
ATOM     15  C   LIG    1       21.670 -18.216   4.724  0.00  0.00    +0.027 C 
BRANCH  14  16
ATOM     16  C   LIG    1       23.780 -16.917   4.092  0.00  0.00    +0.023 C 
BRANCH  16  17
ATOM     17  C   LIG    1       23.126 -15.536   4.222  0.00  0.00    +0.017 C 
BRANCH  17  18
ATOM     18  C   LIG    1       23.952 -14.420   3.548  0.00  0.00    +0.084 C 
BRANCH  18  19
ATOM     19  N   LIG    1       25.162 -13.954   4.271  0.00  0.00    -0.300 NA
BRANCH  19  21
ATOM     20  C   LIG    1       27.604 -14.306   3.578  0.00  0.00    +0.020 C 
ATOM     21  C   LIG    1       26.251 -13.642   3.315  0.00  0.00    +0.081 C 
ENDBRANCH  19  21
BRANCH  19  22
ATOM     22  C   LIG    1       24.829 -12.764   5.102  0.00  0.00    +0.112 C 
BRANCH  22  23
ATOM     23  C   LIG    1       23.775 -11.760   4.584  0.00  0.00    +0.171 C 
BRANCH  23  24
ATOM     24  O   LIG    1       23.895 -11.454   3.199  0.00  0.00    -0.394 OA
ATOM     25  H   LIG    1       23.003 -11.447   2.816  0.00  0.00    +0.209 HD
ENDBRANCH  23  24
ENDBRANCH  22  23
ENDBRANCH  19  22
ENDBRANCH  18  19
ENDBRANCH  17  18
ENDBRANCH  16  17
ENDBRANCH  14  16
ENDBRANCH   1  14
TORSDOF 10
ENDMDL
MODEL 3
REMARK VINA RESULT:      -3.7      1.402      1.884
REMARK  Name = *****
REMARK                            x       y       z     vdW  Elec       q    Type
REMARK                         _______ _______ _______ _____ _____    ______ ____
ROOT
ATOM      1  N   LIG    1       27.280 -19.032   4.236  0.00  0.00    -0.341 N 
ATOM      2  H   LIG    1       26.788 -18.921   3.352  0.00  0.00    +0.146 HD
ENDROOT
BRANCH   1   3
ATOM      3  C   LIG    1       26.577 -19.882   5.127  0.00  0.00    +0.038 A 
ATOM      4  C   LIG    1       25.202 -20.221   4.940  0.00  0.00    +0.021 A 
ATOM      5  C   LIG    1       24.592 -21.038   5.927  0.00  0.00    +0.074 A 
ATOM      6  C   LIG    1       23.241 -21.342   5.851  0.00  0.00    +0.048 A 
ATOM      7  C   LIG    1       22.454 -20.871   4.810  0.00  0.00    +0.043 A 
ATOM      8  C   LIG    1       23.020 -20.109   3.798  0.00  0.00    +0.021 A 
ATOM      9 CL   LIG    1       20.772 -21.232   4.781  0.00  0.00    -0.084 Cl
ATOM     10  N   LIG    1       25.260 -21.559   6.966  0.00  0.00    -0.255 NA
ATOM     11  C   LIG    1       26.568 -21.301   7.062  0.00  0.00    +0.113 A 
ATOM     12  C   LIG    1       24.381 -19.791   3.857  0.00  0.00    +0.013 A 
ATOM     13  C   LIG    1       27.260 -20.494   6.185  0.00  0.00    +0.043 A 
ENDBRANCH   1   3
BRANCH   1  14
ATOM     14  C   LIG    1       27.754 -17.721   4.739  0.00  0.00    +0.067 C 
ATOM     15  C   LIG    1       29.175 -17.883   5.284  0.00  0.00    +0.027 C 
BRANCH  14  16
ATOM     16  C   LIG    1       27.669 -16.676   3.606  0.00  0.00    +0.023 C 
BRANCH  16  17
ATOM     17  C   LIG    1       26.420 -15.790   3.677  0.00  0.00    +0.017 C 
BRANCH  17  18
ATOM     18  C   LIG    1       26.608 -14.434   2.965  0.00  0.00    +0.084 C 
BRANCH  18  19
ATOM     19  N   LIG    1       26.114 -13.230   3.679  0.00  0.00    -0.300 NA
BRANCH  19  21
ATOM     20  C   LIG    1       23.781 -12.168   3.682  0.00  0.00    +0.020 C 
ATOM     21  C   LIG    1       24.674 -13.370   4.000  0.00  0.00    +0.081 C 
ENDBRANCH  19  21
BRANCH  19  22
ATOM     22  C   LIG    1       26.914 -13.010   4.916  0.00  0.00    +0.112 C 
BRANCH  22  23
ATOM     23  C   LIG    1       28.455 -12.959   4.812  0.00  0.00    +0.171 C 
BRANCH  23  24
ATOM     24  O   LIG    1       29.038 -11.797   5.392  0.00  0.00    -0.394 OA
ATOM     25  H   LIG    1       28.449 -11.046   5.215  0.00  0.00    +0.209 HD
ENDBRANCH  23  24
ENDBRANCH  22  23
ENDBRANCH  19  22
ENDBRANCH  18  19
ENDBRANCH  17  18
ENDBRANCH  16  17
ENDBRANCH  14  16
ENDBRANCH   1  14
TORSDOF 10
ENDMDL
MODEL 4
REMARK VINA RESULT:      -3.1      1.429      2.042
REMARK  Name = *****
REMARK                            x       y       z     vdW  Elec       q    Type
REMARK                         _______ _______ _______ _____ _____    ______ ____
ROOT
ATOM      1  N   LIG    1       27.570 -19.614   4.764  0.00  0.00    -0.341 N 
ATOM      2  H   LIG    1       27.506 -19.642   3.749  0.00  0.00    +0.146 HD
ENDROOT
BRANCH   1   3
ATOM      3  C   LIG    1       26.412 -20.152   5.380  0.00  0.00    +0.038 A 
ATOM      4  C   LIG    1       25.092 -19.867   4.913  0.00  0.00    +0.021 A 
ATOM      5  C   LIG    1       24.009 -20.421   5.644  0.00  0.00    +0.074 A 
ATOM      6  C   LIG    1       22.700 -20.123   5.295  0.00  0.00    +0.048 A 
ATOM      7  C   LIG    1       22.412 -19.291   4.223  0.00  0.00    +0.043 A 
ATOM      8  C   LIG    1       23.440 -18.767   3.452  0.00  0.00    +0.021 A 
ATOM      9 CL   LIG    1       20.776 -18.909   3.854  0.00  0.00    -0.084 Cl
ATOM     10  N   LIG    1       24.171 -21.249   6.686  0.00  0.00    -0.255 NA
ATOM     11  C   LIG    1       25.419 -21.572   7.040  0.00  0.00    +0.113 A 
ATOM     12  C   LIG    1       24.766 -19.055   3.789  0.00  0.00    +0.013 A 
ATOM     13  C   LIG    1       26.548 -21.069   6.429  0.00  0.00    +0.043 A 
ENDBRANCH   1   3
BRANCH   1  14
ATOM     14  C   LIG    1       28.061 -18.292   5.220  0.00  0.00    +0.067 C 
ATOM     15  C   LIG    1       29.475 -18.455   5.785  0.00  0.00    +0.027 C 
BRANCH  14  16
ATOM     16  C   LIG    1       28.004 -17.291   4.047  0.00  0.00    +0.023 C 
BRANCH  16  17
ATOM     17  C   LIG    1       26.837 -16.300   4.138  0.00  0.00    +0.017 C 
BRANCH  17  18
ATOM     18  C   LIG    1       26.850 -15.257   3.001  0.00  0.00    +0.084 C 
BRANCH  18  19
ATOM     19  N   LIG    1       26.659 -13.838   3.394  0.00  0.00    -0.300 NA
BRANCH  19  21
ATOM     20  C   LIG    1       28.112 -11.745   3.110  0.00  0.00    +0.020 C 
ATOM     21  C   LIG    1       27.967 -13.181   3.621  0.00  0.00    +0.081 C 
ENDBRANCH  19  21
BRANCH  19  22
ATOM     22  C   LIG    1       25.881 -13.122   2.345  0.00  0.00    +0.112 C 
BRANCH  22  23
ATOM     23  C   LIG    1       24.547 -12.446   2.734  0.00  0.00    +0.171 C 
BRANCH  23  24
ATOM     24  O   LIG    1       24.109 -12.741   4.056  0.00  0.00    -0.394 OA
ATOM     25  H   LIG    1       23.187 -12.449   4.137  0.00  0.00    +0.209 HD
ENDBRANCH  23  24
ENDBRANCH  22  23
ENDBRANCH  19  22
ENDBRANCH  18  19
ENDBRANCH  17  18
ENDBRANCH  16  17
ENDBRANCH  14  16
ENDBRANCH   1  14
TORSDOF 10
ENDMDL
MODEL 5
REMARK VINA RESULT:      -3.1      3.253      6.838
REMARK  Name = *****
REMARK                            x       y       z     vdW  Elec       q    Type
REMARK                         _______ _______ _______ _____ _____    ______ ____
ROOT
ATOM      1  N   LIG    1       23.740 -16.761   3.427  0.00  0.00    -0.341 N 
ATOM      2  H   LIG    1       24.211 -16.890   2.534  0.00  0.00    +0.146 HD
ENDROOT
BRANCH   1   3
ATOM      3  C   LIG    1       24.018 -15.491   3.991  0.00  0.00    +0.038 A 
ATOM      4  C   LIG    1       25.292 -14.856   3.865  0.00  0.00    +0.021 A 
ATOM      5  C   LIG    1       25.466 -13.609   4.517  0.00  0.00    +0.074 A 
ATOM      6  C   LIG    1       26.700 -12.975   4.504  0.00  0.00    +0.048 A 
ATOM      7  C   LIG    1       27.788 -13.530   3.847  0.00  0.00    +0.043 A 
ATOM      8  C   LIG    1       27.649 -14.725   3.156  0.00  0.00    +0.021 A 
ATOM      9 CL   LIG    1       29.312 -12.733   3.896  0.00  0.00    -0.084 Cl
ATOM     10  N   LIG    1       24.480 -12.974   5.168  0.00  0.00    -0.255 NA
ATOM     11  C   LIG    1       23.273 -13.549   5.187  0.00  0.00    +0.113 A 
ATOM     12  C   LIG    1       26.413 -15.380   3.159  0.00  0.00    +0.013 A 
ATOM     13  C   LIG    1       22.993 -14.774   4.620  0.00  0.00    +0.043 A 
ENDBRANCH   1   3
BRANCH   1  14
ATOM     14  C   LIG    1       23.902 -17.962   4.281  0.00  0.00    +0.067 C 
ATOM     15  C   LIG    1       22.560 -18.693   4.369  0.00  0.00    +0.027 C 
BRANCH  14  16
ATOM     16  C   LIG    1       25.025 -18.852   3.707  0.00  0.00    +0.023 C 
BRANCH  16  17
ATOM     17  C   LIG    1       24.779 -20.353   3.896  0.00  0.00    +0.017 C 
BRANCH  17  18
ATOM     18  C   LIG    1       25.771 -21.001   4.885  0.00  0.00    +0.084 C 
BRANCH  18  19
ATOM     19  N   LIG    1       25.675 -20.574   6.304  0.00  0.00    -0.300 NA
BRANCH  19  21
ATOM     20  C   LIG    1       23.243 -20.862   7.058  0.00  0.00    +0.020 C 
ATOM     21  C   LIG    1       24.677 -21.395   7.028  0.00  0.00    +0.081 C 
ENDBRANCH  19  21
BRANCH  19  22
ATOM     22  C   LIG    1       27.012 -20.669   6.953  0.00  0.00    +0.112 C 
BRANCH  22  23
ATOM     23  C   LIG    1       28.267 -20.267   6.145  0.00  0.00    +0.171 C 
BRANCH  23  24
ATOM     24  O   LIG    1       29.475 -20.852   6.620  0.00  0.00    -0.394 OA
ATOM     25  H   LIG    1       29.833 -21.414   5.914  0.00  0.00    +0.209 HD
ENDBRANCH  23  24
ENDBRANCH  22  23
ENDBRANCH  19  22
ENDBRANCH  18  19
ENDBRANCH  17  18
ENDBRANCH  16  17
ENDBRANCH  14  16
ENDBRANCH   1  14
TORSDOF 10
ENDMDL
MODEL 6
REMARK VINA RESULT:      -3.0      3.347      6.967
REMARK  Name = *****
REMARK                            x       y       z     vdW  Elec       q    Type
REMARK                         _______ _______ _______ _____ _____    ______ ____
ROOT
ATOM      1  N   LIG    1       23.599 -17.383   4.055  0.00  0.00    -0.341 N 
ATOM      2  H   LIG    1       24.403 -17.942   4.333  0.00  0.00    +0.146 HD
ENDROOT
BRANCH   1   3
ATOM      3  C   LIG    1       23.822 -15.999   4.265  0.00  0.00    +0.038 A 
ATOM      4  C   LIG    1       25.078 -15.374   3.994  0.00  0.00    +0.021 A 
ATOM      5  C   LIG    1       25.195 -13.992   4.293  0.00  0.00    +0.074 A 
ATOM      6  C   LIG    1       26.408 -13.338   4.130  0.00  0.00    +0.048 A 
ATOM      7  C   LIG    1       27.530 -14.007   3.663  0.00  0.00    +0.043 A 
ATOM      8  C   LIG    1       27.446 -15.347   3.313  0.00  0.00    +0.021 A 
ATOM      9 CL   LIG    1       29.025 -13.169   3.521  0.00  0.00    -0.084 Cl
ATOM     10  N   LIG    1       24.173 -13.245   4.735  0.00  0.00    -0.255 NA
ATOM     11  C   LIG    1       22.985 -13.839   4.888  0.00  0.00    +0.113 A 
ATOM     12  C   LIG    1       26.232 -16.024   3.471  0.00  0.00    +0.013 A 
ATOM     13  C   LIG    1       22.759 -15.180   4.664  0.00  0.00    +0.043 A 
ENDBRANCH   1   3
BRANCH   1  14
ATOM     14  C   LIG    1       22.345 -17.981   4.571  0.00  0.00    +0.067 C 
ATOM     15  C   LIG    1       21.544 -18.547   3.396  0.00  0.00    +0.027 C 
BRANCH  14  16
ATOM     16  C   LIG    1       22.685 -19.055   5.627  0.00  0.00    +0.023 C 
BRANCH  16  17
ATOM     17  C   LIG    1       22.403 -20.488   5.161  0.00  0.00    +0.017 C 
BRANCH  17  18
ATOM     18  C   LIG    1       23.314 -21.529   5.848  0.00  0.00    +0.084 C 
BRANCH  18  19
ATOM     19  N   LIG    1       24.743 -21.534   5.447  0.00  0.00    -0.300 NA
BRANCH  19  21
ATOM     20  C   LIG    1       25.872 -19.699   4.059  0.00  0.00    +0.020 C 
ATOM     21  C   LIG    1       24.914 -20.891   4.123  0.00  0.00    +0.081 C 
ENDBRANCH  19  21
BRANCH  19  22
ATOM     22  C   LIG    1       25.563 -20.846   6.481  0.00  0.00    +0.112 C 
BRANCH  22  23
ATOM     23  C   LIG    1       26.804 -21.566   7.054  0.00  0.00    +0.171 C 
BRANCH  23  24
ATOM     24  O   LIG    1       28.024 -21.231   6.401  0.00  0.00    -0.394 OA
ATOM     25  H   LIG    1       27.874 -21.284   5.443  0.00  0.00    +0.209 HD
ENDBRANCH  23  24
ENDBRANCH  22  23
ENDBRANCH  19  22
ENDBRANCH  18  19
ENDBRANCH  17  18
ENDBRANCH  16  17
ENDBRANCH  14  16
ENDBRANCH   1  14
TORSDOF 10
ENDMDL
