MODEL 1
REMARK VINA RESULT:      -8.4      0.000      0.000
REMARK  Name = *****
REMARK                            x       y       z     vdW  Elec       q    Type
REMARK                         _______ _______ _______ _____ _____    ______ ____
ROOT
ATOM      1  C   LIG    1       29.868 -20.887   8.013  0.00  0.00    +0.125 A 
ATOM      2  C   LIG    1       30.083 -19.961   6.989  0.00  0.00    +0.069 A 
ATOM      3 CL   LIG    1       31.559 -19.094   6.763  0.00  0.00    -0.082 Cl
ATOM      4  C   LIG    1       29.049 -19.681   6.078  0.00  0.00    +0.047 A 
ATOM      5  C   LIG    1       27.805 -20.314   6.173  0.00  0.00    +0.061 A 
ATOM      6  N   LIG    1       26.784 -20.027   5.269  0.00  0.00    -0.303 N 
ATOM      7  H   LIG    1       26.977 -19.368   4.522  0.00  0.00    +0.153 HD
ATOM      8  C   LIG    1       25.563 -20.630   5.327  0.00  0.00    +0.209 C 
ATOM      9  N   LIG    1       25.104 -21.499   6.150  0.00  0.00    -0.121 NA
ATOM     10  S   LIG    1       26.048 -22.031   7.351  0.00  0.00    +0.102 S 
ATOM     11  O   LIG    1       26.320 -23.438   7.138  0.00  0.00    -0.146 OA
ATOM     12  O   LIG    1       25.502 -21.562   8.611  0.00  0.00    -0.146 OA
ATOM     13  C   LIG    1       27.619 -21.228   7.204  0.00  0.00    +0.136 A 
ATOM     14  C   LIG    1       28.629 -21.530   8.123  0.00  0.00    +0.061 A 
ENDROOT
BRANCH   1  15
ATOM     15  S   LIG    1       31.132 -21.300   9.174  0.00  0.00    +0.057 S 
ATOM     16  O   LIG    1       31.931 -20.123   9.430  0.00  0.00    -0.153 OA
ATOM     17  O   LIG    1       30.561 -22.080  10.245  0.00  0.00    -0.153 OA
BRANCH  15  18
ATOM     18  N   LIG    1       32.139 -22.315   8.295  0.00  0.00    -0.203 NA
ATOM     19  H   LIG    1       32.984 -22.514   8.832  0.00  0.00    +0.144 HD
ATOM     20  H   LIG    1       31.627 -23.152   8.013  0.00  0.00    +0.144 HD
ENDBRANCH  15  18
ENDBRANCH   1  15
TORSDOF 2
ENDMDL
MODEL 2
REMARK VINA RESULT:      -7.8      1.427      1.512
REMARK  Name = *****
REMARK                            x       y       z     vdW  Elec       q    Type
REMARK                         _______ _______ _______ _____ _____    ______ ____
ROOT
ATOM      1  C   LIG    1       28.980 -20.283   7.368  0.00  0.00    +0.125 A 
ATOM      2  C   LIG    1       28.850 -19.516   6.208  0.00  0.00    +0.069 A 
ATOM      3 CL   LIG    1       30.024 -18.369   5.670  0.00  0.00    -0.082 Cl
ATOM      4  C   LIG    1       27.698 -19.649   5.412  0.00  0.00    +0.047 A 
ATOM      5  C   LIG    1       26.675 -20.539   5.758  0.00  0.00    +0.061 A 
ATOM      6  N   LIG    1       25.534 -20.660   4.967  0.00  0.00    -0.303 N 
ATOM      7  H   LIG    1       25.480 -20.109   4.117  0.00  0.00    +0.153 HD
ATOM      8  C   LIG    1       24.522 -21.522   5.269  0.00  0.00    +0.209 C 
ATOM      9  N   LIG    1       24.382 -22.326   6.257  0.00  0.00    -0.121 NA
ATOM     10  S   LIG    1       25.541 -22.407   7.384  0.00  0.00    +0.102 S 
ATOM     11  O   LIG    1       26.146 -23.723   7.332  0.00  0.00    -0.146 OA
ATOM     12  O   LIG    1       25.013 -21.881   8.628  0.00  0.00    -0.146 OA
ATOM     13  C   LIG    1       26.829 -21.286   6.920  0.00  0.00    +0.136 A 
ATOM     14  C   LIG    1       27.965 -21.178   7.729  0.00  0.00    +0.061 A 
ENDROOT
BRANCH   1  15
ATOM     15  S   LIG    1       30.411 -20.180   8.396  0.00  0.00    +0.057 S 
ATOM     16  O   LIG    1       31.588 -20.216   7.559  0.00  0.00    -0.153 OA
ATOM     17  O   LIG    1       30.213 -19.151   9.388  0.00  0.00    -0.153 OA
BRANCH  15  18
ATOM     18  N   LIG    1       30.412 -21.656   9.196  0.00  0.00    -0.203 NA
ATOM     19  H   LIG    1       31.262 -22.173   8.966  0.00  0.00    +0.144 HD
ATOM     20  H   LIG    1       30.282 -21.508  10.197  0.00  0.00    +0.144 HD
ENDBRANCH  15  18
ENDBRANCH   1  15
TORSDOF 2
ENDMDL
MODEL 3
REMARK VINA RESULT:      -7.4      2.797      5.232
REMARK  Name = *****
REMARK                            x       y       z     vdW  Elec       q    Type
REMARK                         _______ _______ _______ _____ _____    ______ ____
ROOT
ATOM      1  C   LIG    1       26.001 -20.971   6.926  0.00  0.00    +0.125 A 
ATOM      2  C   LIG    1       25.841 -20.493   5.624  0.00  0.00    +0.069 A 
ATOM      3 CL   LIG    1       24.436 -20.767   4.658  0.00  0.00    -0.082 Cl
ATOM      4  C   LIG    1       26.874 -19.750   5.024  0.00  0.00    +0.047 A 
ATOM      5  C   LIG    1       28.064 -19.479   5.708  0.00  0.00    +0.061 A 
ATOM      6  N   LIG    1       29.086 -18.747   5.104  0.00  0.00    -0.303 N 
ATOM      7  H   LIG    1       28.931 -18.392   4.167  0.00  0.00    +0.153 HD
ATOM      8  C   LIG    1       30.254 -18.456   5.742  0.00  0.00    +0.209 C 
ATOM      9  N   LIG    1       30.659 -18.769   6.918  0.00  0.00    -0.121 NA
ATOM     10  S   LIG    1       29.701 -19.650   7.879  0.00  0.00    +0.102 S 
ATOM     11  O   LIG    1       29.310 -18.837   9.014  0.00  0.00    -0.146 OA
ATOM     12  O   LIG    1       30.309 -20.952   8.072  0.00  0.00    -0.146 OA
ATOM     13  C   LIG    1       28.197 -19.971   7.001  0.00  0.00    +0.136 A 
ATOM     14  C   LIG    1       27.186 -20.708   7.625  0.00  0.00    +0.061 A 
ENDROOT
BRANCH   1  15
ATOM     15  S   LIG    1       24.733 -21.888   7.743  0.00  0.00    +0.057 S 
ATOM     16  O   LIG    1       23.559 -21.053   7.863  0.00  0.00    -0.153 OA
ATOM     17  O   LIG    1       24.668 -23.216   7.184  0.00  0.00    -0.153 OA
BRANCH  15  18
ATOM     18  N   LIG    1       25.316 -22.030   9.310  0.00  0.00    -0.203 NA
ATOM     19  H   LIG    1       24.785 -21.420   9.934  0.00  0.00    +0.144 HD
ATOM     20  H   LIG    1       25.310 -23.011   9.595  0.00  0.00    +0.144 HD
ENDBRANCH  15  18
ENDBRANCH   1  15
TORSDOF 2
ENDMDL
MODEL 4
REMARK VINA RESULT:      -7.3      4.450      5.698
REMARK  Name = *****
REMARK                            x       y       z     vdW  Elec       q    Type
REMARK                         _______ _______ _______ _____ _____    ______ ____
ROOT
ATOM      1  C   LIG    1       25.392 -22.685   7.405  0.00  0.00    +0.125 A 
ATOM      2  C   LIG    1       24.089 -22.568   6.915  0.00  0.00    +0.069 A 
ATOM      3 CL   LIG    1       23.140 -21.129   7.022  0.00  0.00    -0.082 Cl
ATOM      4  C   LIG    1       23.475 -23.676   6.304  0.00  0.00    +0.047 A 
ATOM      5  C   LIG    1       24.144 -24.898   6.174  0.00  0.00    +0.061 A 
ATOM      6  N   LIG    1       23.527 -25.992   5.573  0.00  0.00    -0.303 N 
ATOM      7  H   LIG    1       22.589 -25.871   5.203  0.00  0.00    +0.153 HD
ATOM      8  C   LIG    1       24.151 -27.195   5.422  0.00  0.00    +0.209 C 
ATOM      9  N   LIG    1       25.323 -27.572   5.777  0.00  0.00    -0.121 NA
ATOM     10  S   LIG    1       26.299 -26.526   6.534  0.00  0.00    +0.102 S 
ATOM     11  O   LIG    1       27.434 -26.249   5.677  0.00  0.00    -0.146 OA
ATOM     12  O   LIG    1       26.490 -26.977   7.899  0.00  0.00    -0.146 OA
ATOM     13  C   LIG    1       25.438 -24.986   6.675  0.00  0.00    +0.136 A 
ATOM     14  C   LIG    1       26.076 -23.900   7.284  0.00  0.00    +0.061 A 
ENDROOT
BRANCH   1  15
ATOM     15  S   LIG    1       26.227 -21.325   8.161  0.00  0.00    +0.057 S 
ATOM     16  O   LIG    1       26.257 -20.222   7.228  0.00  0.00    -0.153 OA
ATOM     17  O   LIG    1       25.751 -21.165   9.514  0.00  0.00    -0.153 OA
BRANCH  15  18
ATOM     18  N   LIG    1       27.817 -21.855   8.246  0.00  0.00    -0.203 NA
ATOM     19  H   LIG    1       28.390 -21.153   8.717  0.00  0.00    +0.144 HD
ATOM     20  H   LIG    1       27.853 -22.774   8.687  0.00  0.00    +0.144 HD
ENDBRANCH  15  18
ENDBRANCH   1  15
TORSDOF 2
ENDMDL
MODEL 5
REMARK VINA RESULT:      -6.5      3.158      5.845
REMARK  Name = *****
REMARK                            x       y       z     vdW  Elec       q    Type
REMARK                         _______ _______ _______ _____ _____    ______ ____
ROOT
ATOM      1  C   LIG    1       26.524 -20.841   6.225  0.00  0.00    +0.125 A 
ATOM      2  C   LIG    1       26.644 -21.921   7.102  0.00  0.00    +0.069 A 
ATOM      3 CL   LIG    1       25.390 -23.072   7.397  0.00  0.00    -0.082 Cl
ATOM      4  C   LIG    1       27.840 -22.106   7.818  0.00  0.00    +0.047 A 
ATOM      5  C   LIG    1       28.919 -21.227   7.669  0.00  0.00    +0.061 A 
ATOM      6  N   LIG    1       30.099 -21.413   8.387  0.00  0.00    -0.303 N 
ATOM      7  H   LIG    1       30.166 -22.221   8.997  0.00  0.00    +0.153 HD
ATOM      8  C   LIG    1       31.172 -20.583   8.260  0.00  0.00    +0.209 C 
ATOM      9  N   LIG    1       31.330 -19.532   7.543  0.00  0.00    -0.121 NA
ATOM     10  S   LIG    1       30.117 -19.026   6.599  0.00  0.00    +0.102 S 
ATOM     11  O   LIG    1       30.524 -19.155   5.214  0.00  0.00    -0.146 OA
ATOM     12  O   LIG    1       29.624 -17.763   7.115  0.00  0.00    -0.146 OA
ATOM     13  C   LIG    1       28.770 -20.158   6.793  0.00  0.00    +0.136 A 
ATOM     14  C   LIG    1       27.593 -19.951   6.064  0.00  0.00    +0.061 A 
ENDROOT
BRANCH   1  15
ATOM     15  S   LIG    1       25.058 -20.568   5.280  0.00  0.00    +0.057 S 
ATOM     16  O   LIG    1       23.951 -20.370   6.187  0.00  0.00    -0.153 OA
ATOM     17  O   LIG    1       25.344 -19.640   4.213  0.00  0.00    -0.153 OA
BRANCH  15  18
ATOM     18  N   LIG    1       24.773 -22.066   4.580  0.00  0.00    -0.203 NA
ATOM     19  H   LIG    1       23.887 -22.443   4.919  0.00  0.00    +0.144 HD
ATOM     20  H   LIG    1       24.822 -21.989   3.563  0.00  0.00    +0.144 HD
ENDBRANCH  15  18
ENDBRANCH   1  15
TORSDOF 2
ENDMDL
MODEL 6
REMARK VINA RESULT:      -6.4      2.546      3.001
REMARK  Name = *****
REMARK                            x       y       z     vdW  Elec       q    Type
REMARK                         _______ _______ _______ _____ _____    ______ ____
ROOT
ATOM      1  C   LIG    1       27.528 -20.328   6.637  0.00  0.00    +0.125 A 
ATOM      2  C   LIG    1       27.468 -19.530   5.492  0.00  0.00    +0.069 A 
ATOM      3 CL   LIG    1       28.781 -18.570   4.912  0.00  0.00    -0.082 Cl
ATOM      4  C   LIG    1       26.275 -19.468   4.749  0.00  0.00    +0.047 A 
ATOM      5  C   LIG    1       25.142 -20.193   5.134  0.00  0.00    +0.061 A 
ATOM      6  N   LIG    1       23.962 -20.122   4.396  0.00  0.00    -0.303 N 
ATOM      7  H   LIG    1       23.956 -19.554   3.555  0.00  0.00    +0.153 HD
ATOM      8  C   LIG    1       22.842 -20.821   4.735  0.00  0.00    +0.209 C 
ATOM      9  N   LIG    1       22.623 -21.611   5.721  0.00  0.00    -0.121 NA
ATOM     10  S   LIG    1       23.803 -21.891   6.791  0.00  0.00    +0.102 S 
ATOM     11  O   LIG    1       24.193 -23.283   6.697  0.00  0.00    -0.146 OA
ATOM     12  O   LIG    1       23.421 -21.311   8.064  0.00  0.00    -0.146 OA
ATOM     13  C   LIG    1       25.229 -20.975   6.279  0.00  0.00    +0.136 A 
ATOM     14  C   LIG    1       26.403 -21.060   7.036  0.00  0.00    +0.061 A 
ENDROOT
BRANCH   1  15
ATOM     15  S   LIG    1       29.002 -20.467   7.598  0.00  0.00    +0.057 S 
ATOM     16  O   LIG    1       28.878 -21.607   8.477  0.00  0.00    -0.153 OA
ATOM     17  O   LIG    1       30.149 -20.286   6.742  0.00  0.00    -0.153 OA
BRANCH  15  18
ATOM     18  N   LIG    1       28.919 -19.134   8.615  0.00  0.00    -0.203 NA
ATOM     19  H   LIG    1       29.861 -18.853   8.893  0.00  0.00    +0.144 HD
ATOM     20  H   LIG    1       28.386 -18.388   8.167  0.00  0.00    +0.144 HD
ENDBRANCH  15  18
ENDBRANCH   1  15
TORSDOF 2
ENDMDL
MODEL 7
REMARK VINA RESULT:      -6.1      3.287      6.008
REMARK  Name = *****
REMARK                            x       y       z     vdW  Elec       q    Type
REMARK                         _______ _______ _______ _____ _____    ______ ____
ROOT
ATOM      1  C   LIG    1       24.614 -20.078   5.182  0.00  0.00    +0.125 A 
ATOM      2  C   LIG    1       25.682 -19.504   4.489  0.00  0.00    +0.069 A 
ATOM      3 CL   LIG    1       25.517 -18.624   3.012  0.00  0.00    -0.082 Cl
ATOM      4  C   LIG    1       26.990 -19.644   4.987  0.00  0.00    +0.047 A 
ATOM      5  C   LIG    1       27.245 -20.349   6.169  0.00  0.00    +0.061 A 
ATOM      6  N   LIG    1       28.544 -20.488   6.653  0.00  0.00    -0.303 N 
ATOM      7  H   LIG    1       29.297 -20.039   6.142  0.00  0.00    +0.153 HD
ATOM      8  C   LIG    1       28.829 -21.160   7.804  0.00  0.00    +0.209 C 
ATOM      9  N   LIG    1       28.055 -21.775   8.620  0.00  0.00    -0.121 NA
ATOM     10  S   LIG    1       26.465 -21.820   8.325  0.00  0.00    +0.102 S 
ATOM     11  O   LIG    1       25.780 -21.079   9.365  0.00  0.00    -0.146 OA
ATOM     12  O   LIG    1       26.089 -23.186   8.016  0.00  0.00    -0.146 OA
ATOM     13  C   LIG    1       26.163 -20.913   6.835  0.00  0.00    +0.136 A 
ATOM     14  C   LIG    1       24.852 -20.786   6.366  0.00  0.00    +0.061 A 
ENDROOT
BRANCH   1  15
ATOM     15  S   LIG    1       22.948 -19.917   4.622  0.00  0.00    +0.057 S 
ATOM     16  O   LIG    1       22.289 -18.900   5.409  0.00  0.00    -0.153 OA
ATOM     17  O   LIG    1       22.929 -19.894   3.179  0.00  0.00    -0.153 OA
BRANCH  15  18
ATOM     18  N   LIG    1       22.242 -21.359   5.110  0.00  0.00    -0.203 NA
ATOM     19  H   LIG    1       22.688 -22.142   4.630  0.00  0.00    +0.144 HD
ATOM     20  H   LIG    1       22.271 -21.433   6.128  0.00  0.00    +0.144 HD
ENDBRANCH  15  18
ENDBRANCH   1  15
TORSDOF 2
ENDMDL
MODEL 8
REMARK VINA RESULT:      -6.1      3.049      3.567
REMARK  Name = *****
REMARK                            x       y       z     vdW  Elec       q    Type
REMARK                         _______ _______ _______ _____ _____    ______ ____
ROOT
ATOM      1  C   LIG    1       28.428 -20.158   6.695  0.00  0.00    +0.125 A 
ATOM      2  C   LIG    1       28.674 -21.178   7.618  0.00  0.00    +0.069 A 
ATOM      3 CL   LIG    1       30.154 -21.359   8.488  0.00  0.00    -0.082 Cl
ATOM      4  C   LIG    1       27.682 -22.143   7.867  0.00  0.00    +0.047 A 
ATOM      5  C   LIG    1       26.448 -22.104   7.209  0.00  0.00    +0.061 A 
ATOM      6  N   LIG    1       25.473 -23.067   7.457  0.00  0.00    -0.303 N 
ATOM      7  H   LIG    1       25.670 -23.781   8.151  0.00  0.00    +0.153 HD
ATOM      8  C   LIG    1       24.257 -23.055   6.841  0.00  0.00    +0.209 C 
ATOM      9  N   LIG    1       23.777 -22.252   5.964  0.00  0.00    -0.121 NA
ATOM     10  S   LIG    1       24.684 -21.019   5.438  0.00  0.00    +0.102 S 
ATOM     11  O   LIG    1       24.067 -19.778   5.861  0.00  0.00    -0.146 OA
ATOM     12  O   LIG    1       25.013 -21.248   4.045  0.00  0.00    -0.146 OA
ATOM     13  C   LIG    1       26.233 -21.080   6.293  0.00  0.00    +0.136 A 
ATOM     14  C   LIG    1       27.199 -20.104   6.027  0.00  0.00    +0.061 A 
ENDROOT
BRANCH   1  15
ATOM     15  S   LIG    1       29.623 -18.903   6.355  0.00  0.00    +0.057 S 
ATOM     16  O   LIG    1       29.557 -17.905   7.397  0.00  0.00    -0.153 OA
ATOM     17  O   LIG    1       30.868 -19.522   5.971  0.00  0.00    -0.153 OA
BRANCH  15  18
ATOM     18  N   LIG    1       28.998 -18.143   4.995  0.00  0.00    -0.203 NA
ATOM     19  H   LIG    1       28.747 -17.179   5.223  0.00  0.00    +0.144 HD
ATOM     20  H   LIG    1       29.658 -18.221   4.221  0.00  0.00    +0.144 HD
ENDBRANCH  15  18
ENDBRANCH   1  15
TORSDOF 2
ENDMDL
MODEL 9
REMARK VINA RESULT:      -5.6      3.752      4.685
REMARK  Name = *****
REMARK                            x       y       z     vdW  Elec       q    Type
REMARK                         _______ _______ _______ _____ _____    ______ ____
ROOT
ATOM      1  C   LIG    1       26.663 -20.658   6.663  0.00  0.00    +0.125 A 
ATOM      2  C   LIG    1       25.699 -21.063   7.589  0.00  0.00    +0.069 A 
ATOM      3 CL   LIG    1       26.066 -21.754   9.129  0.00  0.00    -0.082 Cl
ATOM      4  C   LIG    1       24.334 -20.930   7.276  0.00  0.00    +0.047 A 
ATOM      5  C   LIG    1       23.920 -20.396   6.051  0.00  0.00    +0.061 A 
ATOM      6  N   LIG    1       22.566 -20.272   5.745  0.00  0.00    -0.303 N 
ATOM      7  H   LIG    1       21.889 -20.551   6.448  0.00  0.00    +0.153 HD
ATOM      8  C   LIG    1       22.125 -19.749   4.566  0.00  0.00    +0.209 C 
ATOM      9  N   LIG    1       22.781 -19.311   3.555  0.00  0.00    -0.121 NA
ATOM     10  S   LIG    1       24.398 -19.339   3.585  0.00  0.00    +0.102 S 
ATOM     11  O   LIG    1       24.886 -17.975   3.581  0.00  0.00    -0.146 OA
ATOM     12  O   LIG    1       24.863 -20.298   2.601  0.00  0.00    -0.146 OA
ATOM     13  C   LIG    1       24.901 -20.005   5.147  0.00  0.00    +0.136 A 
ATOM     14  C   LIG    1       26.265 -20.122   5.432  0.00  0.00    +0.061 A 
ENDROOT
BRANCH   1  15
ATOM     15  S   LIG    1       28.391 -20.778   7.006  0.00  0.00    +0.057 S 
ATOM     16  O   LIG    1       28.675 -22.104   7.503  0.00  0.00    -0.153 OA
ATOM     17  O   LIG    1       29.135 -20.199   5.914  0.00  0.00    -0.153 OA
BRANCH  15  18
ATOM     18  N   LIG    1       28.584 -19.773   8.335  0.00  0.00    -0.203 NA
ATOM     19  H   LIG    1       29.519 -19.360   8.323  0.00  0.00    +0.144 HD
ATOM     20  H   LIG    1       27.833 -19.083   8.361  0.00  0.00    +0.144 HD
ENDBRANCH  15  18
ENDBRANCH   1  15
TORSDOF 2
ENDMDL
