MODEL 1
REMARK VINA RESULT:      -6.6      0.000      0.000
REMARK  Name = *****
REMARK                            x       y       z     vdW  Elec       q    Type
REMARK                         _______ _______ _______ _____ _____    ______ ____
ROOT
ATOM      1  N   LIG    1       24.785 -30.027  10.979  0.00  0.00    -0.293 NA
ATOM      2  C   LIG    1       25.971 -29.071  10.947  0.00  0.00    +0.094 C 
ATOM      3  C   LIG    1       26.521 -30.378  10.896  0.00  0.00    +0.096 C 
ATOM      4  C   LIG    1       25.612 -30.726   9.244  0.00  0.00    +0.075 C 
ATOM      5  C   LIG    1       23.742 -30.799   9.232  0.00  0.00    +0.253 C 
ATOM      6  O   LIG    1       23.553 -30.989   7.805  0.00  0.00    -0.476 OA
ATOM      7  C   LIG    1       24.490 -30.051   7.291  0.00  0.00    +0.167 A 
ATOM      8  C   LIG    1       24.181 -29.171   6.276  0.00  0.00    +0.159 A 
ATOM      9  C   LIG    1       24.856 -27.950   6.239  0.00  0.00    +0.049 A 
ATOM     10  C   LIG    1       25.703 -27.577   7.309  0.00  0.00    +0.008 A 
ATOM     11  C   LIG    1       25.965 -28.484   8.340  0.00  0.00    -0.038 A 
ATOM     12  C   LIG    1       22.972 -31.568  10.773  0.00  0.00    +0.174 C 
ATOM     13  O   LIG    1       21.810 -31.993  10.760  0.00  0.00    -0.293 OA
ATOM     14  C   LIG    1       24.018 -31.775  12.343  0.00  0.00    +0.081 C 
ATOM     15  C   LIG    1       25.555 -29.778   8.150  0.00  0.00    +0.014 A 
ATOM     16  C   LIG    1       25.929 -32.101   9.143  0.00  0.00    +0.034 C 
ATOM     17  C   LIG    1       25.794 -31.155  12.507  0.00  0.00    +0.045 C 
ATOM     18  C   LIG    1       26.395 -28.115   9.749  0.00  0.00    +0.057 C 
ATOM     19  C   LIG    1       25.215 -31.910  10.475  0.00  0.00    +0.086 C 
ENDROOT
BRANCH   3  20
ATOM     20  O   LIG    1       27.920 -30.499  10.836  0.00  0.00    -0.386 OA
ATOM     21  H   LIG    1       28.192 -30.305   9.922  0.00  0.00    +0.210 HD
ENDBRANCH   3  20
BRANCH   8  22
ATOM     22  O   LIG    1       23.163 -29.409   5.408  0.00  0.00    -0.503 OA
ATOM     23  H   LIG    1       22.460 -29.835   5.934  0.00  0.00    +0.292 HD
ENDBRANCH   8  22
BRANCH   1  24
ATOM     24  C   LIG    1       23.727 -29.297  11.822  0.00  0.00    +0.111 C 
BRANCH  24  26
ATOM     25  C   LIG    1       23.529 -27.222  13.277  0.00  0.00    +0.005 C 
ATOM     26  C   LIG    1       24.267 -28.159  12.667  0.00  0.00    -0.019 C 
ENDBRANCH  24  26
ENDBRANCH   1  24
TORSDOF 4
ENDMDL
MODEL 2
REMARK VINA RESULT:      -6.0      1.230      1.525
REMARK  Name = *****
REMARK                            x       y       z     vdW  Elec       q    Type
REMARK                         _______ _______ _______ _____ _____    ______ ____
ROOT
ATOM      1  N   LIG    1       23.862 -29.718  11.990  0.00  0.00    -0.293 NA
ATOM      2  C   LIG    1       25.277 -29.184  12.164  0.00  0.00    +0.094 C 
ATOM      3  C   LIG    1       25.372 -30.593  12.302  0.00  0.00    +0.096 C 
ATOM      4  C   LIG    1       24.725 -30.838  10.513  0.00  0.00    +0.075 C 
ATOM      5  C   LIG    1       22.970 -30.335  10.104  0.00  0.00    +0.253 C 
ATOM      6  O   LIG    1       23.000 -30.626   8.682  0.00  0.00    -0.476 OA
ATOM      7  C   LIG    1       24.269 -30.089   8.332  0.00  0.00    +0.167 A 
ATOM      8  C   LIG    1       24.458 -29.284   7.229  0.00  0.00    +0.159 A 
ATOM      9  C   LIG    1       25.488 -28.343   7.274  0.00  0.00    +0.049 A 
ATOM     10  C   LIG    1       26.194 -28.124   8.480  0.00  0.00    +0.008 A 
ATOM     11  C   LIG    1       25.950 -28.938   9.590  0.00  0.00    -0.038 A 
ATOM     12  C   LIG    1       21.718 -30.641  11.482  0.00  0.00    +0.174 C 
ATOM     13  O   LIG    1       20.505 -30.687  11.242  0.00  0.00    -0.293 OA
ATOM     14  C   LIG    1       22.328 -30.971  13.248  0.00  0.00    +0.081 C 
ATOM     15  C   LIG    1       25.184 -30.056   9.385  0.00  0.00    +0.014 A 
ATOM     16  C   LIG    1       24.591 -32.247  10.556  0.00  0.00    +0.034 C 
ATOM     17  C   LIG    1       24.145 -30.911  13.757  0.00  0.00    +0.045 C 
ATOM     18  C   LIG    1       26.205 -28.553  11.036  0.00  0.00    +0.057 C 
ATOM     19  C   LIG    1       23.742 -31.688  11.691  0.00  0.00    +0.086 C 
ENDROOT
BRANCH   3  20
ATOM     20  O   LIG    1       26.641 -31.144  12.551  0.00  0.00    -0.386 OA
ATOM     21  H   LIG    1       27.296 -30.586  12.096  0.00  0.00    +0.210 HD
ENDBRANCH   3  20
BRANCH   8  22
ATOM     22  O   LIG    1       23.599 -29.299   6.176  0.00  0.00    -0.503 OA
ATOM     23  H   LIG    1       23.207 -28.406   6.141  0.00  0.00    +0.292 HD
ENDBRANCH   8  22
BRANCH   1  24
ATOM     24  C   LIG    1       22.961 -28.604  12.547  0.00  0.00    +0.111 C 
BRANCH  24  26
ATOM     25  C   LIG    1       23.167 -26.278  13.552  0.00  0.00    +0.005 C 
ATOM     26  C   LIG    1       23.706 -27.451  13.192  0.00  0.00    -0.019 C 
ENDBRANCH  24  26
ENDBRANCH   1  24
TORSDOF 4
ENDMDL
MODEL 3
REMARK VINA RESULT:      -5.9      2.363      4.742
REMARK  Name = *****
REMARK                            x       y       z     vdW  Elec       q    Type
REMARK                         _______ _______ _______ _____ _____    ______ ____
ROOT
ATOM      1  N   LIG    1       25.873 -31.749   7.933  0.00  0.00    -0.293 NA
ATOM      2  C   LIG    1       25.127 -32.127   6.661  0.00  0.00    +0.094 C 
ATOM      3  C   LIG    1       24.162 -32.145   7.701  0.00  0.00    +0.096 C 
ATOM      4  C   LIG    1       24.454 -30.281   8.042  0.00  0.00    +0.075 C 
ATOM      5  C   LIG    1       26.116 -29.727   8.700  0.00  0.00    +0.253 C 
ATOM      6  O   LIG    1       25.868 -28.296   8.703  0.00  0.00    -0.476 OA
ATOM      7  C   LIG    1       25.221 -28.140   7.447  0.00  0.00    +0.167 A 
ATOM      8  C   LIG    1       25.556 -27.143   6.556  0.00  0.00    +0.159 A 
ATOM      9  C   LIG    1       25.362 -27.387   5.195  0.00  0.00    +0.049 A 
ATOM     10  C   LIG    1       24.991 -28.679   4.754  0.00  0.00    +0.008 A 
ATOM     11  C   LIG    1       24.693 -29.676   5.688  0.00  0.00    -0.038 A 
ATOM     12  C   LIG    1       26.925 -30.923   9.913  0.00  0.00    +0.174 C 
ATOM     13  O   LIG    1       27.824 -30.547  10.675  0.00  0.00    -0.293 OA
ATOM     14  C   LIG    1       26.294 -32.709  10.033  0.00  0.00    +0.081 C 
ATOM     15  C   LIG    1       24.565 -29.287   6.996  0.00  0.00    +0.014 A 
ATOM     16  C   LIG    1       23.662 -30.181   9.211  0.00  0.00    +0.034 C 
ATOM     17  C   LIG    1       24.946 -33.420   8.919  0.00  0.00    +0.045 C 
ATOM     18  C   LIG    1       24.781 -31.171   5.437  0.00  0.00    +0.057 C 
ATOM     19  C   LIG    1       24.704 -31.260   9.475  0.00  0.00    +0.086 C 
ENDROOT
BRANCH   3  20
ATOM     20  O   LIG    1       22.839 -32.483   7.362  0.00  0.00    -0.386 OA
ATOM     21  H   LIG    1       22.815 -32.642   6.402  0.00  0.00    +0.210 HD
ENDBRANCH   3  20
BRANCH   8  22
ATOM     22  O   LIG    1       26.179 -26.004   6.958  0.00  0.00    -0.503 OA
ATOM     23  H   LIG    1       26.098 -25.988   7.931  0.00  0.00    +0.292 HD
ENDBRANCH   8  22
BRANCH   1  24
ATOM     24  C   LIG    1       27.293 -32.301   7.723  0.00  0.00    +0.111 C 
BRANCH  24  26
ATOM     25  C   LIG    1       28.628 -33.625   6.013  0.00  0.00    +0.005 C 
ATOM     26  C   LIG    1       27.519 -32.971   6.382  0.00  0.00    -0.019 C 
ENDBRANCH  24  26
ENDBRANCH   1  24
TORSDOF 4
ENDMDL
MODEL 4
REMARK VINA RESULT:      -5.4      1.925      4.834
REMARK  Name = *****
REMARK                            x       y       z     vdW  Elec       q    Type
REMARK                         _______ _______ _______ _____ _____    ______ ____
ROOT
ATOM      1  N   LIG    1       24.391 -31.516   8.362  0.00  0.00    -0.293 NA
ATOM      2  C   LIG    1       23.249 -30.989   9.219  0.00  0.00    +0.094 C 
ATOM      3  C   LIG    1       23.415 -32.351   9.583  0.00  0.00    +0.096 C 
ATOM      4  C   LIG    1       25.206 -32.003  10.173  0.00  0.00    +0.075 C 
ATOM      5  C   LIG    1       26.496 -31.497   8.915  0.00  0.00    +0.253 C 
ATOM      6  O   LIG    1       27.600 -31.276   9.832  0.00  0.00    -0.476 OA
ATOM      7  C   LIG    1       26.937 -30.575  10.876  0.00  0.00    +0.167 A 
ATOM      8  C   LIG    1       27.448 -29.429  11.445  0.00  0.00    +0.159 A 
ATOM      9  C   LIG    1       26.549 -28.500  11.972  0.00  0.00    +0.049 A 
ATOM     10  C   LIG    1       25.159 -28.669  11.769  0.00  0.00    +0.008 A 
ATOM     11  C   LIG    1       24.679 -29.829  11.155  0.00  0.00    -0.038 A 
ATOM     12  C   LIG    1       26.331 -32.335   7.234  0.00  0.00    +0.174 C 
ATOM     13  O   LIG    1       27.282 -32.370   6.443  0.00  0.00    -0.293 OA
ATOM     14  C   LIG    1       24.714 -33.217   6.778  0.00  0.00    +0.081 C 
ATOM     15  C   LIG    1       25.572 -30.853  10.973  0.00  0.00    +0.014 A 
ATOM     16  C   LIG    1       25.586 -33.345  10.414  0.00  0.00    +0.034 C 
ATOM     17  C   LIG    1       23.180 -33.226   7.879  0.00  0.00    +0.045 C 
ATOM     18  C   LIG    1       23.355 -29.953  10.421  0.00  0.00    +0.057 C 
ATOM     19  C   LIG    1       25.147 -33.265   8.958  0.00  0.00    +0.086 C 
ENDROOT
BRANCH   3  20
ATOM     20  O   LIG    1       22.560 -32.875  10.569  0.00  0.00    -0.386 OA
ATOM     21  H   LIG    1       21.647 -32.670  10.303  0.00  0.00    +0.210 HD
ENDBRANCH   3  20
BRANCH   8  22
ATOM     22  O   LIG    1       28.774 -29.133  11.388  0.00  0.00    -0.503 OA
ATOM     23  H   LIG    1       28.831 -28.161  11.467  0.00  0.00    +0.292 HD
ENDBRANCH   8  22
BRANCH   1  24
ATOM     24  C   LIG    1       24.286 -30.719   7.051  0.00  0.00    +0.111 C 
BRANCH  24  26
ATOM     25  C   LIG    1       25.370 -28.452   7.430  0.00  0.00    +0.005 C 
ATOM     26  C   LIG    1       24.287 -29.213   7.225  0.00  0.00    -0.019 C 
ENDBRANCH  24  26
ENDBRANCH   1  24
TORSDOF 4
ENDMDL
MODEL 5
REMARK VINA RESULT:      -5.1      2.525      4.703
REMARK  Name = *****
REMARK                            x       y       z     vdW  Elec       q    Type
REMARK                         _______ _______ _______ _____ _____    ______ ____
ROOT
ATOM      1  N   LIG    1       25.982 -29.380  13.661  0.00  0.00    -0.293 NA
ATOM      2  C   LIG    1       24.482 -29.161  13.524  0.00  0.00    +0.094 C 
ATOM      3  C   LIG    1       25.072 -27.872  13.466  0.00  0.00    +0.096 C 
ATOM      4  C   LIG    1       26.049 -28.361  11.889  0.00  0.00    +0.075 C 
ATOM      5  C   LIG    1       27.368 -29.683  12.011  0.00  0.00    +0.253 C 
ATOM      6  O   LIG    1       27.727 -29.743  10.605  0.00  0.00    -0.476 OA
ATOM      7  C   LIG    1       26.439 -29.711  10.005  0.00  0.00    +0.167 A 
ATOM      8  C   LIG    1       26.068 -30.571   8.994  0.00  0.00    +0.159 A 
ATOM      9  C   LIG    1       24.718 -30.906   8.880  0.00  0.00    +0.049 A 
ATOM     10  C   LIG    1       23.802 -30.500   9.879  0.00  0.00    +0.008 A 
ATOM     11  C   LIG    1       24.224 -29.656  10.911  0.00  0.00    -0.038 A 
ATOM     12  C   LIG    1       28.353 -29.671  13.620  0.00  0.00    +0.174 C 
ATOM     13  O   LIG    1       29.452 -30.235  13.698  0.00  0.00    -0.293 OA
ATOM     14  C   LIG    1       27.696 -28.707  15.116  0.00  0.00    +0.081 C 
ATOM     15  C   LIG    1       25.463 -29.085  10.781  0.00  0.00    +0.014 A 
ATOM     16  C   LIG    1       26.850 -27.198  11.799  0.00  0.00    +0.034 C 
ATOM     17  C   LIG    1       26.029 -27.821  15.141  0.00  0.00    +0.045 C 
ATOM     18  C   LIG    1       23.570 -29.542  12.277  0.00  0.00    +0.057 C 
ATOM     19  C   LIG    1       27.106 -27.804  13.173  0.00  0.00    +0.086 C 
ENDROOT
BRANCH   3  20
ATOM     20  O   LIG    1       24.218 -26.766  13.311  0.00  0.00    -0.386 OA
ATOM     21  H   LIG    1       23.846 -26.807  12.412  0.00  0.00    +0.210 HD
ENDBRANCH   3  20
BRANCH   8  22
ATOM     22  O   LIG    1       26.988 -31.187   8.204  0.00  0.00    -0.503 OA
ATOM     23  H   LIG    1       27.670 -31.530   8.812  0.00  0.00    +0.292 HD
ENDBRANCH   8  22
BRANCH   1  24
ATOM     24  C   LIG    1       26.108 -30.622  14.559  0.00  0.00    +0.111 C 
BRANCH  24  26
ATOM     25  C   LIG    1       25.436 -32.645  13.174  0.00  0.00    +0.005 C 
ATOM     26  C   LIG    1       25.206 -31.778  14.169  0.00  0.00    -0.019 C 
ENDBRANCH  24  26
ENDBRANCH   1  24
TORSDOF 4
ENDMDL
MODEL 6
REMARK VINA RESULT:      -5.1      2.118      3.171
REMARK  Name = *****
REMARK                            x       y       z     vdW  Elec       q    Type
REMARK                         _______ _______ _______ _____ _____    ______ ____
ROOT
ATOM      1  N   LIG    1       25.184 -28.279  13.369  0.00  0.00    -0.293 NA
ATOM      2  C   LIG    1       26.588 -27.868  12.946  0.00  0.00    +0.094 C 
ATOM      3  C   LIG    1       26.733 -29.097  13.640  0.00  0.00    +0.096 C 
ATOM      4  C   LIG    1       25.637 -29.989  12.344  0.00  0.00    +0.075 C 
ATOM      5  C   LIG    1       23.830 -29.523  12.206  0.00  0.00    +0.253 C 
ATOM      6  O   LIG    1       23.485 -30.375  11.081  0.00  0.00    -0.476 OA
ATOM      7  C   LIG    1       24.608 -30.162  10.237  0.00  0.00    +0.167 A 
ATOM      8  C   LIG    1       24.488 -29.905   8.888  0.00  0.00    +0.159 A 
ATOM      9  C   LIG    1       25.480 -29.140   8.275  0.00  0.00    +0.049 A 
ATOM     10  C   LIG    1       26.479 -28.517   9.059  0.00  0.00    +0.008 A 
ATOM     11  C   LIG    1       26.549 -28.773  10.432  0.00  0.00    -0.038 A 
ATOM     12  C   LIG    1       22.994 -29.106  13.844  0.00  0.00    +0.174 C 
ATOM     13  O   LIG    1       21.762 -29.123  13.953  0.00  0.00    -0.293 OA
ATOM     14  C   LIG    1       24.056 -28.740  15.374  0.00  0.00    +0.081 C 
ATOM     15  C   LIG    1       25.770 -29.792  10.916  0.00  0.00    +0.014 A 
ATOM     16  C   LIG    1       25.537 -31.234  13.011  0.00  0.00    +0.034 C 
ATOM     17  C   LIG    1       25.942 -28.661  15.345  0.00  0.00    +0.045 C 
ATOM     18  C   LIG    1       27.175 -27.855  11.467  0.00  0.00    +0.057 C 
ATOM     19  C   LIG    1       25.014 -30.174  13.972  0.00  0.00    +0.086 C 
ENDROOT
BRANCH   3  20
ATOM     20  O   LIG    1       28.030 -29.622  13.778  0.00  0.00    -0.386 OA
ATOM     21  H   LIG    1       28.327 -29.434  14.685  0.00  0.00    +0.210 HD
ENDBRANCH   3  20
BRANCH   8  22
ATOM     22  O   LIG    1       23.380 -30.266   8.188  0.00  0.00    -0.503 OA
ATOM     23  H   LIG    1       22.714 -30.516   8.857  0.00  0.00    +0.292 HD
ENDBRANCH   8  22
BRANCH   1  24
ATOM     24  C   LIG    1       24.450 -26.949  13.604  0.00  0.00    +0.111 C 
BRANCH  24  26
ATOM     25  C   LIG    1       25.077 -24.516  13.988  0.00  0.00    +0.005 C 
ATOM     26  C   LIG    1       25.311 -25.712  13.433  0.00  0.00    -0.019 C 
ENDBRANCH  24  26
ENDBRANCH   1  24
TORSDOF 4
ENDMDL
MODEL 7
REMARK VINA RESULT:      -5.0      6.372      9.382
REMARK  Name = *****
REMARK                            x       y       z     vdW  Elec       q    Type
REMARK                         _______ _______ _______ _____ _____    ______ ____
ROOT
ATOM      1  N   LIG    1       24.733 -21.187   6.059  0.00  0.00    -0.293 NA
ATOM      2  C   LIG    1       25.035 -21.483   7.522  0.00  0.00    +0.094 C 
ATOM      3  C   LIG    1       23.620 -21.468   7.410  0.00  0.00    +0.096 C 
ATOM      4  C   LIG    1       23.676 -22.934   6.174  0.00  0.00    +0.075 C 
ATOM      5  C   LIG    1       24.470 -22.681   4.499  0.00  0.00    +0.253 C 
ATOM      6  O   LIG    1       24.342 -24.040   4.004  0.00  0.00    -0.476 OA
ATOM      7  C   LIG    1       24.727 -24.775   5.159  0.00  0.00    +0.167 A 
ATOM      8  C   LIG    1       25.617 -25.827   5.109  0.00  0.00    +0.159 A 
ATOM      9  C   LIG    1       26.389 -26.087   6.242  0.00  0.00    +0.049 A 
ATOM     10  C   LIG    1       26.365 -25.189   7.335  0.00  0.00    +0.008 A 
ATOM     11  C   LIG    1       25.473 -24.112   7.335  0.00  0.00    -0.038 A 
ATOM     12  C   LIG    1       24.192 -20.975   3.742  0.00  0.00    +0.174 C 
ATOM     13  O   LIG    1       24.349 -20.783   2.530  0.00  0.00    -0.293 OA
ATOM     14  C   LIG    1       23.579 -19.551   4.836  0.00  0.00    +0.081 C 
ATOM     15  C   LIG    1       24.507 -24.104   6.362  0.00  0.00    +0.014 A 
ATOM     16  C   LIG    1       22.306 -22.929   5.819  0.00  0.00    +0.034 C 
ATOM     17  C   LIG    1       23.318 -19.699   6.700  0.00  0.00    +0.045 C 
ATOM     18  C   LIG    1       25.650 -22.824   8.118  0.00  0.00    +0.057 C 
ATOM     19  C   LIG    1       22.848 -21.540   5.506  0.00  0.00    +0.086 C 
ENDROOT
BRANCH   3  20
ATOM     20  O   LIG    1       22.868 -21.706   8.574  0.00  0.00    -0.386 OA
ATOM     21  H   LIG    1       22.236 -22.418   8.373  0.00  0.00    +0.210 HD
ENDBRANCH   3  20
BRANCH   8  22
ATOM     22  O   LIG    1       25.845 -26.517   3.960  0.00  0.00    -0.503 OA
ATOM     23  H   LIG    1       26.483 -27.218   4.195  0.00  0.00    +0.292 HD
ENDBRANCH   8  22
BRANCH   1  24
ATOM     24  C   LIG    1       25.895 -20.290   5.602  0.00  0.00    +0.111 C 
BRANCH  24  26
ATOM     25  C   LIG    1       28.370 -20.235   6.177  0.00  0.00    +0.005 C 
ATOM     26  C   LIG    1       27.083 -20.264   6.545  0.00  0.00    -0.019 C 
ENDBRANCH  24  26
ENDBRANCH   1  24
TORSDOF 4
ENDMDL
MODEL 8
REMARK VINA RESULT:      -4.9      2.122      5.354
REMARK  Name = *****
REMARK                            x       y       z     vdW  Elec       q    Type
REMARK                         _______ _______ _______ _____ _____    ______ ____
ROOT
ATOM      1  N   LIG    1       24.792 -30.211  10.396  0.00  0.00    -0.293 NA
ATOM      2  C   LIG    1       23.363 -30.729  10.309  0.00  0.00    +0.094 C 
ATOM      3  C   LIG    1       24.056 -31.634  11.154  0.00  0.00    +0.096 C 
ATOM      4  C   LIG    1       24.420 -30.228  12.406  0.00  0.00    +0.075 C 
ATOM      5  C   LIG    1       25.540 -28.820  11.892  0.00  0.00    +0.253 C 
ATOM      6  O   LIG    1       25.428 -28.019  13.098  0.00  0.00    -0.476 OA
ATOM      7  C   LIG    1       24.030 -28.107  13.341  0.00  0.00    +0.167 A 
ATOM      8  C   LIG    1       23.257 -27.008  13.651  0.00  0.00    +0.159 A 
ATOM      9  C   LIG    1       21.910 -27.029  13.287  0.00  0.00    +0.049 A 
ATOM     10  C   LIG    1       21.412 -28.080  12.480  0.00  0.00    +0.008 A 
ATOM     11  C   LIG    1       22.236 -29.162  12.157  0.00  0.00    -0.038 A 
ATOM     12  C   LIG    1       26.975 -29.319  10.775  0.00  0.00    +0.174 C 
ATOM     13  O   LIG    1       27.966 -28.589  10.646  0.00  0.00    -0.293 OA
ATOM     14  C   LIG    1       26.944 -31.004   9.902  0.00  0.00    +0.081 C 
ATOM     15  C   LIG    1       23.431 -29.256  12.822  0.00  0.00    +0.014 A 
ATOM     16  C   LIG    1       25.287 -30.956  13.256  0.00  0.00    +0.034 C 
ATOM     17  C   LIG    1       25.491 -32.205   9.995  0.00  0.00    +0.045 C 
ATOM     18  C   LIG    1       22.066 -30.068  10.950  0.00  0.00    +0.057 C 
ATOM     19  C   LIG    1       25.887 -31.016  11.857  0.00  0.00    +0.086 C 
ENDROOT
BRANCH   3  20
ATOM     20  O   LIG    1       23.338 -32.722  11.680  0.00  0.00    -0.386 OA
ATOM     21  H   LIG    1       23.547 -33.502  11.136  0.00  0.00    +0.210 HD
ENDBRANCH   3  20
BRANCH   8  22
ATOM     22  O   LIG    1       23.800 -25.877  14.175  0.00  0.00    -0.503 OA
ATOM     23  H   LIG    1       24.274 -25.445  13.439  0.00  0.00    +0.292 HD
ENDBRANCH   8  22
BRANCH   1  24
ATOM     24  C   LIG    1       25.042 -29.548   9.031  0.00  0.00    +0.111 C 
BRANCH  24  26
ATOM     25  C   LIG    1       24.308 -30.100   6.661  0.00  0.00    +0.005 C 
ATOM     26  C   LIG    1       24.033 -29.908   7.958  0.00  0.00    -0.019 C 
ENDBRANCH  24  26
ENDBRANCH   1  24
TORSDOF 4
ENDMDL
MODEL 9
REMARK VINA RESULT:      -4.8      1.998      4.185
REMARK  Name = *****
REMARK                            x       y       z     vdW  Elec       q    Type
REMARK                         _______ _______ _______ _____ _____    ______ ____
ROOT
ATOM      1  N   LIG    1       24.715 -32.414   9.734  0.00  0.00    -0.293 NA
ATOM      2  C   LIG    1       23.909 -33.067   8.621  0.00  0.00    +0.094 C 
ATOM      3  C   LIG    1       22.959 -32.512   9.516  0.00  0.00    +0.096 C 
ATOM      4  C   LIG    1       23.651 -30.751   9.200  0.00  0.00    +0.075 C 
ATOM      5  C   LIG    1       25.392 -30.346   9.754  0.00  0.00    +0.253 C 
ATOM      6  O   LIG    1       25.463 -28.993   9.231  0.00  0.00    -0.476 OA
ATOM      7  C   LIG    1       24.871 -29.176   7.952  0.00  0.00    +0.167 A 
ATOM      8  C   LIG    1       25.419 -28.661   6.797  0.00  0.00    +0.159 A 
ATOM      9  C   LIG    1       25.182 -29.337   5.599  0.00  0.00    +0.049 A 
ATOM     10  C   LIG    1       24.538 -30.597   5.614  0.00  0.00    +0.008 A 
ATOM     11  C   LIG    1       24.025 -31.104   6.812  0.00  0.00    -0.038 A 
ATOM     12  C   LIG    1       25.915 -31.157  11.374  0.00  0.00    +0.174 C 
ATOM     13  O   LIG    1       26.872 -30.721  12.026  0.00  0.00    -0.293 OA
ATOM     14  C   LIG    1       24.908 -32.610  12.064  0.00  0.00    +0.081 C 
ATOM     15  C   LIG    1       23.982 -30.249   7.882  0.00  0.00    +0.014 A 
ATOM     16  C   LIG    1       22.897 -30.075  10.188  0.00  0.00    +0.034 C 
ATOM     17  C   LIG    1       23.441 -33.388  11.167  0.00  0.00    +0.045 C 
ATOM     18  C   LIG    1       23.785 -32.573   7.114  0.00  0.00    +0.057 C 
ATOM     19  C   LIG    1       23.675 -31.172  10.902  0.00  0.00    +0.086 C 
ENDROOT
BRANCH   3  20
ATOM     20  O   LIG    1       21.596 -32.673   9.210  0.00  0.00    -0.386 OA
ATOM     21  H   LIG    1       21.380 -32.047   8.497  0.00  0.00    +0.210 HD
ENDBRANCH   3  20
BRANCH   8  22
ATOM     22  O   LIG    1       26.275 -27.605   6.821  0.00  0.00    -0.503 OA
ATOM     23  H   LIG    1       26.006 -27.063   7.587  0.00  0.00    +0.292 HD
ENDBRANCH   8  22
BRANCH   1  24
ATOM     24  C   LIG    1       25.980 -33.280   9.851  0.00  0.00    +0.111 C 
BRANCH  24  26
ATOM     25  C   LIG    1       27.397 -32.677   7.828  0.00  0.00    +0.005 C 
ATOM     26  C   LIG    1       26.678 -33.560   8.534  0.00  0.00    -0.019 C 
ENDBRANCH  24  26
ENDBRANCH   1  24
TORSDOF 4
ENDMDL
