MODEL 1
REMARK VINA RESULT:      14.2      0.000      0.000
REMARK  Name = *****
REMARK                            x       y       z     vdW  Elec       q    Type
REMARK                         _______ _______ _______ _____ _____    ______ ____
ROOT
ATOM      1  C   LIG    1       26.163 -19.110   3.597  0.00  0.00    +0.165 C 
ENDROOT
BRANCH   1   3
ATOM      2  C   LIG    1       27.064 -16.867   2.941  0.00  0.00    +0.219 C 
ATOM      3  N   LIG    1       26.363 -17.661   3.818  0.00  0.00    -0.303 N 
ATOM      4  H   LIG    1       25.756 -17.214   4.497  0.00  0.00    +0.149 HD
ATOM      5  O   LIG    1       27.491 -17.299   1.869  0.00  0.00    -0.275 OA
BRANCH   2   6
ATOM      6  C   LIG    1       27.297 -15.415   3.353  0.00  0.00    +0.100 C 
BRANCH   6   7
ATOM      7  C   LIG    1       27.081 -14.375   2.223  0.00  0.00    +0.049 C 
BRANCH   7   8
ATOM      8  C   LIG    1       25.824 -13.540   2.148  0.00  0.00    -0.047 A 
ATOM      9  C   LIG    1       24.591 -14.192   2.042  0.00  0.00    +0.003 A 
ATOM     10  C   LIG    1       23.384 -13.496   2.124  0.00  0.00    +0.000 A 
ATOM     11  C   LIG    1       23.387 -12.118   2.293  0.00  0.00    +0.000 A 
ATOM     12  C   LIG    1       24.603 -11.449   2.435  0.00  0.00    +0.000 A 
ATOM     13  C   LIG    1       25.815 -12.156   2.372  0.00  0.00    +0.003 A 
ENDBRANCH   7   8
ENDBRANCH   6   7
BRANCH   6  14
ATOM     14  C   LIG    1       26.271 -15.066   4.476  0.00  0.00    +0.179 C 
BRANCH  14  15
ATOM     15  S   LIG    1       26.739 -13.610   5.401  0.00  0.00    -0.025 S 
ATOM     16  O   LIG    1       25.713 -12.568   5.161  0.00  0.00    -0.174 OA
ATOM     17  O   LIG    1       27.035 -14.097   6.710  0.00  0.00    -0.174 OA
BRANCH  15  19
ATOM     18  C   LIG    1       28.014 -11.877   3.708  0.00  0.00    +0.035 C 
ATOM     19  C   LIG    1       28.301 -12.950   4.783  0.00  0.00    +0.080 C 
ATOM     20  C   LIG    1       29.040 -12.300   5.954  0.00  0.00    +0.035 C 
ATOM     21  C   LIG    1       29.120 -14.056   4.128  0.00  0.00    +0.035 C 
ENDBRANCH  15  19
ENDBRANCH  14  15
ENDBRANCH   6  14
ENDBRANCH   2   6
ENDBRANCH   1   3
BRANCH   1  22
ATOM     22  C   LIG    1       24.648 -19.465   3.833  0.00  0.00    +0.234 C 
ATOM     23  N   LIG    1       24.164 -19.071   5.090  0.00  0.00    -0.308 N 
ATOM     24  H   LIG    1       24.603 -18.241   5.485  0.00  0.00    +0.149 HD
ATOM     25  O   LIG    1       24.000 -20.153   3.051  0.00  0.00    -0.274 OA
BRANCH  23  26
ATOM     26  C   LIG    1       22.785 -19.327   5.597  0.00  0.00    +0.104 C 
BRANCH  26  27
ATOM     27  C   LIG    1       21.911 -20.070   4.500  0.00  0.00    +0.163 C 
BRANCH  27  28
ATOM     28  O   LIG    1       21.901 -21.483   4.750  0.00  0.00    -0.387 OA
ATOM     29  H   LIG    1       22.362 -21.927   4.019  0.00  0.00    +0.210 HD
ENDBRANCH  27  28
BRANCH  27  30
ATOM     30  C   LIG    1       20.483 -19.530   4.169  0.00  0.00    +0.148 C 
BRANCH  30  31
ATOM     31  C   LIG    1       20.242 -19.015   2.771  0.00  0.00    +0.020 C 
ATOM     32  C   LIG    1       19.354 -17.805   2.521  0.00  0.00    +0.006 C 
ATOM     33  C   LIG    1       20.816 -17.742   2.192  0.00  0.00    +0.006 C 
ENDBRANCH  30  31
BRANCH  30  34
ATOM     34  O   LIG    1       19.528 -20.566   4.420  0.00  0.00    -0.389 OA
ATOM     35  H   LIG    1       19.931 -21.393   4.098  0.00  0.00    +0.210 HD
ENDBRANCH  30  34
ENDBRANCH  27  30
ENDBRANCH  26  27
BRANCH  26  36
ATOM     36  C   LIG    1       22.047 -18.061   6.203  0.00  0.00    +0.028 C 
BRANCH  36  37
ATOM     37  C   LIG    1       21.473 -16.972   5.223  0.00  0.00    -0.009 C 
ATOM     38  C   LIG    1       20.916 -15.746   5.915  0.00  0.00    +0.003 C 
ATOM     39  C   LIG    1       22.032 -15.053   6.669  0.00  0.00    +0.000 C 
ATOM     40  C   LIG    1       23.069 -14.434   5.738  0.00  0.00    +0.000 C 
ATOM     41  C   LIG    1       23.593 -15.494   4.772  0.00  0.00    +0.000 C 
ATOM     42  C   LIG    1       22.486 -16.392   4.187  0.00  0.00    +0.003 C 
ENDBRANCH  36  37
ENDBRANCH  26  36
ENDBRANCH  23  26
ENDBRANCH   1  22
BRANCH   1  43
ATOM     43  C   LIG    1       27.171 -19.959   4.439  0.00  0.00    +0.086 C 
BRANCH  43  44
ATOM     44  C   LIG    1       28.135 -19.150   5.291  0.00  0.00    +0.037 A 
ATOM     45  N   LIG    1       28.663 -19.618   6.472  0.00  0.00    -0.348 N 
ATOM     46  H   LIG    1       28.678 -20.588   6.767  0.00  0.00    +0.167 HD
ATOM     47  C   LIG    1       29.390 -18.629   7.059  0.00  0.00    +0.196 A 
ATOM     48  N   LIG    1       29.470 -17.580   6.278  0.00  0.00    -0.244 NA
ATOM     49  C   LIG    1       28.696 -17.890   5.179  0.00  0.00    +0.133 A 
ENDBRANCH  43  44
ENDBRANCH   1  43
TORSDOF 18
ENDMDL
MODEL 2
REMARK VINA RESULT:      14.4      2.125      4.922
REMARK  Name = *****
REMARK                            x       y       z     vdW  Elec       q    Type
REMARK                         _______ _______ _______ _____ _____    ______ ____
ROOT
ATOM      1  C   LIG    1       24.624 -16.947   4.421  0.00  0.00    +0.165 C 
ENDROOT
BRANCH   1   3
ATOM      2  C   LIG    1       24.817 -15.031   2.819  0.00  0.00    +0.219 C 
ATOM      3  N   LIG    1       25.405 -15.948   3.658  0.00  0.00    -0.303 N 
ATOM      4  H   LIG    1       26.360 -15.786   3.961  0.00  0.00    +0.149 HD
ATOM      5  O   LIG    1       23.594 -14.927   2.722  0.00  0.00    -0.275 OA
BRANCH   2   6
ATOM      6  C   LIG    1       25.751 -14.141   2.001  0.00  0.00    +0.100 C 
BRANCH   6   7
ATOM      7  C   LIG    1       25.616 -12.622   2.286  0.00  0.00    +0.049 C 
BRANCH   7   8
ATOM      8  C   LIG    1       24.838 -12.108   3.475  0.00  0.00    -0.047 A 
ATOM      9  C   LIG    1       23.443 -12.058   3.392  0.00  0.00    +0.003 A 
ATOM     10  C   LIG    1       22.654 -11.743   4.500  0.00  0.00    +0.000 A 
ATOM     11  C   LIG    1       23.251 -11.447   5.717  0.00  0.00    +0.000 A 
ATOM     12  C   LIG    1       24.639 -11.523   5.834  0.00  0.00    +0.000 A 
ATOM     13  C   LIG    1       25.428 -11.860   4.722  0.00  0.00    +0.003 A 
ENDBRANCH   7   8
ENDBRANCH   6   7
BRANCH   6  14
ATOM     14  C   LIG    1       27.218 -14.528   2.361  0.00  0.00    +0.179 C 
BRANCH  14  15
ATOM     15  S   LIG    1       28.022 -13.294   3.375  0.00  0.00    -0.025 S 
ATOM     16  O   LIG    1       29.474 -13.340   3.084  0.00  0.00    -0.174 OA
ATOM     17  O   LIG    1       27.246 -12.112   3.182  0.00  0.00    -0.174 OA
BRANCH  15  19
ATOM     18  C   LIG    1       28.614 -12.673   5.975  0.00  0.00    +0.035 C 
ATOM     19  C   LIG    1       27.830 -13.699   5.124  0.00  0.00    +0.080 C 
ATOM     20  C   LIG    1       26.344 -13.607   5.474  0.00  0.00    +0.035 C 
ATOM     21  C   LIG    1       28.406 -15.080   5.414  0.00  0.00    +0.035 C 
ENDBRANCH  15  19
ENDBRANCH  14  15
ENDBRANCH   6  14
ENDBRANCH   2   6
ENDBRANCH   1   3
BRANCH   1  22
ATOM     22  C   LIG    1       25.290 -18.363   4.253  0.00  0.00    +0.234 C 
ATOM     23  N   LIG    1       25.673 -18.956   5.466  0.00  0.00    -0.308 N 
ATOM     24  H   LIG    1       25.101 -18.710   6.271  0.00  0.00    +0.149 HD
ATOM     25  O   LIG    1       25.580 -18.831   3.156  0.00  0.00    -0.274 OA
BRANCH  23  26
ATOM     26  C   LIG    1       26.372 -20.267   5.596  0.00  0.00    +0.104 C 
BRANCH  26  27
ATOM     27  C   LIG    1       25.329 -21.463   5.587  0.00  0.00    +0.163 C 
BRANCH  27  28
ATOM     28  O   LIG    1       24.689 -21.570   6.867  0.00  0.00    -0.387 OA
ATOM     29  H   LIG    1       24.093 -20.810   6.976  0.00  0.00    +0.210 HD
ENDBRANCH  27  28
BRANCH  27  30
ATOM     30  C   LIG    1       24.302 -21.571   4.414  0.00  0.00    +0.148 C 
BRANCH  30  31
ATOM     31  C   LIG    1       22.890 -21.113   4.683  0.00  0.00    +0.020 C 
ATOM     32  C   LIG    1       22.554 -20.279   5.911  0.00  0.00    +0.006 C 
ATOM     33  C   LIG    1       22.383 -19.695   4.540  0.00  0.00    +0.006 C 
ENDBRANCH  30  31
BRANCH  30  34
ATOM     34  O   LIG    1       24.795 -20.822   3.299  0.00  0.00    -0.389 OA
ATOM     35  H   LIG    1       24.012 -20.480   2.830  0.00  0.00    +0.210 HD
ENDBRANCH  30  34
ENDBRANCH  27  30
ENDBRANCH  26  27
BRANCH  26  36
ATOM     36  C   LIG    1       27.396 -20.364   6.803  0.00  0.00    +0.028 C 
BRANCH  36  37
ATOM     37  C   LIG    1       28.915 -20.049   6.541  0.00  0.00    -0.009 C 
ATOM     38  C   LIG    1       29.306 -20.054   5.078  0.00  0.00    +0.003 C 
ATOM     39  C   LIG    1       28.544 -18.961   4.358  0.00  0.00    +0.000 C 
ATOM     40  C   LIG    1       28.981 -17.565   4.788  0.00  0.00    +0.000 C 
ATOM     41  C   LIG    1       28.883 -17.438   6.307  0.00  0.00    +0.000 C 
ATOM     42  C   LIG    1       29.420 -18.668   7.061  0.00  0.00    +0.003 C 
ENDBRANCH  36  37
ENDBRANCH  26  36
ENDBRANCH  23  26
ENDBRANCH   1  22
BRANCH   1  43
ATOM     43  C   LIG    1       23.107 -16.890   4.047  0.00  0.00    +0.086 C 
BRANCH  43  44
ATOM     44  C   LIG    1       22.231 -16.129   5.029  0.00  0.00    +0.037 A 
ATOM     45  N   LIG    1       22.686 -15.058   5.762  0.00  0.00    -0.348 N 
ATOM     46  H   LIG    1       23.521 -14.520   5.563  0.00  0.00    +0.167 HD
ATOM     47  C   LIG    1       21.715 -14.668   6.632  0.00  0.00    +0.196 A 
ATOM     48  N   LIG    1       20.608 -15.341   6.431  0.00  0.00    -0.244 NA
ATOM     49  C   LIG    1       20.915 -16.250   5.441  0.00  0.00    +0.133 A 
ENDBRANCH  43  44
ENDBRANCH   1  43
TORSDOF 18
ENDMDL
