MODEL 1
REMARK VINA RESULT:      -7.4      0.000      0.000
REMARK  Name = *****
REMARK                            x       y       z     vdW  Elec       q    Type
REMARK                         _______ _______ _______ _____ _____    ______ ____
ROOT
ATOM      1  N   LIG    1       26.012 -19.744   4.867  0.00  0.00    -0.344 NA
ATOM      2  C   LIG    1       26.872 -20.224   5.891  0.00  0.00    +0.090 C 
ATOM      3  C   LIG    1       26.355 -21.130   6.838  0.00  0.00    +0.052 C 
ATOM      4  C   LIG    1       27.149 -21.665   7.851  0.00  0.00    +0.054 C 
ATOM      5  C   LIG    1       28.484 -21.295   7.955  0.00  0.00    +0.148 C 
ATOM      6  C   LIG    1       29.088 -20.371   7.081  0.00  0.00    +0.103 C 
ATOM      7  F   LIG    1       29.163 -21.853   8.967  0.00  0.00    -0.203 F 
ATOM      8  C   LIG    1       24.943 -21.570   6.759  0.00  0.00    +0.203 C 
ATOM      9  O   LIG    1       24.482 -22.406   7.535  0.00  0.00    -0.286 OA
ATOM     10  C   LIG    1       24.096 -21.008   5.698  0.00  0.00    +0.122 C 
ATOM     11  C   LIG    1       28.238 -19.871   6.050  0.00  0.00    +0.171 C 
ATOM     12  F   LIG    1       28.785 -19.048   5.143  0.00  0.00    -0.201 F 
ATOM     13  C   LIG    1       24.686 -20.165   4.843  0.00  0.00    +0.105 C 
ENDROOT
BRANCH   6  14
ATOM     14  N   LIG    1       30.444 -19.998   7.160  0.00  0.00    -0.323 NA
ATOM     15  C   LIG    1       30.797 -18.558   7.205  0.00  0.00    +0.123 C 
ATOM     16  C   LIG    1       30.932 -18.039   8.666  0.00  0.00    +0.068 C 
ATOM     17  C   LIG    1       29.569 -17.855   9.339  0.00  0.00    +0.025 C 
ATOM     18  N   LIG    1       31.842 -18.858   9.507  0.00  0.00    -0.310 NA
ATOM     19  H   LIG    1       32.787 -18.736   9.141  0.00  0.00    +0.122 HD
ATOM     20  C   LIG    1       31.509 -20.297   9.397  0.00  0.00    +0.100 C 
ATOM     21  C   LIG    1       31.414 -20.802   7.938  0.00  0.00    +0.120 C 
ENDBRANCH   6  14
BRANCH   1  23
ATOM     22  C   LIG    1       25.512 -17.858   3.342  0.00  0.00    +0.027 C 
ATOM     23  C   LIG    1       26.529 -18.911   3.761  0.00  0.00    +0.118 C 
ENDBRANCH   1  23
BRANCH  10  24
ATOM     24  C   LIG    1       22.675 -21.361   5.505  0.00  0.00    +0.342 C 
ATOM     25  O   LIG    1       21.858 -20.607   5.011  0.00  0.00    -0.245 OA
BRANCH  24  26
ATOM     26  O   LIG    1       22.363 -22.621   5.886  0.00  0.00    -0.477 OA
ATOM     27  H   LIG    1       21.623 -22.671   6.537  0.00  0.00    +0.295 HD
ENDBRANCH  24  26
ENDBRANCH  10  24
TORSDOF 4
ENDMDL
MODEL 2
REMARK VINA RESULT:      -7.4      3.550      6.603
REMARK  Name = *****
REMARK                            x       y       z     vdW  Elec       q    Type
REMARK                         _______ _______ _______ _____ _____    ______ ____
ROOT
ATOM      1  N   LIG    1       28.730 -19.150   5.791  0.00  0.00    -0.344 NA
ATOM      2  C   LIG    1       27.919 -20.184   6.329  0.00  0.00    +0.090 C 
ATOM      3  C   LIG    1       28.312 -20.792   7.538  0.00  0.00    +0.052 C 
ATOM      4  C   LIG    1       27.548 -21.792   8.138  0.00  0.00    +0.054 C 
ATOM      5  C   LIG    1       26.373 -22.223   7.535  0.00  0.00    +0.148 C 
ATOM      6  C   LIG    1       25.910 -21.705   6.310  0.00  0.00    +0.103 C 
ATOM      7  F   LIG    1       25.713 -23.195   8.182  0.00  0.00    -0.203 F 
ATOM      8  C   LIG    1       29.546 -20.355   8.229  0.00  0.00    +0.203 C 
ATOM      9  O   LIG    1       29.881 -20.825   9.315  0.00  0.00    -0.286 OA
ATOM     10  C   LIG    1       30.361 -19.306   7.602  0.00  0.00    +0.122 C 
ATOM     11  C   LIG    1       26.717 -20.670   5.751  0.00  0.00    +0.171 C 
ATOM     12  F   LIG    1       26.280 -20.087   4.624  0.00  0.00    -0.201 F 
ATOM     13  C   LIG    1       29.895 -18.785   6.460  0.00  0.00    +0.105 C 
ENDROOT
BRANCH   6  14
ATOM     14  N   LIG    1       24.712 -22.118   5.695  0.00  0.00    -0.323 NA
ATOM     15  C   LIG    1       24.755 -23.202   4.684  0.00  0.00    +0.123 C 
ATOM     16  C   LIG    1       24.499 -24.599   5.319  0.00  0.00    +0.068 C 
ATOM     17  C   LIG    1       25.714 -25.108   6.100  0.00  0.00    +0.025 C 
ATOM     18  N   LIG    1       23.265 -24.660   6.143  0.00  0.00    -0.310 NA
ATOM     19  H   LIG    1       22.470 -24.556   5.511  0.00  0.00    +0.122 HD
ATOM     20  C   LIG    1       23.215 -23.533   7.103  0.00  0.00    +0.100 C 
ATOM     21  C   LIG    1       23.438 -22.150   6.447  0.00  0.00    +0.120 C 
ENDBRANCH   6  14
BRANCH   1  23
ATOM     22  C   LIG    1       28.475 -16.877   4.841  0.00  0.00    +0.027 C 
ATOM     23  C   LIG    1       28.299 -18.373   4.611  0.00  0.00    +0.118 C 
ENDBRANCH   1  23
BRANCH  10  24
ATOM     24  C   LIG    1       31.612 -18.776   8.183  0.00  0.00    +0.342 C 
ATOM     25  O   LIG    1       32.025 -17.651   7.973  0.00  0.00    -0.245 OA
BRANCH  24  26
ATOM     26  O   LIG    1       32.242 -19.638   9.012  0.00  0.00    -0.477 OA
ATOM     27  H   LIG    1       33.104 -19.972   8.664  0.00  0.00    +0.295 HD
ENDBRANCH  24  26
ENDBRANCH  10  24
TORSDOF 4
ENDMDL
MODEL 3
REMARK VINA RESULT:      -7.3      1.420      1.694
REMARK  Name = *****
REMARK                            x       y       z     vdW  Elec       q    Type
REMARK                         _______ _______ _______ _____ _____    ______ ____
ROOT
ATOM      1  N   LIG    1       25.352 -20.890   5.318  0.00  0.00    -0.344 NA
ATOM      2  C   LIG    1       26.537 -20.916   6.102  0.00  0.00    +0.090 C 
ATOM      3  C   LIG    1       26.708 -21.959   7.033  0.00  0.00    +0.052 C 
ATOM      4  C   LIG    1       27.859 -22.064   7.813  0.00  0.00    +0.054 C 
ATOM      5  C   LIG    1       28.868 -21.117   7.692  0.00  0.00    +0.148 C 
ATOM      6  C   LIG    1       28.780 -20.018   6.816  0.00  0.00    +0.103 C 
ATOM      7  F   LIG    1       29.930 -21.298   8.491  0.00  0.00    -0.203 F 
ATOM      8  C   LIG    1       25.670 -23.004   7.186  0.00  0.00    +0.203 C 
ATOM      9  O   LIG    1       25.819 -23.958   7.947  0.00  0.00    -0.286 OA
ATOM     10  C   LIG    1       24.450 -22.899   6.373  0.00  0.00    +0.122 C 
ATOM     11  C   LIG    1       27.593 -19.971   6.027  0.00  0.00    +0.171 C 
ATOM     12  F   LIG    1       27.494 -18.987   5.119  0.00  0.00    -0.201 F 
ATOM     13  C   LIG    1       24.391 -21.877   5.509  0.00  0.00    +0.105 C 
ENDROOT
BRANCH   6  14
ATOM     14  N   LIG    1       29.801 -19.060   6.668  0.00  0.00    -0.323 NA
ATOM     15  C   LIG    1       29.656 -17.740   7.330  0.00  0.00    +0.123 C 
ATOM     16  C   LIG    1       30.322 -17.719   8.736  0.00  0.00    +0.068 C 
ATOM     17  C   LIG    1       29.492 -18.474   9.778  0.00  0.00    +0.025 C 
ATOM     18  N   LIG    1       31.733 -18.183   8.732  0.00  0.00    -0.310 NA
ATOM     19  H   LIG    1       32.280 -17.492   8.218  0.00  0.00    +0.122 HD
ATOM     20  C   LIG    1       31.862 -19.472   8.012  0.00  0.00    +0.100 C 
ATOM     21  C   LIG    1       31.224 -19.462   6.604  0.00  0.00    +0.120 C 
ENDBRANCH   6  14
BRANCH   1  23
ATOM     22  C   LIG    1       23.717 -19.519   4.062  0.00  0.00    +0.027 C 
ATOM     23  C   LIG    1       25.179 -19.912   4.223  0.00  0.00    +0.118 C 
ENDBRANCH   1  23
BRANCH  10  24
ATOM     24  C   LIG    1       23.339 -23.871   6.425  0.00  0.00    +0.342 C 
ATOM     25  O   LIG    1       22.212 -23.581   6.780  0.00  0.00    -0.245 OA
BRANCH  24  26
ATOM     26  O   LIG    1       23.671 -25.110   5.998  0.00  0.00    -0.477 OA
ATOM     27  H   LIG    1       23.404 -25.298   5.067  0.00  0.00    +0.295 HD
ENDBRANCH  24  26
ENDBRANCH  10  24
TORSDOF 4
ENDMDL
MODEL 4
REMARK VINA RESULT:      -7.3      1.574      3.019
REMARK  Name = *****
REMARK                            x       y       z     vdW  Elec       q    Type
REMARK                         _______ _______ _______ _____ _____    ______ ____
ROOT
ATOM      1  N   LIG    1       26.250 -21.835   6.667  0.00  0.00    -0.344 NA
ATOM      2  C   LIG    1       27.311 -20.929   6.398  0.00  0.00    +0.090 C 
ATOM      3  C   LIG    1       27.112 -19.921   5.434  0.00  0.00    +0.052 C 
ATOM      4  C   LIG    1       28.098 -18.981   5.141  0.00  0.00    +0.054 C 
ATOM      5  C   LIG    1       29.322 -19.032   5.797  0.00  0.00    +0.148 C 
ATOM      6  C   LIG    1       29.634 -20.019   6.752  0.00  0.00    +0.103 C 
ATOM      7  F   LIG    1       30.209 -18.092   5.440  0.00  0.00    -0.203 F 
ATOM      8  C   LIG    1       25.818 -19.813   4.721  0.00  0.00    +0.203 C 
ATOM      9  O   LIG    1       25.595 -18.908   3.920  0.00  0.00    -0.286 OA
ATOM     10  C   LIG    1       24.774 -20.803   5.018  0.00  0.00    +0.122 C 
ATOM     11  C   LIG    1       28.583 -20.942   7.029  0.00  0.00    +0.171 C 
ATOM     12  F   LIG    1       28.800 -21.856   7.988  0.00  0.00    -0.201 F 
ATOM     13  C   LIG    1       25.059 -21.712   5.959  0.00  0.00    +0.105 C 
ENDROOT
BRANCH   6  14
ATOM     14  N   LIG    1       30.862 -20.074   7.439  0.00  0.00    -0.323 NA
ATOM     15  C   LIG    1       31.706 -18.857   7.511  0.00  0.00    +0.123 C 
ATOM     16  C   LIG    1       31.424 -18.030   8.799  0.00  0.00    +0.068 C 
ATOM     17  C   LIG    1       30.103 -17.262   8.711  0.00  0.00    +0.025 C 
ATOM     18  N   LIG    1       31.500 -18.830  10.047  0.00  0.00    -0.310 NA
ATOM     19  H   LIG    1       32.474 -19.109  10.172  0.00  0.00    +0.122 HD
ATOM     20  C   LIG    1       30.699 -20.071   9.928  0.00  0.00    +0.100 C 
ATOM     21  C   LIG    1       31.019 -20.896   8.660  0.00  0.00    +0.120 C 
ENDBRANCH   6  14
BRANCH   1  23
ATOM     22  C   LIG    1       25.822 -24.181   7.333  0.00  0.00    +0.027 C 
ATOM     23  C   LIG    1       26.342 -22.817   7.767  0.00  0.00    +0.118 C 
ENDBRANCH   1  23
BRANCH  10  24
ATOM     24  C   LIG    1       23.440 -20.810   4.382  0.00  0.00    +0.342 C 
ATOM     25  O   LIG    1       22.511 -20.126   4.768  0.00  0.00    -0.245 OA
BRANCH  24  26
ATOM     26  O   LIG    1       23.351 -21.614   3.299  0.00  0.00    -0.477 OA
ATOM     27  H   LIG    1       23.517 -21.152   2.442  0.00  0.00    +0.295 HD
ENDBRANCH  24  26
ENDBRANCH  10  24
TORSDOF 4
ENDMDL
MODEL 5
REMARK VINA RESULT:      -7.0      3.382      6.488
REMARK  Name = *****
REMARK                            x       y       z     vdW  Elec       q    Type
REMARK                         _______ _______ _______ _____ _____    ______ ____
ROOT
ATOM      1  N   LIG    1       28.820 -19.048   5.750  0.00  0.00    -0.344 NA
ATOM      2  C   LIG    1       28.033 -20.151   6.178  0.00  0.00    +0.090 C 
ATOM      3  C   LIG    1       28.428 -20.854   7.334  0.00  0.00    +0.052 C 
ATOM      4  C   LIG    1       27.687 -21.926   7.828  0.00  0.00    +0.054 C 
ATOM      5  C   LIG    1       26.535 -22.337   7.169  0.00  0.00    +0.148 C 
ATOM      6  C   LIG    1       26.074 -21.724   5.987  0.00  0.00    +0.103 C 
ATOM      7  F   LIG    1       25.897 -23.382   7.714  0.00  0.00    -0.203 F 
ATOM      8  C   LIG    1       29.637 -20.444   8.083  0.00  0.00    +0.203 C 
ATOM      9  O   LIG    1       29.970 -21.000   9.128  0.00  0.00    -0.286 OA
ATOM     10  C   LIG    1       30.428 -19.318   7.567  0.00  0.00    +0.122 C 
ATOM     11  C   LIG    1       26.856 -20.619   5.538  0.00  0.00    +0.171 C 
ATOM     12  F   LIG    1       26.418 -19.950   4.460  0.00  0.00    -0.201 F 
ATOM     13  C   LIG    1       29.962 -18.710   6.469  0.00  0.00    +0.105 C 
ENDROOT
BRANCH   6  14
ATOM     14  N   LIG    1       24.899 -22.115   5.317  0.00  0.00    -0.323 NA
ATOM     15  C   LIG    1       23.771 -22.673   6.101  0.00  0.00    +0.123 C 
ATOM     16  C   LIG    1       22.749 -21.574   6.513  0.00  0.00    +0.068 C 
ATOM     17  C   LIG    1       23.275 -20.700   7.655  0.00  0.00    +0.025 C 
ATOM     18  N   LIG    1       22.276 -20.746   5.376  0.00  0.00    -0.310 NA
ATOM     19  H   LIG    1       21.718 -21.349   4.770  0.00  0.00    +0.122 HD
ATOM     20  C   LIG    1       23.418 -20.250   4.572  0.00  0.00    +0.100 C 
ATOM     21  C   LIG    1       24.402 -21.363   4.143  0.00  0.00    +0.120 C 
ENDBRANCH   6  14
BRANCH   1  23
ATOM     22  C   LIG    1       28.525 -16.708   4.996  0.00  0.00    +0.027 C 
ATOM     23  C   LIG    1       28.381 -18.181   4.636  0.00  0.00    +0.118 C 
ENDBRANCH   1  23
BRANCH  10  24
ATOM     24  C   LIG    1       31.653 -18.806   8.215  0.00  0.00    +0.342 C 
ATOM     25  O   LIG    1       32.112 -17.700   8.000  0.00  0.00    -0.245 OA
BRANCH  24  26
ATOM     26  O   LIG    1       32.200 -19.659   9.110  0.00  0.00    -0.477 OA
ATOM     27  H   LIG    1       32.914 -20.230   8.736  0.00  0.00    +0.295 HD
ENDBRANCH  24  26
ENDBRANCH  10  24
TORSDOF 4
ENDMDL
MODEL 6
REMARK VINA RESULT:      -6.5      3.567      7.090
REMARK  Name = *****
REMARK                            x       y       z     vdW  Elec       q    Type
REMARK                         _______ _______ _______ _____ _____    ______ ____
ROOT
ATOM      1  N   LIG    1       27.841 -21.399   7.287  0.00  0.00    -0.344 NA
ATOM      2  C   LIG    1       27.407 -20.531   6.250  0.00  0.00    +0.090 C 
ATOM      3  C   LIG    1       28.228 -19.444   5.890  0.00  0.00    +0.052 C 
ATOM      4  C   LIG    1       27.879 -18.570   4.862  0.00  0.00    +0.054 C 
ATOM      5  C   LIG    1       26.687 -18.752   4.171  0.00  0.00    +0.148 C 
ATOM      6  C   LIG    1       25.781 -19.786   4.475  0.00  0.00    +0.103 C 
ATOM      7  F   LIG    1       26.434 -17.855   3.207  0.00  0.00    -0.203 F 
ATOM      8  C   LIG    1       29.517 -19.219   6.583  0.00  0.00    +0.203 C 
ATOM      9  O   LIG    1       30.282 -18.315   6.250  0.00  0.00    -0.286 OA
ATOM     10  C   LIG    1       29.891 -20.131   7.673  0.00  0.00    +0.122 C 
ATOM     11  C   LIG    1       26.197 -20.663   5.520  0.00  0.00    +0.171 C 
ATOM     12  F   LIG    1       25.406 -21.712   5.797  0.00  0.00    -0.201 F 
ATOM     13  C   LIG    1       29.048 -21.139   7.928  0.00  0.00    +0.105 C 
ENDROOT
BRANCH   6  14
ATOM     14  N   LIG    1       24.578 -19.995   3.774  0.00  0.00    -0.323 NA
ATOM     15  C   LIG    1       23.685 -21.106   4.185  0.00  0.00    +0.123 C 
ATOM     16  C   LIG    1       22.602 -20.635   5.199  0.00  0.00    +0.068 C 
ATOM     17  C   LIG    1       23.182 -20.416   6.599  0.00  0.00    +0.025 C 
ATOM     18  N   LIG    1       21.835 -19.449   4.743  0.00  0.00    -0.310 NA
ATOM     19  H   LIG    1       21.275 -19.739   3.940  0.00  0.00    +0.122 HD
ATOM     20  C   LIG    1       22.747 -18.377   4.280  0.00  0.00    +0.100 C 
ATOM     21  C   LIG    1       23.792 -18.856   3.246  0.00  0.00    +0.120 C 
ENDBRANCH   6  14
BRANCH   1  23
ATOM     22  C   LIG    1       25.992 -22.369   8.617  0.00  0.00    +0.027 C 
ATOM     23  C   LIG    1       27.101 -22.637   7.609  0.00  0.00    +0.118 C 
ENDBRANCH   1  23
BRANCH  10  24
ATOM     24  C   LIG    1       31.147 -20.021   8.444  0.00  0.00    +0.342 C 
ATOM     25  O   LIG    1       31.753 -20.984   8.877  0.00  0.00    -0.245 OA
BRANCH  24  26
ATOM     26  O   LIG    1       31.594 -18.754   8.592  0.00  0.00    -0.477 OA
ATOM     27  H   LIG    1       31.121 -18.094   8.030  0.00  0.00    +0.295 HD
ENDBRANCH  24  26
ENDBRANCH  10  24
TORSDOF 4
ENDMDL
MODEL 7
REMARK VINA RESULT:      -6.0      9.380     11.175
REMARK  Name = *****
REMARK                            x       y       z     vdW  Elec       q    Type
REMARK                         _______ _______ _______ _____ _____    ______ ____
ROOT
ATOM      1  N   LIG    1       24.108 -26.656  13.942  0.00  0.00    -0.344 NA
ATOM      2  C   LIG    1       24.919 -27.318  12.981  0.00  0.00    +0.090 C 
ATOM      3  C   LIG    1       26.185 -26.780  12.680  0.00  0.00    +0.052 C 
ATOM      4  C   LIG    1       27.045 -27.394  11.770  0.00  0.00    +0.054 C 
ATOM      5  C   LIG    1       26.653 -28.559  11.123  0.00  0.00    +0.148 C 
ATOM      6  C   LIG    1       25.395 -29.158  11.328  0.00  0.00    +0.103 C 
ATOM      7  F   LIG    1       27.542 -29.069  10.259  0.00  0.00    -0.203 F 
ATOM      8  C   LIG    1       26.657 -25.550  13.357  0.00  0.00    +0.203 C 
ATOM      9  O   LIG    1       27.781 -25.093  13.158  0.00  0.00    -0.286 OA
ATOM     10  C   LIG    1       25.756 -24.892  14.313  0.00  0.00    +0.122 C 
ATOM     11  C   LIG    1       24.564 -28.502  12.284  0.00  0.00    +0.171 C 
ATOM     12  F   LIG    1       23.386 -29.075  12.575  0.00  0.00    -0.201 F 
ATOM     13  C   LIG    1       24.579 -25.490  14.538  0.00  0.00    +0.105 C 
ENDROOT
BRANCH   6  14
ATOM     14  N   LIG    1       24.989 -30.348  10.694  0.00  0.00    -0.323 NA
ATOM     15  C   LIG    1       24.024 -30.277   9.570  0.00  0.00    +0.123 C 
ATOM     16  C   LIG    1       24.741 -30.201   8.192  0.00  0.00    +0.068 C 
ATOM     17  C   LIG    1       25.341 -28.817   7.930  0.00  0.00    +0.025 C 
ATOM     18  N   LIG    1       25.749 -31.272   7.987  0.00  0.00    -0.310 NA
ATOM     19  H   LIG    1       25.245 -32.158   7.926  0.00  0.00    +0.122 HD
ATOM     20  C   LIG    1       26.664 -31.366   9.149  0.00  0.00    +0.100 C 
ATOM     21  C   LIG    1       25.931 -31.475  10.506  0.00  0.00    +0.120 C 
ENDBRANCH   6  14
BRANCH   1  23
ATOM     22  C   LIG    1       21.643 -26.610  13.713  0.00  0.00    +0.027 C 
ATOM     23  C   LIG    1       22.838 -27.247  14.411  0.00  0.00    +0.118 C 
ENDBRANCH   1  23
BRANCH  10  24
ATOM     24  C   LIG    1       26.100 -23.664  15.058  0.00  0.00    +0.342 C 
ATOM     25  O   LIG    1       25.273 -22.851  15.428  0.00  0.00    -0.245 OA
BRANCH  24  26
ATOM     26  O   LIG    1       27.418 -23.538  15.335  0.00  0.00    -0.477 OA
ATOM     27  H   LIG    1       27.667 -22.658  15.704  0.00  0.00    +0.295 HD
ENDBRANCH  24  26
ENDBRANCH  10  24
TORSDOF 4
ENDMDL
MODEL 8
REMARK VINA RESULT:      -5.6      3.460      7.163
REMARK  Name = *****
REMARK                            x       y       z     vdW  Elec       q    Type
REMARK                         _______ _______ _______ _____ _____    ______ ____
ROOT
ATOM      1  N   LIG    1       29.460 -20.862   8.353  0.00  0.00    -0.344 NA
ATOM      2  C   LIG    1       28.456 -20.694   7.362  0.00  0.00    +0.090 C 
ATOM      3  C   LIG    1       28.500 -19.550   6.542  0.00  0.00    +0.052 C 
ATOM      4  C   LIG    1       27.565 -19.336   5.530  0.00  0.00    +0.054 C 
ATOM      5  C   LIG    1       26.547 -20.258   5.320  0.00  0.00    +0.148 C 
ATOM      6  C   LIG    1       26.394 -21.416   6.106  0.00  0.00    +0.103 C 
ATOM      7  F   LIG    1       25.692 -19.960   4.332  0.00  0.00    -0.203 F 
ATOM      8  C   LIG    1       29.576 -18.547   6.714  0.00  0.00    +0.203 C 
ATOM      9  O   LIG    1       29.675 -17.570   5.974  0.00  0.00    -0.286 OA
ATOM     10  C   LIG    1       30.563 -18.760   7.782  0.00  0.00    +0.122 C 
ATOM     11  C   LIG    1       27.389 -21.597   7.112  0.00  0.00    +0.171 C 
ATOM     12  F   LIG    1       27.335 -22.725   7.838  0.00  0.00    -0.201 F 
ATOM     13  C   LIG    1       30.440 -19.885   8.497  0.00  0.00    +0.105 C 
ENDROOT
BRANCH   6  14
ATOM     14  N   LIG    1       25.379 -22.369   5.895  0.00  0.00    -0.323 NA
ATOM     15  C   LIG    1       24.515 -22.770   7.032  0.00  0.00    +0.123 C 
ATOM     16  C   LIG    1       23.215 -21.918   7.101  0.00  0.00    +0.068 C 
ATOM     17  C   LIG    1       23.479 -20.507   7.635  0.00  0.00    +0.025 C 
ATOM     18  N   LIG    1       22.462 -21.877   5.822  0.00  0.00    -0.310 NA
ATOM     19  H   LIG    1       22.102 -22.817   5.650  0.00  0.00    +0.122 HD
ATOM     20  C   LIG    1       23.358 -21.536   4.693  0.00  0.00    +0.100 C 
ATOM     21  C   LIG    1       24.627 -22.416   4.621  0.00  0.00    +0.120 C 
ENDBRANCH   6  14
BRANCH   1  23
ATOM     22  C   LIG    1       30.977 -22.334   9.643  0.00  0.00    +0.027 C 
ATOM     23  C   LIG    1       29.556 -22.108   9.143  0.00  0.00    +0.118 C 
ENDBRANCH   1  23
BRANCH  10  24
ATOM     24  C   LIG    1       31.686 -17.842   8.061  0.00  0.00    +0.342 C 
ATOM     25  O   LIG    1       31.574 -16.829   8.726  0.00  0.00    -0.245 OA
BRANCH  24  26
ATOM     26  O   LIG    1       32.870 -18.247   7.548  0.00  0.00    -0.477 OA
ATOM     27  H   LIG    1       33.381 -17.529   7.104  0.00  0.00    +0.295 HD
ENDBRANCH  24  26
ENDBRANCH  10  24
TORSDOF 4
ENDMDL
MODEL 9
REMARK VINA RESULT:      -5.4     10.217     12.695
REMARK  Name = *****
REMARK                            x       y       z     vdW  Elec       q    Type
REMARK                         _______ _______ _______ _____ _____    ______ ____
ROOT
ATOM      1  N   LIG    1       25.274 -27.566  13.147  0.00  0.00    -0.344 NA
ATOM      2  C   LIG    1       23.997 -28.187  13.175  0.00  0.00    +0.090 C 
ATOM      3  C   LIG    1       23.721 -29.208  12.243  0.00  0.00    +0.052 C 
ATOM      4  C   LIG    1       22.500 -29.881  12.233  0.00  0.00    +0.054 C 
ATOM      5  C   LIG    1       21.513 -29.541  13.149  0.00  0.00    +0.148 C 
ATOM      6  C   LIG    1       21.675 -28.513  14.098  0.00  0.00    +0.103 C 
ATOM      7  F   LIG    1       20.371 -30.237  13.054  0.00  0.00    -0.203 F 
ATOM      8  C   LIG    1       24.748 -29.620  11.259  0.00  0.00    +0.203 C 
ATOM      9  O   LIG    1       24.556 -30.548  10.475  0.00  0.00    -0.286 OA
ATOM     10  C   LIG    1       26.035 -28.912  11.257  0.00  0.00    +0.122 C 
ATOM     11  C   LIG    1       22.949 -27.872  14.079  0.00  0.00    +0.171 C 
ATOM     12  F   LIG    1       23.185 -26.939  15.015  0.00  0.00    -0.201 F 
ATOM     13  C   LIG    1       26.202 -27.967  12.191  0.00  0.00    +0.105 C 
ENDROOT
BRANCH   6  14
ATOM     14  N   LIG    1       20.692 -28.168  15.045  0.00  0.00    -0.323 NA
ATOM     15  C   LIG    1       20.338 -26.739  15.233  0.00  0.00    +0.123 C 
ATOM     16  C   LIG    1       19.131 -26.318  14.345  0.00  0.00    +0.068 C 
ATOM     17  C   LIG    1       19.527 -26.157  12.875  0.00  0.00    +0.025 C 
ATOM     18  N   LIG    1       17.948 -27.204  14.491  0.00  0.00    -0.310 NA
ATOM     19  H   LIG    1       17.584 -27.074  15.436  0.00  0.00    +0.122 HD
ATOM     20  C   LIG    1       18.336 -28.628  14.361  0.00  0.00    +0.100 C 
ATOM     21  C   LIG    1       19.515 -29.035  15.276  0.00  0.00    +0.120 C 
ENDBRANCH   6  14
BRANCH   1  23
ATOM     22  C   LIG    1       25.820 -25.195  13.609  0.00  0.00    +0.027 C 
ATOM     23  C   LIG    1       25.677 -26.597  14.187  0.00  0.00    +0.118 C 
ENDBRANCH   1  23
BRANCH  10  24
ATOM     24  C   LIG    1       27.145 -29.223  10.333  0.00  0.00    +0.342 C 
ATOM     25  O   LIG    1       28.067 -29.964  10.618  0.00  0.00    -0.245 OA
BRANCH  24  26
ATOM     26  O   LIG    1       27.026 -28.646   9.116  0.00  0.00    -0.477 OA
ATOM     27  H   LIG    1       27.434 -27.749   9.056  0.00  0.00    +0.295 HD
ENDBRANCH  24  26
ENDBRANCH  10  24
TORSDOF 4
ENDMDL
