MODEL 1
REMARK VINA RESULT:      -6.9      0.000      0.000
REMARK  Name = *****
REMARK                            x       y       z     vdW  Elec       q    Type
REMARK                         _______ _______ _______ _____ _____    ______ ____
ROOT
ATOM      1  C   LIG    1       27.669 -21.528   7.893  0.00  0.00    +0.101 C 
ENDROOT
BRANCH   1   2
ATOM      2  N   LIG    1       26.575 -21.826   6.927  0.00  0.00    -0.281 NA
BRANCH   2   3
ATOM      3  C   LIG    1       25.657 -22.885   7.458  0.00  0.00    +0.206 C 
BRANCH   3   5
ATOM      4  O   LIG    1       26.017 -25.251   6.970  0.00  0.00    -0.250 OA
ATOM      5  C   LIG    1       25.687 -24.123   6.571  0.00  0.00    +0.319 C 
BRANCH   5   6
ATOM      6  O   LIG    1       25.258 -23.899   5.309  0.00  0.00    -0.480 OA
ATOM      7  H   LIG    1       26.048 -23.887   4.720  0.00  0.00    +0.295 HD
ENDBRANCH   5   6
ENDBRANCH   3   5
ENDBRANCH   2   3
BRANCH   2   8
ATOM      8  C   LIG    1       25.760 -20.667   6.429  0.00  0.00    +0.206 C 
BRANCH   8   9
ATOM      9  C   LIG    1       25.507 -20.608   4.922  0.00  0.00    +0.319 C 
ATOM     10  O   LIG    1       24.534 -21.051   4.340  0.00  0.00    -0.250 OA
BRANCH   9  11
ATOM     11  O   LIG    1       26.437 -19.879   4.281  0.00  0.00    -0.480 OA
ATOM     12  H   LIG    1       25.964 -19.130   3.868  0.00  0.00    +0.295 HD
ENDBRANCH   9  11
ENDBRANCH   8   9
ENDBRANCH   2   8
ENDBRANCH   1   2
BRANCH   1  13
ATOM     13  C   LIG    1       28.500 -20.220   7.695  0.00  0.00    +0.101 C 
BRANCH  13  14
ATOM     14  N   LIG    1       29.714 -20.005   8.562  0.00  0.00    -0.281 NA
BRANCH  14  15
ATOM     15  C   LIG    1       30.053 -18.541   8.654  0.00  0.00    +0.206 C 
BRANCH  15  16
ATOM     16  C   LIG    1       31.489 -18.190   9.086  0.00  0.00    +0.319 C 
ATOM     17  O   LIG    1       31.941 -18.432  10.197  0.00  0.00    -0.250 OA
BRANCH  16  18
ATOM     18  O   LIG    1       32.212 -17.477   8.191  0.00  0.00    -0.480 OA
ATOM     19  H   LIG    1       33.111 -17.802   8.017  0.00  0.00    +0.295 HD
ENDBRANCH  16  18
ENDBRANCH  15  16
ENDBRANCH  14  15
BRANCH  14  20
ATOM     20  C   LIG    1       30.866 -20.825   8.122  0.00  0.00    +0.206 C 
BRANCH  20  21
ATOM     21  C   LIG    1       31.294 -21.871   9.144  0.00  0.00    +0.319 C 
ATOM     22  O   LIG    1       30.808 -21.924  10.271  0.00  0.00    -0.250 OA
BRANCH  21  23
ATOM     23  O   LIG    1       32.146 -22.784   8.650  0.00  0.00    -0.480 OA
ATOM     24  H   LIG    1       33.055 -22.413   8.642  0.00  0.00    +0.295 HD
ENDBRANCH  21  23
ENDBRANCH  20  21
ENDBRANCH  14  20
ENDBRANCH  13  14
ENDBRANCH   1  13
TORSDOF 15
ENDMDL
MODEL 2
REMARK VINA RESULT:      -6.8      0.866      6.606
REMARK  Name = *****
REMARK                            x       y       z     vdW  Elec       q    Type
REMARK                         _______ _______ _______ _____ _____    ______ ____
ROOT
ATOM      1  C   LIG    1       28.066 -20.215   7.973  0.00  0.00    +0.101 C 
ENDROOT
BRANCH   1   2
ATOM      2  N   LIG    1       29.442 -20.029   8.514  0.00  0.00    -0.281 NA
BRANCH   2   3
ATOM      3  C   LIG    1       30.387 -21.048   7.955  0.00  0.00    +0.206 C 
BRANCH   3   5
ATOM      4  O   LIG    1       30.754 -21.780  10.256  0.00  0.00    -0.250 OA
ATOM      5  C   LIG    1       31.125 -21.775   9.071  0.00  0.00    +0.319 C 
BRANCH   5   6
ATOM      6  O   LIG    1       32.201 -22.475   8.647  0.00  0.00    -0.480 OA
ATOM      7  H   LIG    1       33.008 -22.012   8.970  0.00  0.00    +0.295 HD
ENDBRANCH   5   6
ENDBRANCH   3   5
ENDBRANCH   2   3
BRANCH   2   8
ATOM      8  C   LIG    1       30.054 -18.663   8.388  0.00  0.00    +0.206 C 
BRANCH   8   9
ATOM      9  C   LIG    1       30.281 -17.893   9.689  0.00  0.00    +0.319 C 
ATOM     10  O   LIG    1       30.092 -16.703   9.861  0.00  0.00    -0.250 OA
BRANCH   9  11
ATOM     11  O   LIG    1       30.603 -18.707  10.710  0.00  0.00    -0.480 OA
ATOM     12  H   LIG    1       29.803 -19.234  10.904  0.00  0.00    +0.295 HD
ENDBRANCH   9  11
ENDBRANCH   8   9
ENDBRANCH   2   8
ENDBRANCH   1   2
BRANCH   1  13
ATOM     13  C   LIG    1       27.455 -21.652   7.972  0.00  0.00    +0.101 C 
BRANCH  13  14
ATOM     14  N   LIG    1       26.487 -22.018   6.875  0.00  0.00    -0.281 NA
BRANCH  14  15
ATOM     15  C   LIG    1       25.642 -20.833   6.491  0.00  0.00    +0.206 C 
BRANCH  15  16
ATOM     16  C   LIG    1       25.406 -20.613   4.985  0.00  0.00    +0.319 C 
ATOM     17  O   LIG    1       24.430 -21.037   4.383  0.00  0.00    -0.250 OA
BRANCH  16  18
ATOM     18  O   LIG    1       26.415 -20.008   4.316  0.00  0.00    -0.480 OA
ATOM     19  H   LIG    1       26.979 -20.589   3.779  0.00  0.00    +0.295 HD
ENDBRANCH  16  18
ENDBRANCH  15  16
ENDBRANCH  14  15
BRANCH  14  20
ATOM     20  C   LIG    1       25.673 -23.205   7.222  0.00  0.00    +0.206 C 
BRANCH  20  21
ATOM     21  C   LIG    1       25.552 -24.214   6.087  0.00  0.00    +0.319 C 
ATOM     22  O   LIG    1       26.271 -25.207   6.012  0.00  0.00    -0.250 OA
BRANCH  21  23
ATOM     23  O   LIG    1       24.517 -23.973   5.266  0.00  0.00    -0.480 OA
ATOM     24  H   LIG    1       23.961 -23.256   5.642  0.00  0.00    +0.295 HD
ENDBRANCH  21  23
ENDBRANCH  20  21
ENDBRANCH  14  20
ENDBRANCH  13  14
ENDBRANCH   1  13
TORSDOF 15
ENDMDL
MODEL 3
REMARK VINA RESULT:      -6.8      1.446      6.631
REMARK  Name = *****
REMARK                            x       y       z     vdW  Elec       q    Type
REMARK                         _______ _______ _______ _____ _____    ______ ____
ROOT
ATOM      1  C   LIG    1       28.689 -19.433   7.704  0.00  0.00    +0.101 C 
ENDROOT
BRANCH   1   2
ATOM      2  N   LIG    1       29.958 -19.914   8.316  0.00  0.00    -0.281 NA
BRANCH   2   3
ATOM      3  C   LIG    1       30.115 -21.395   8.146  0.00  0.00    +0.206 C 
BRANCH   3   5
ATOM      4  O   LIG    1       30.927 -21.901  10.394  0.00  0.00    -0.250 OA
ATOM      5  C   LIG    1       31.098 -21.957   9.165  0.00  0.00    +0.319 C 
BRANCH   5   6
ATOM      6  O   LIG    1       32.157 -22.586   8.610  0.00  0.00    -0.480 OA
ATOM      7  H   LIG    1       32.761 -22.860   9.339  0.00  0.00    +0.295 HD
ENDBRANCH   5   6
ENDBRANCH   3   5
ENDBRANCH   2   3
BRANCH   2   8
ATOM      8  C   LIG    1       31.228 -19.230   7.897  0.00  0.00    +0.206 C 
BRANCH   8   9
ATOM      9  C   LIG    1       31.834 -18.243   8.895  0.00  0.00    +0.319 C 
ATOM     10  O   LIG    1       31.977 -18.428  10.090  0.00  0.00    -0.250 OA
BRANCH   9  11
ATOM     11  O   LIG    1       32.332 -17.151   8.289  0.00  0.00    -0.480 OA
ATOM     12  H   LIG    1       33.247 -17.048   8.617  0.00  0.00    +0.295 HD
ENDBRANCH   9  11
ENDBRANCH   8   9
ENDBRANCH   2   8
ENDBRANCH   1   2
BRANCH   1  13
ATOM     13  C   LIG    1       28.232 -20.058   6.347  0.00  0.00    +0.101 C 
BRANCH  13  14
ATOM     14  N   LIG    1       26.850 -20.655   6.261  0.00  0.00    -0.281 NA
BRANCH  14  15
ATOM     15  C   LIG    1       26.111 -20.121   5.064  0.00  0.00    +0.206 C 
BRANCH  15  16
ATOM     16  C   LIG    1       24.797 -20.831   4.690  0.00  0.00    +0.319 C 
ATOM     17  O   LIG    1       24.658 -22.047   4.697  0.00  0.00    -0.250 OA
BRANCH  16  18
ATOM     18  O   LIG    1       23.808 -20.030   4.229  0.00  0.00    -0.480 OA
ATOM     19  H   LIG    1       23.658 -19.210   4.728  0.00  0.00    +0.295 HD
ENDBRANCH  16  18
ENDBRANCH  15  16
ENDBRANCH  14  15
BRANCH  14  20
ATOM     20  C   LIG    1       26.089 -20.482   7.520  0.00  0.00    +0.206 C 
BRANCH  20  21
ATOM     21  C   LIG    1       25.835 -21.789   8.261  0.00  0.00    +0.319 C 
ATOM     22  O   LIG    1       26.018 -22.885   7.739  0.00  0.00    -0.250 OA
BRANCH  21  23
ATOM     23  O   LIG    1       25.519 -21.616   9.555  0.00  0.00    -0.480 OA
ATOM     24  H   LIG    1       24.709 -22.130   9.766  0.00  0.00    +0.295 HD
ENDBRANCH  21  23
ENDBRANCH  20  21
ENDBRANCH  14  20
ENDBRANCH  13  14
ENDBRANCH   1  13
TORSDOF 15
ENDMDL
MODEL 4
REMARK VINA RESULT:      -6.7      1.229      1.564
REMARK  Name = *****
REMARK                            x       y       z     vdW  Elec       q    Type
REMARK                         _______ _______ _______ _____ _____    ______ ____
ROOT
ATOM      1  C   LIG    1       27.203 -21.860   7.367  0.00  0.00    +0.101 C 
ENDROOT
BRANCH   1   2
ATOM      2  N   LIG    1       25.964 -21.948   6.545  0.00  0.00    -0.281 NA
BRANCH   2   3
ATOM      3  C   LIG    1       24.908 -22.753   7.239  0.00  0.00    +0.206 C 
BRANCH   3   5
ATOM      4  O   LIG    1       23.417 -24.585   6.618  0.00  0.00    -0.250 OA
ATOM      5  C   LIG    1       24.371 -23.847   6.326  0.00  0.00    +0.319 C 
BRANCH   5   6
ATOM      6  O   LIG    1       24.990 -23.907   5.126  0.00  0.00    -0.480 OA
ATOM      7  H   LIG    1       25.393 -24.802   5.039  0.00  0.00    +0.295 HD
ENDBRANCH   5   6
ENDBRANCH   3   5
ENDBRANCH   2   3
BRANCH   2   8
ATOM      8  C   LIG    1       25.365 -20.659   6.060  0.00  0.00    +0.206 C 
BRANCH   8   9
ATOM      9  C   LIG    1       25.114 -20.545   4.556  0.00  0.00    +0.319 C 
ATOM     10  O   LIG    1       24.299 -21.181   3.914  0.00  0.00    -0.250 OA
BRANCH   9  11
ATOM     11  O   LIG    1       25.820 -19.545   3.999  0.00  0.00    -0.480 OA
ATOM     12  H   LIG    1       25.172 -18.967   3.550  0.00  0.00    +0.295 HD
ENDBRANCH   9  11
ENDBRANCH   8   9
ENDBRANCH   2   8
ENDBRANCH   1   2
BRANCH   1  13
ATOM     13  C   LIG    1       27.906 -20.473   7.507  0.00  0.00    +0.101 C 
BRANCH  13  14
ATOM     14  N   LIG    1       29.111 -20.368   8.408  0.00  0.00    -0.281 NA
BRANCH  14  15
ATOM     15  C   LIG    1       29.668 -18.969   8.394  0.00  0.00    +0.206 C 
BRANCH  15  16
ATOM     16  C   LIG    1       30.647 -18.627   7.256  0.00  0.00    +0.319 C 
ATOM     17  O   LIG    1       30.301 -18.448   6.096  0.00  0.00    -0.250 OA
BRANCH  16  18
ATOM     18  O   LIG    1       31.959 -18.645   7.586  0.00  0.00    -0.480 OA
ATOM     19  H   LIG    1       32.183 -19.106   8.411  0.00  0.00    +0.295 HD
ENDBRANCH  16  18
ENDBRANCH  15  16
ENDBRANCH  14  15
BRANCH  14  20
ATOM     20  C   LIG    1       30.136 -21.388   8.090  0.00  0.00    +0.206 C 
BRANCH  20  21
ATOM     21  C   LIG    1       31.124 -21.632   9.225  0.00  0.00    +0.319 C 
ATOM     22  O   LIG    1       32.219 -21.079   9.270  0.00  0.00    -0.250 OA
BRANCH  21  23
ATOM     23  O   LIG    1       30.628 -22.399  10.209  0.00  0.00    -0.480 OA
ATOM     24  H   LIG    1       31.365 -22.851  10.675  0.00  0.00    +0.295 HD
ENDBRANCH  21  23
ENDBRANCH  20  21
ENDBRANCH  14  20
ENDBRANCH  13  14
ENDBRANCH   1  13
TORSDOF 15
ENDMDL
MODEL 5
REMARK VINA RESULT:      -6.7      1.189      6.623
REMARK  Name = *****
REMARK                            x       y       z     vdW  Elec       q    Type
REMARK                         _______ _______ _______ _____ _____    ______ ____
ROOT
ATOM      1  C   LIG    1       27.954 -20.564   7.532  0.00  0.00    +0.101 C 
ENDROOT
BRANCH   1   2
ATOM      2  N   LIG    1       29.165 -20.375   8.378  0.00  0.00    -0.281 NA
BRANCH   2   3
ATOM      3  C   LIG    1       30.213 -21.398   8.062  0.00  0.00    +0.206 C 
BRANCH   3   5
ATOM      4  O   LIG    1       32.268 -21.049   9.335  0.00  0.00    -0.250 OA
ATOM      5  C   LIG    1       31.156 -21.592   9.243  0.00  0.00    +0.319 C 
BRANCH   5   6
ATOM      6  O   LIG    1       30.646 -22.369  10.224  0.00  0.00    -0.480 OA
ATOM      7  H   LIG    1       31.219 -22.266  11.019  0.00  0.00    +0.295 HD
ENDBRANCH   5   6
ENDBRANCH   3   5
ENDBRANCH   2   3
BRANCH   2   8
ATOM      8  C   LIG    1       29.792 -19.011   8.390  0.00  0.00    +0.206 C 
BRANCH   8   9
ATOM      9  C   LIG    1       30.711 -18.671   7.215  0.00  0.00    +0.319 C 
ATOM     10  O   LIG    1       30.357 -18.404   6.082  0.00  0.00    -0.250 OA
BRANCH   9  11
ATOM     11  O   LIG    1       31.998 -18.568   7.592  0.00  0.00    -0.480 OA
ATOM     12  H   LIG    1       32.035 -18.863   8.524  0.00  0.00    +0.295 HD
ENDBRANCH   9  11
ENDBRANCH   8   9
ENDBRANCH   2   8
ENDBRANCH   1   2
BRANCH   1  13
ATOM     13  C   LIG    1       27.031 -21.792   7.817  0.00  0.00    +0.101 C 
BRANCH  13  14
ATOM     14  N   LIG    1       25.986 -22.155   6.793  0.00  0.00    -0.281 NA
BRANCH  14  15
ATOM     15  C   LIG    1       25.232 -20.933   6.342  0.00  0.00    +0.206 C 
BRANCH  15  16
ATOM     16  C   LIG    1       25.206 -20.657   4.827  0.00  0.00    +0.319 C 
ATOM     17  O   LIG    1       24.277 -20.973   4.096  0.00  0.00    -0.250 OA
BRANCH  16  18
ATOM     18  O   LIG    1       26.342 -20.136   4.307  0.00  0.00    -0.480 OA
ATOM     19  H   LIG    1       26.484 -19.188   4.461  0.00  0.00    +0.295 HD
ENDBRANCH  16  18
ENDBRANCH  15  16
ENDBRANCH  14  15
BRANCH  14  20
ATOM     20  C   LIG    1       25.087 -23.231   7.270  0.00  0.00    +0.206 C 
BRANCH  20  21
ATOM     21  C   LIG    1       24.502 -24.079   6.147  0.00  0.00    +0.319 C 
ATOM     22  O   LIG    1       25.131 -24.338   5.126  0.00  0.00    -0.250 OA
BRANCH  21  23
ATOM     23  O   LIG    1       23.302 -24.605   6.444  0.00  0.00    -0.480 OA
ATOM     24  H   LIG    1       22.960 -24.194   7.268  0.00  0.00    +0.295 HD
ENDBRANCH  21  23
ENDBRANCH  20  21
ENDBRANCH  14  20
ENDBRANCH  13  14
ENDBRANCH   1  13
TORSDOF 15
ENDMDL
MODEL 6
REMARK VINA RESULT:      -6.7      2.002      3.413
REMARK  Name = *****
REMARK                            x       y       z     vdW  Elec       q    Type
REMARK                         _______ _______ _______ _____ _____    ______ ____
ROOT
ATOM      1  C   LIG    1       26.919 -22.242   7.269  0.00  0.00    +0.101 C 
ENDROOT
BRANCH   1   2
ATOM      2  N   LIG    1       25.490 -22.335   6.857  0.00  0.00    -0.281 NA
BRANCH   2   3
ATOM      3  C   LIG    1       25.012 -21.044   6.264  0.00  0.00    +0.206 C 
BRANCH   3   5
ATOM      4  O   LIG    1       22.784 -20.063   6.058  0.00  0.00    -0.250 OA
ATOM      5  C   LIG    1       23.594 -20.728   6.723  0.00  0.00    +0.319 C 
BRANCH   5   6
ATOM      6  O   LIG    1       23.267 -21.294   7.906  0.00  0.00    -0.480 OA
ATOM      7  H   LIG    1       23.736 -22.158   7.967  0.00  0.00    +0.295 HD
ENDBRANCH   5   6
ENDBRANCH   3   5
ENDBRANCH   2   3
BRANCH   2   8
ATOM      8  C   LIG    1       25.106 -23.469   5.950  0.00  0.00    +0.206 C 
BRANCH   8   9
ATOM      9  C   LIG    1       24.037 -24.429   6.473  0.00  0.00    +0.319 C 
ATOM     10  O   LIG    1       22.901 -24.133   6.794  0.00  0.00    -0.250 OA
BRANCH   9  11
ATOM     11  O   LIG    1       24.442 -25.711   6.427  0.00  0.00    -0.480 OA
ATOM     12  H   LIG    1       23.795 -26.184   5.867  0.00  0.00    +0.295 HD
ENDBRANCH   9  11
ENDBRANCH   8   9
ENDBRANCH   2   8
ENDBRANCH   1   2
BRANCH   1  13
ATOM     13  C   LIG    1       27.407 -20.935   7.971  0.00  0.00    +0.101 C 
BRANCH  13  14
ATOM     14  N   LIG    1       28.860 -20.554   7.845  0.00  0.00    -0.281 NA
BRANCH  14  15
ATOM     15  C   LIG    1       29.169 -20.078   6.451  0.00  0.00    +0.206 C 
BRANCH  15  16
ATOM     16  C   LIG    1       29.867 -18.710   6.326  0.00  0.00    +0.319 C 
ATOM     17  O   LIG    1       30.562 -18.222   7.206  0.00  0.00    -0.250 OA
BRANCH  16  18
ATOM     18  O   LIG    1       29.573 -18.002   5.211  0.00  0.00    -0.480 OA
ATOM     19  H   LIG    1       28.712 -18.190   4.802  0.00  0.00    +0.295 HD
ENDBRANCH  16  18
ENDBRANCH  15  16
ENDBRANCH  14  15
BRANCH  14  20
ATOM     20  C   LIG    1       29.763 -21.642   8.284  0.00  0.00    +0.206 C 
BRANCH  20  21
ATOM     21  C   LIG    1       30.955 -21.153   9.099  0.00  0.00    +0.319 C 
ATOM     22  O   LIG    1       31.972 -21.826   9.240  0.00  0.00    -0.250 OA
BRANCH  21  23
ATOM     23  O   LIG    1       30.825 -19.887   9.528  0.00  0.00    -0.480 OA
ATOM     24  H   LIG    1       30.435 -19.337   8.814  0.00  0.00    +0.295 HD
ENDBRANCH  21  23
ENDBRANCH  20  21
ENDBRANCH  14  20
ENDBRANCH  13  14
ENDBRANCH   1  13
TORSDOF 15
ENDMDL
MODEL 7
REMARK VINA RESULT:      -6.6      1.761      6.993
REMARK  Name = *****
REMARK                            x       y       z     vdW  Elec       q    Type
REMARK                         _______ _______ _______ _____ _____    ______ ____
ROOT
ATOM      1  C   LIG    1       29.147 -19.247   6.569  0.00  0.00    +0.101 C 
ENDROOT
BRANCH   1   2
ATOM      2  N   LIG    1       30.049 -19.730   7.652  0.00  0.00    -0.281 NA
BRANCH   2   3
ATOM      3  C   LIG    1       30.119 -18.744   8.778  0.00  0.00    +0.206 C 
BRANCH   3   5
ATOM      4  O   LIG    1       32.170 -18.485  10.079  0.00  0.00    -0.250 OA
ATOM      5  C   LIG    1       31.555 -18.295   9.018  0.00  0.00    +0.319 C 
BRANCH   5   6
ATOM      6  O   LIG    1       32.131 -17.717   7.941  0.00  0.00    -0.480 OA
ATOM      7  H   LIG    1       31.713 -18.099   7.134  0.00  0.00    +0.295 HD
ENDBRANCH   5   6
ENDBRANCH   3   5
ENDBRANCH   2   3
BRANCH   2   8
ATOM      8  C   LIG    1       29.787 -21.100   8.208  0.00  0.00    +0.206 C 
BRANCH   8   9
ATOM      9  C   LIG    1       30.882 -21.699   9.093  0.00  0.00    +0.319 C 
ATOM     10  O   LIG    1       30.740 -22.112  10.228  0.00  0.00    -0.250 OA
BRANCH   9  11
ATOM     11  O   LIG    1       32.042 -21.849   8.430  0.00  0.00    -0.480 OA
ATOM     12  H   LIG    1       32.488 -22.623   8.828  0.00  0.00    +0.295 HD
ENDBRANCH   9  11
ENDBRANCH   8   9
ENDBRANCH   2   8
ENDBRANCH   1   2
BRANCH   1  13
ATOM     13  C   LIG    1       28.242 -20.288   5.835  0.00  0.00    +0.101 C 
BRANCH  13  14
ATOM     14  N   LIG    1       26.749 -20.195   6.019  0.00  0.00    -0.281 NA
BRANCH  14  15
ATOM     15  C   LIG    1       26.259 -21.258   6.965  0.00  0.00    +0.206 C 
BRANCH  15  16
ATOM     16  C   LIG    1       25.532 -20.772   8.233  0.00  0.00    +0.319 C 
ATOM     17  O   LIG    1       26.093 -20.575   9.302  0.00  0.00    -0.250 OA
BRANCH  16  18
ATOM     18  O   LIG    1       24.185 -20.681   8.138  0.00  0.00    -0.480 OA
ATOM     19  H   LIG    1       23.833 -20.491   7.252  0.00  0.00    +0.295 HD
ENDBRANCH  16  18
ENDBRANCH  15  16
ENDBRANCH  14  15
BRANCH  14  20
ATOM     20  C   LIG    1       26.025 -20.210   4.727  0.00  0.00    +0.206 C 
BRANCH  20  21
ATOM     21  C   LIG    1       24.597 -20.730   4.835  0.00  0.00    +0.319 C 
ATOM     22  O   LIG    1       23.686 -20.051   5.300  0.00  0.00    -0.250 OA
BRANCH  21  23
ATOM     23  O   LIG    1       24.422 -21.933   4.265  0.00  0.00    -0.480 OA
ATOM     24  H   LIG    1       23.466 -22.159   4.264  0.00  0.00    +0.295 HD
ENDBRANCH  21  23
ENDBRANCH  20  21
ENDBRANCH  14  20
ENDBRANCH  13  14
ENDBRANCH   1  13
TORSDOF 15
ENDMDL
MODEL 8
REMARK VINA RESULT:      -6.6      1.666      1.995
REMARK  Name = *****
REMARK                            x       y       z     vdW  Elec       q    Type
REMARK                         _______ _______ _______ _____ _____    ______ ____
ROOT
ATOM      1  C   LIG    1       26.832 -21.614   7.826  0.00  0.00    +0.101 C 
ENDROOT
BRANCH   1   2
ATOM      2  N   LIG    1       26.093 -22.306   6.734  0.00  0.00    -0.281 NA
BRANCH   2   3
ATOM      3  C   LIG    1       25.454 -23.569   7.227  0.00  0.00    +0.206 C 
BRANCH   3   5
ATOM      4  O   LIG    1       26.288 -25.285   5.702  0.00  0.00    -0.250 OA
ATOM      5  C   LIG    1       25.339 -24.593   6.105  0.00  0.00    +0.319 C 
BRANCH   5   6
ATOM      6  O   LIG    1       24.085 -24.731   5.620  0.00  0.00    -0.480 OA
ATOM      7  H   LIG    1       24.103 -25.441   4.938  0.00  0.00    +0.295 HD
ENDBRANCH   5   6
ENDBRANCH   3   5
ENDBRANCH   2   3
BRANCH   2   8
ATOM      8  C   LIG    1       25.079 -21.503   5.971  0.00  0.00    +0.206 C 
BRANCH   8   9
ATOM      9  C   LIG    1       23.688 -21.386   6.597  0.00  0.00    +0.319 C 
ATOM     10  O   LIG    1       23.401 -20.744   7.591  0.00  0.00    -0.250 OA
BRANCH   9  11
ATOM     11  O   LIG    1       22.744 -21.982   5.848  0.00  0.00    -0.480 OA
ATOM     12  H   LIG    1       23.055 -21.932   4.923  0.00  0.00    +0.295 HD
ENDBRANCH   9  11
ENDBRANCH   8   9
ENDBRANCH   2   8
ENDBRANCH   1   2
BRANCH   1  13
ATOM     13  C   LIG    1       27.919 -20.561   7.437  0.00  0.00    +0.101 C 
BRANCH  13  14
ATOM     14  N   LIG    1       29.099 -20.377   8.357  0.00  0.00    -0.281 NA
BRANCH  14  15
ATOM     15  C   LIG    1       29.623 -18.968   8.278  0.00  0.00    +0.206 C 
BRANCH  15  16
ATOM     16  C   LIG    1       30.650 -18.674   7.168  0.00  0.00    +0.319 C 
ATOM     17  O   LIG    1       30.360 -18.580   5.984  0.00  0.00    -0.250 OA
BRANCH  16  18
ATOM     18  O   LIG    1       31.944 -18.635   7.563  0.00  0.00    -0.480 OA
ATOM     19  H   LIG    1       32.506 -17.982   7.114  0.00  0.00    +0.295 HD
ENDBRANCH  16  18
ENDBRANCH  15  16
ENDBRANCH  14  15
BRANCH  14  20
ATOM     20  C   LIG    1       30.155 -21.387   8.118  0.00  0.00    +0.206 C 
BRANCH  20  21
ATOM     21  C   LIG    1       31.021 -21.664   9.341  0.00  0.00    +0.319 C 
ATOM     22  O   LIG    1       30.671 -22.434  10.231  0.00  0.00    -0.250 OA
BRANCH  21  23
ATOM     23  O   LIG    1       32.232 -21.087   9.280  0.00  0.00    -0.480 OA
ATOM     24  H   LIG    1       32.218 -20.241   9.779  0.00  0.00    +0.295 HD
ENDBRANCH  21  23
ENDBRANCH  20  21
ENDBRANCH  14  20
ENDBRANCH  13  14
ENDBRANCH   1  13
TORSDOF 15
ENDMDL
MODEL 9
REMARK VINA RESULT:      -6.5      1.603      7.025
REMARK  Name = *****
REMARK                            x       y       z     vdW  Elec       q    Type
REMARK                         _______ _______ _______ _____ _____    ______ ____
ROOT
ATOM      1  C   LIG    1       27.837 -20.645   7.715  0.00  0.00    +0.101 C 
ENDROOT
BRANCH   1   2
ATOM      2  N   LIG    1       29.119 -20.357   8.416  0.00  0.00    -0.281 NA
BRANCH   2   3
ATOM      3  C   LIG    1       30.172 -21.360   8.056  0.00  0.00    +0.206 C 
BRANCH   3   5
ATOM      4  O   LIG    1       32.241 -21.034   9.311  0.00  0.00    -0.250 OA
ATOM      5  C   LIG    1       31.131 -21.581   9.218  0.00  0.00    +0.319 C 
BRANCH   5   6
ATOM      6  O   LIG    1       30.639 -22.389  10.184  0.00  0.00    -0.480 OA
ATOM      7  H   LIG    1       30.654 -23.312   9.841  0.00  0.00    +0.295 HD
ENDBRANCH   5   6
ENDBRANCH   3   5
ENDBRANCH   2   3
BRANCH   2   8
ATOM      8  C   LIG    1       29.686 -18.973   8.275  0.00  0.00    +0.206 C 
BRANCH   8   9
ATOM      9  C   LIG    1       30.627 -18.737   7.093  0.00  0.00    +0.319 C 
ATOM     10  O   LIG    1       30.294 -18.534   5.940  0.00  0.00    -0.250 OA
BRANCH   9  11
ATOM     11  O   LIG    1       31.912 -18.646   7.479  0.00  0.00    -0.480 OA
ATOM     12  H   LIG    1       32.078 -17.699   7.659  0.00  0.00    +0.295 HD
ENDBRANCH   9  11
ENDBRANCH   8   9
ENDBRANCH   2   8
ENDBRANCH   1   2
BRANCH   1  13
ATOM     13  C   LIG    1       26.921 -21.779   8.275  0.00  0.00    +0.101 C 
BRANCH  13  14
ATOM     14  N   LIG    1       25.713 -22.189   7.471  0.00  0.00    -0.281 NA
BRANCH  14  15
ATOM     15  C   LIG    1       25.942 -23.517   6.802  0.00  0.00    +0.206 C 
BRANCH  15  16
ATOM     16  C   LIG    1       24.756 -24.109   6.017  0.00  0.00    +0.319 C 
ATOM     17  O   LIG    1       23.786 -24.631   6.548  0.00  0.00    -0.250 OA
BRANCH  16  18
ATOM     18  O   LIG    1       24.895 -24.127   4.671  0.00  0.00    -0.480 OA
ATOM     19  H   LIG    1       25.800 -24.242   4.338  0.00  0.00    +0.295 HD
ENDBRANCH  16  18
ENDBRANCH  15  16
ENDBRANCH  14  15
BRANCH  14  20
ATOM     20  C   LIG    1       25.297 -21.137   6.515  0.00  0.00    +0.206 C 
BRANCH  20  21
ATOM     21  C   LIG    1       23.819 -20.778   6.610  0.00  0.00    +0.319 C 
ATOM     22  O   LIG    1       23.083 -20.768   5.627  0.00  0.00    -0.250 OA
BRANCH  21  23
ATOM     23  O   LIG    1       23.392 -20.602   7.871  0.00  0.00    -0.480 OA
ATOM     24  H   LIG    1       22.780 -21.330   8.114  0.00  0.00    +0.295 HD
ENDBRANCH  21  23
ENDBRANCH  20  21
ENDBRANCH  14  20
ENDBRANCH  13  14
ENDBRANCH   1  13
TORSDOF 15
ENDMDL
