MODEL 1
REMARK VINA RESULT:      -1.0      0.000      0.000
REMARK  Name = *****
REMARK                            x       y       z     vdW  Elec       q    Type
REMARK                         _______ _______ _______ _____ _____    ______ ____
ROOT
ATOM      1  C   LIG    1       27.725 -19.459   4.943  0.00  0.00    +0.162 A 
ATOM      2  C   LIG    1       27.555 -20.115   6.187  0.00  0.00    +0.162 A 
ATOM      3  C   LIG    1       26.290 -20.610   6.538  0.00  0.00    +0.061 A 
ATOM      4  C   LIG    1       25.253 -20.467   5.634  0.00  0.00    +0.025 A 
ATOM      5  C   LIG    1       23.869 -20.901   5.777  0.00  0.00    +0.167 C 
ATOM      6  C   LIG    1       23.058 -20.492   4.563  0.00  0.00    +0.065 C 
ATOM      7  C   LIG    1       24.130 -19.873   3.609  0.00  0.00    +0.047 C 
ATOM      8  O   LIG    1       23.461 -21.520   6.754  0.00  0.00    -0.292 OA
ATOM      9  C   LIG    1       25.396 -19.851   4.409  0.00  0.00    -0.033 A 
ATOM     10  C   LIG    1       26.634 -19.334   4.057  0.00  0.00    +0.053 A 
ENDROOT
BRANCH   1  12
ATOM     11  C   LIG    1       29.472 -17.852   5.285  0.00  0.00    +0.277 C 
ATOM     12  O   LIG    1       28.854 -18.839   4.471  0.00  0.00    -0.491 OA
ENDBRANCH   1  12
BRANCH   2  13
ATOM     13  O   LIG    1       28.610 -20.177   7.061  0.00  0.00    -0.491 OA
ATOM     14  C   LIG    1       29.355 -21.394   7.052  0.00  0.00    +0.277 C 
ENDBRANCH   2  13
BRANCH   6  15
ATOM     15  C   LIG    1       21.923 -19.506   4.902  0.00  0.00    +0.015 C 
BRANCH  15  16
ATOM     16  C   LIG    1       21.660 -18.354   3.885  0.00  0.00    -0.008 C 
ATOM     17  C   LIG    1       20.984 -17.144   4.563  0.00  0.00    +0.019 C 
ATOM     18  C   LIG    1       21.947 -16.323   5.440  0.00  0.00    +0.085 C 
ATOM     19  N   LIG    1       23.219 -15.941   4.803  0.00  0.00    -0.298 NA
ATOM     20  C   LIG    1       23.839 -17.099   4.142  0.00  0.00    +0.085 C 
ATOM     21  C   LIG    1       22.906 -17.821   3.167  0.00  0.00    +0.019 C 
BRANCH  19  22
ATOM     22  C   LIG    1       23.088 -14.749   3.944  0.00  0.00    +0.119 C 
BRANCH  22  23
ATOM     23  C   LIG    1       24.415 -14.060   3.654  0.00  0.00    -0.033 A 
ATOM     24  C   LIG    1       24.548 -13.203   2.549  0.00  0.00    +0.005 A 
ATOM     25  C   LIG    1       25.788 -12.658   2.210  0.00  0.00    +0.000 A 
ATOM     26  C   LIG    1       26.905 -12.929   2.994  0.00  0.00    +0.000 A 
ATOM     27  C   LIG    1       26.782 -13.744   4.119  0.00  0.00    +0.000 A 
ATOM     28  C   LIG    1       25.547 -14.314   4.442  0.00  0.00    +0.005 A 
ENDBRANCH  22  23
ENDBRANCH  19  22
ENDBRANCH  15  16
ENDBRANCH   6  15
TORSDOF 6
ENDMDL
MODEL 2
REMARK VINA RESULT:      -0.3      1.195      2.098
REMARK  Name = *****
REMARK                            x       y       z     vdW  Elec       q    Type
REMARK                         _______ _______ _______ _____ _____    ______ ____
ROOT
ATOM      1  C   LIG    1       27.599 -19.979   5.259  0.00  0.00    +0.162 A 
ATOM      2  C   LIG    1       26.847 -20.858   6.077  0.00  0.00    +0.162 A 
ATOM      3  C   LIG    1       25.454 -20.919   5.924  0.00  0.00    +0.061 A 
ATOM      4  C   LIG    1       24.863 -20.136   4.949  0.00  0.00    +0.025 A 
ATOM      5  C   LIG    1       23.449 -20.038   4.609  0.00  0.00    +0.167 C 
ATOM      6  C   LIG    1       23.240 -19.016   3.509  0.00  0.00    +0.065 C 
ATOM      7  C   LIG    1       24.697 -18.595   3.129  0.00  0.00    +0.047 C 
ATOM      8  O   LIG    1       22.583 -20.715   5.151  0.00  0.00    -0.292 OA
ATOM      9  C   LIG    1       25.573 -19.288   4.126  0.00  0.00    -0.033 A 
ATOM     10  C   LIG    1       26.949 -19.197   4.281  0.00  0.00    +0.053 A 
ENDROOT
BRANCH   1  12
ATOM     11  C   LIG    1       29.367 -18.373   5.478  0.00  0.00    +0.277 C 
ATOM     12  O   LIG    1       28.945 -19.722   5.323  0.00  0.00    -0.491 OA
ENDBRANCH   1  12
BRANCH   2  13
ATOM     13  O   LIG    1       27.486 -21.567   7.062  0.00  0.00    -0.491 OA
ATOM     14  C   LIG    1       28.910 -21.486   7.062  0.00  0.00    +0.277 C 
ENDBRANCH   2  13
BRANCH   6  15
ATOM     15  C   LIG    1       22.373 -17.821   3.955  0.00  0.00    +0.015 C 
BRANCH  15  16
ATOM     16  C   LIG    1       23.018 -16.816   4.957  0.00  0.00    -0.008 C 
ATOM     17  C   LIG    1       24.468 -16.469   4.555  0.00  0.00    +0.019 C 
ATOM     18  C   LIG    1       24.553 -15.519   3.347  0.00  0.00    +0.085 C 
ATOM     19  N   LIG    1       23.713 -14.311   3.427  0.00  0.00    -0.298 NA
ATOM     20  C   LIG    1       22.343 -14.655   3.832  0.00  0.00    +0.085 C 
ATOM     21  C   LIG    1       22.273 -15.485   5.116  0.00  0.00    +0.019 C 
BRANCH  19  22
ATOM     22  C   LIG    1       24.335 -13.240   4.230  0.00  0.00    +0.119 C 
BRANCH  22  23
ATOM     23  C   LIG    1       25.856 -13.237   4.164  0.00  0.00    -0.033 A 
ATOM     24  C   LIG    1       26.622 -13.249   5.341  0.00  0.00    +0.005 A 
ATOM     25  C   LIG    1       28.012 -13.131   5.293  0.00  0.00    +0.000 A 
ATOM     26  C   LIG    1       28.660 -13.040   4.064  0.00  0.00    +0.000 A 
ATOM     27  C   LIG    1       27.919 -13.069   2.884  0.00  0.00    +0.000 A 
ATOM     28  C   LIG    1       26.524 -13.157   2.933  0.00  0.00    +0.005 A 
ENDBRANCH  22  23
ENDBRANCH  19  22
ENDBRANCH  15  16
ENDBRANCH   6  15
TORSDOF 6
ENDMDL
MODEL 3
REMARK VINA RESULT:       1.4      2.456      5.965
REMARK  Name = *****
REMARK                            x       y       z     vdW  Elec       q    Type
REMARK                         _______ _______ _______ _____ _____    ______ ____
ROOT
ATOM      1  C   LIG    1       24.773 -14.020   4.359  0.00  0.00    +0.162 A 
ATOM      2  C   LIG    1       25.727 -14.846   3.716  0.00  0.00    +0.162 A 
ATOM      3  C   LIG    1       25.390 -16.171   3.402  0.00  0.00    +0.061 A 
ATOM      4  C   LIG    1       24.117 -16.617   3.706  0.00  0.00    +0.025 A 
ATOM      5  C   LIG    1       23.546 -17.938   3.472  0.00  0.00    +0.167 C 
ATOM      6  C   LIG    1       22.130 -18.006   4.009  0.00  0.00    +0.065 C 
ATOM      7  C   LIG    1       21.857 -16.541   4.482  0.00  0.00    +0.047 C 
ATOM      8  O   LIG    1       24.156 -18.837   2.903  0.00  0.00    -0.292 OA
ATOM      9  C   LIG    1       23.163 -15.828   4.312  0.00  0.00    -0.033 A 
ATOM     10  C   LIG    1       23.487 -14.522   4.651  0.00  0.00    +0.053 A 
ENDROOT
BRANCH   1  12
ATOM     11  C   LIG    1       23.808 -12.025   5.276  0.00  0.00    +0.277 C 
ATOM     12  O   LIG    1       24.949 -12.738   4.817  0.00  0.00    -0.491 OA
ENDBRANCH   1  12
BRANCH   2  13
ATOM     13  O   LIG    1       26.990 -14.361   3.491  0.00  0.00    -0.491 OA
ATOM     14  C   LIG    1       27.741 -14.019   4.654  0.00  0.00    +0.277 C 
ENDBRANCH   2  13
BRANCH   6  15
ATOM     15  C   LIG    1       21.967 -19.037   5.144  0.00  0.00    +0.015 C 
BRANCH  15  16
ATOM     16  C   LIG    1       23.067 -19.054   6.247  0.00  0.00    -0.008 C 
ATOM     17  C   LIG    1       23.033 -20.366   7.060  0.00  0.00    +0.019 C 
ATOM     18  C   LIG    1       23.604 -21.572   6.292  0.00  0.00    +0.085 C 
ATOM     19  N   LIG    1       24.920 -21.361   5.665  0.00  0.00    -0.298 NA
ATOM     20  C   LIG    1       24.943 -20.098   4.914  0.00  0.00    +0.085 C 
ATOM     21  C   LIG    1       24.504 -18.886   5.739  0.00  0.00    +0.019 C 
BRANCH  19  22
ATOM     22  C   LIG    1       26.035 -21.524   6.618  0.00  0.00    +0.119 C 
BRANCH  22  23
ATOM     23  C   LIG    1       27.233 -20.638   6.308  0.00  0.00    -0.033 A 
ATOM     24  C   LIG    1       28.414 -20.743   7.062  0.00  0.00    +0.005 A 
ATOM     25  C   LIG    1       29.475 -19.859   6.860  0.00  0.00    +0.000 A 
ATOM     26  C   LIG    1       29.388 -18.882   5.872  0.00  0.00    +0.000 A 
ATOM     27  C   LIG    1       28.241 -18.791   5.086  0.00  0.00    +0.000 A 
ATOM     28  C   LIG    1       27.165 -19.656   5.307  0.00  0.00    +0.005 A 
ENDBRANCH  22  23
ENDBRANCH  19  22
ENDBRANCH  15  16
ENDBRANCH   6  15
TORSDOF 6
ENDMDL
MODEL 4
REMARK VINA RESULT:       1.6      2.495      6.283
REMARK  Name = *****
REMARK                            x       y       z     vdW  Elec       q    Type
REMARK                         _______ _______ _______ _____ _____    ______ ____
ROOT
ATOM      1  C   LIG    1       26.478 -14.155   3.441  0.00  0.00    +0.162 A 
ATOM      2  C   LIG    1       27.576 -13.962   4.315  0.00  0.00    +0.162 A 
ATOM      3  C   LIG    1       28.269 -15.077   4.808  0.00  0.00    +0.061 A 
ATOM      4  C   LIG    1       27.871 -16.336   4.395  0.00  0.00    +0.025 A 
ATOM      5  C   LIG    1       28.438 -17.626   4.767  0.00  0.00    +0.167 C 
ATOM      6  C   LIG    1       27.658 -18.753   4.120  0.00  0.00    +0.065 C 
ATOM      7  C   LIG    1       26.633 -18.002   3.210  0.00  0.00    +0.047 C 
ATOM      8  O   LIG    1       29.418 -17.739   5.495  0.00  0.00    -0.292 OA
ATOM      9  C   LIG    1       26.820 -16.551   3.530  0.00  0.00    -0.033 A 
ATOM     10  C   LIG    1       26.108 -15.460   3.052  0.00  0.00    +0.053 A 
ENDROOT
BRANCH   1  12
ATOM     11  C   LIG    1       24.264 -13.243   3.307  0.00  0.00    +0.277 C 
ATOM     12  O   LIG    1       25.634 -13.200   2.932  0.00  0.00    -0.491 OA
ENDBRANCH   1  12
BRANCH   2  13
ATOM     13  O   LIG    1       27.886 -12.691   4.729  0.00  0.00    -0.491 OA
ATOM     14  C   LIG    1       29.092 -12.142   4.201  0.00  0.00    +0.277 C 
ENDBRANCH   2  13
BRANCH   6  15
ATOM     15  C   LIG    1       26.975 -19.679   5.146  0.00  0.00    +0.015 C 
BRANCH  15  16
ATOM     16  C   LIG    1       25.550 -19.271   5.628  0.00  0.00    -0.008 C 
ATOM     17  C   LIG    1       24.549 -19.221   4.453  0.00  0.00    +0.019 C 
ATOM     18  C   LIG    1       24.123 -20.615   3.960  0.00  0.00    +0.085 C 
ATOM     19  N   LIG    1       23.679 -21.553   5.006  0.00  0.00    -0.298 NA
ATOM     20  C   LIG    1       24.631 -21.572   6.126  0.00  0.00    +0.085 C 
ATOM     21  C   LIG    1       24.935 -20.184   6.695  0.00  0.00    +0.019 C 
BRANCH  19  22
ATOM     22  C   LIG    1       22.275 -21.336   5.403  0.00  0.00    +0.119 C 
BRANCH  22  23
ATOM     23  C   LIG    1       21.593 -20.213   4.635  0.00  0.00    -0.033 A 
ATOM     24  C   LIG    1       22.133 -18.916   4.635  0.00  0.00    +0.005 A 
ATOM     25  C   LIG    1       21.455 -17.856   4.030  0.00  0.00    +0.000 A 
ATOM     26  C   LIG    1       20.247 -18.086   3.378  0.00  0.00    +0.000 A 
ATOM     27  C   LIG    1       19.717 -19.374   3.331  0.00  0.00    +0.000 A 
ATOM     28  C   LIG    1       20.380 -20.430   3.963  0.00  0.00    +0.005 A 
ENDBRANCH  22  23
ENDBRANCH  19  22
ENDBRANCH  15  16
ENDBRANCH   6  15
TORSDOF 6
ENDMDL
