MODEL 1
REMARK VINA RESULT:     -10.2      0.000      0.000
REMARK  Name = *****
REMARK                            x       y       z     vdW  Elec       q    Type
REMARK                         _______ _______ _______ _____ _____    ______ ____
ROOT
ATOM      1  C   LIG    1       25.233 -22.726   6.161  0.00  0.00    +0.103 C 
ATOM      2  C   LIG    1       25.007 -21.509   5.337  0.00  0.00    +0.236 C 
ATOM      3  O   LIG    1       23.958 -21.364   4.711  0.00  0.00    -0.283 OA
ATOM      4  C   LIG    1       26.110 -20.483   5.271  0.00  0.00    +0.194 C 
ATOM      5  C   LIG    1       27.164 -20.642   6.108  0.00  0.00    +0.150 C 
ATOM      6  C   LIG    1       28.298 -19.631   6.012  0.00  0.00    +0.269 C 
ATOM      7  N   LIG    1       29.309 -19.735   6.958  0.00  0.00    -0.266 N 
ATOM      8  C   LIG    1       29.030 -20.450   8.197  0.00  0.00    +0.229 C 
ATOM      9  C   LIG    1       28.431 -21.833   7.900  0.00  0.00    +0.173 C 
ATOM     10  O   LIG    1       30.200 -20.615   9.007  0.00  0.00    -0.354 OA
ATOM     11  C   LIG    1       31.130 -19.529   8.996  0.00  0.00    +0.122 C 
ATOM     12  C   LIG    1       31.627 -19.366   7.573  0.00  0.00    +0.054 C 
ATOM     13  C   LIG    1       30.473 -18.182   9.327  0.00  0.00    +0.033 C 
ATOM     14  C   LIG    1       30.049 -17.616   7.964  0.00  0.00    +0.025 C 
ATOM     15  C   LIG    1       30.380 -18.740   6.973  0.00  0.00    +0.081 C 
ATOM     16  O   LIG    1       28.303 -18.786   5.117  0.00  0.00    -0.268 OA
ATOM     17  N   LIG    1       27.253 -21.704   7.025  0.00  0.00    -0.335 NA
ATOM     18  C   LIG    1       26.319 -22.726   6.952  0.00  0.00    +0.103 C 
ENDROOT
BRANCH   1  20
ATOM     19  O   LIG    1       23.235 -23.903   6.650  0.00  0.00    -0.270 OA
ATOM     20  C   LIG    1       24.363 -23.934   6.157  0.00  0.00    +0.250 C 
ATOM     21  N   LIG    1       24.898 -25.059   5.588  0.00  0.00    -0.307 N 
ATOM     22  H   LIG    1       25.817 -24.995   5.148  0.00  0.00    +0.149 HD
BRANCH  21  23
ATOM     23  C   LIG    1       24.172 -26.307   5.492  0.00  0.00    +0.145 C 
BRANCH  23  24
ATOM     24  C   LIG    1       24.745 -27.360   6.392  0.00  0.00    +0.040 A 
ATOM     25  C   LIG    1       25.739 -27.069   7.330  0.00  0.00    +0.134 A 
ATOM     26  F   LIG    1       26.215 -25.820   7.435  0.00  0.00    -0.205 F 
ATOM     27  C   LIG    1       26.258 -28.052   8.171  0.00  0.00    +0.077 A 
ATOM     28  C   LIG    1       25.771 -29.348   8.074  0.00  0.00    +0.129 A 
ATOM     29  F   LIG    1       26.258 -30.299   8.881  0.00  0.00    -0.205 F 
ATOM     30  C   LIG    1       24.784 -29.673   7.156  0.00  0.00    +0.077 A 
ATOM     31  C   LIG    1       24.279 -28.676   6.328  0.00  0.00    +0.134 A 
ATOM     32  F   LIG    1       23.325 -29.004   5.445  0.00  0.00    -0.205 F 
ENDBRANCH  23  24
ENDBRANCH  21  23
ENDBRANCH   1  20
BRANCH   4  33
ATOM     33  O   LIG    1       25.965 -19.458   4.350  0.00  0.00    -0.502 OA
ATOM     34  H   LIG    1       26.444 -19.706   3.529  0.00  0.00    +0.292 HD
ENDBRANCH   4  33
TORSDOF 4
ENDMDL
MODEL 2
REMARK VINA RESULT:      -9.8      4.196      9.337
REMARK  Name = *****
REMARK                            x       y       z     vdW  Elec       q    Type
REMARK                         _______ _______ _______ _____ _____    ______ ____
ROOT
ATOM      1  C   LIG    1       25.630 -25.183   6.726  0.00  0.00    +0.103 C 
ATOM      2  C   LIG    1       24.939 -25.754   5.540  0.00  0.00    +0.236 C 
ATOM      3  O   LIG    1       24.685 -25.049   4.564  0.00  0.00    -0.283 OA
ATOM      4  C   LIG    1       24.536 -27.206   5.586  0.00  0.00    +0.194 C 
ATOM      5  C   LIG    1       24.989 -27.949   6.625  0.00  0.00    +0.150 C 
ATOM      6  C   LIG    1       24.547 -29.404   6.696  0.00  0.00    +0.269 C 
ATOM      7  N   LIG    1       25.117 -30.181   7.695  0.00  0.00    -0.266 N 
ATOM      8  C   LIG    1       26.371 -29.737   8.292  0.00  0.00    +0.229 C 
ATOM      9  C   LIG    1       26.263 -28.275   8.748  0.00  0.00    +0.173 C 
ATOM     10  O   LIG    1       26.760 -30.544   9.409  0.00  0.00    -0.354 OA
ATOM     11  C   LIG    1       26.465 -31.941   9.308  0.00  0.00    +0.122 C 
ATOM     12  C   LIG    1       24.960 -32.084   9.193  0.00  0.00    +0.054 C 
ATOM     13  C   LIG    1       27.007 -32.570   8.018  0.00  0.00    +0.033 C 
ATOM     14  C   LIG    1       25.860 -32.423   7.007  0.00  0.00    +0.025 C 
ATOM     15  C   LIG    1       24.801 -31.607   7.760  0.00  0.00    +0.081 C 
ATOM     16  O   LIG    1       23.709 -29.839   5.906  0.00  0.00    -0.268 OA
ATOM     17  N   LIG    1       25.814 -27.421   7.633  0.00  0.00    -0.335 NA
ATOM     18  C   LIG    1       26.031 -26.052   7.668  0.00  0.00    +0.103 C 
ENDROOT
BRANCH   1  20
ATOM     19  O   LIG    1       26.227 -23.313   8.055  0.00  0.00    -0.270 OA
ATOM     20  C   LIG    1       25.890 -23.734   6.947  0.00  0.00    +0.250 C 
ATOM     21  N   LIG    1       25.720 -22.919   5.860  0.00  0.00    -0.307 N 
ATOM     22  H   LIG    1       25.495 -23.345   4.959  0.00  0.00    +0.149 HD
BRANCH  21  23
ATOM     23  C   LIG    1       25.950 -21.492   5.909  0.00  0.00    +0.145 C 
BRANCH  23  24
ATOM     24  C   LIG    1       24.760 -20.715   5.431  0.00  0.00    +0.040 A 
ATOM     25  C   LIG    1       23.583 -20.632   6.179  0.00  0.00    +0.134 A 
ATOM     26  F   LIG    1       23.492 -21.269   7.355  0.00  0.00    -0.205 F 
ATOM     27  C   LIG    1       22.485 -19.899   5.733  0.00  0.00    +0.077 A 
ATOM     28  C   LIG    1       22.568 -19.232   4.518  0.00  0.00    +0.129 A 
ATOM     29  F   LIG    1       21.522 -18.519   4.082  0.00  0.00    -0.205 F 
ATOM     30  C   LIG    1       23.722 -19.290   3.749  0.00  0.00    +0.077 A 
ATOM     31  C   LIG    1       24.806 -20.027   4.215  0.00  0.00    +0.134 A 
ATOM     32  F   LIG    1       25.913 -20.074   3.462  0.00  0.00    -0.205 F 
ENDBRANCH  23  24
ENDBRANCH  21  23
ENDBRANCH   1  20
BRANCH   4  33
ATOM     33  O   LIG    1       23.724 -27.669   4.563  0.00  0.00    -0.502 OA
ATOM     34  H   LIG    1       23.513 -26.917   3.967  0.00  0.00    +0.292 HD
ENDBRANCH   4  33
TORSDOF 4
ENDMDL
MODEL 3
REMARK VINA RESULT:      -9.8      4.182      9.313
REMARK  Name = *****
REMARK                            x       y       z     vdW  Elec       q    Type
REMARK                         _______ _______ _______ _____ _____    ______ ____
ROOT
ATOM      1  C   LIG    1       25.628 -25.156   6.734  0.00  0.00    +0.103 C 
ATOM      2  C   LIG    1       24.928 -25.716   5.548  0.00  0.00    +0.236 C 
ATOM      3  O   LIG    1       24.671 -25.003   4.579  0.00  0.00    -0.283 OA
ATOM      4  C   LIG    1       24.522 -27.168   5.586  0.00  0.00    +0.194 C 
ATOM      5  C   LIG    1       24.978 -27.919   6.616  0.00  0.00    +0.150 C 
ATOM      6  C   LIG    1       24.532 -29.374   6.679  0.00  0.00    +0.269 C 
ATOM      7  N   LIG    1       25.106 -30.160   7.669  0.00  0.00    -0.266 N 
ATOM      8  C   LIG    1       26.365 -29.724   8.261  0.00  0.00    +0.229 C 
ATOM      9  C   LIG    1       26.264 -28.265   8.729  0.00  0.00    +0.173 C 
ATOM     10  O   LIG    1       26.758 -30.541   9.370  0.00  0.00    -0.354 OA
ATOM     11  C   LIG    1       26.458 -31.935   9.260  0.00  0.00    +0.122 C 
ATOM     12  C   LIG    1       24.952 -32.073   9.154  0.00  0.00    +0.054 C 
ATOM     13  C   LIG    1       26.991 -32.556   7.962  0.00  0.00    +0.033 C 
ATOM     14  C   LIG    1       25.838 -32.399   6.960  0.00  0.00    +0.025 C 
ATOM     15  C   LIG    1       24.786 -31.586   7.725  0.00  0.00    +0.081 C 
ATOM     16  O   LIG    1       23.688 -29.800   5.891  0.00  0.00    -0.268 OA
ATOM     17  N   LIG    1       25.811 -27.402   7.624  0.00  0.00    -0.335 NA
ATOM     18  C   LIG    1       26.032 -26.033   7.667  0.00  0.00    +0.103 C 
ENDROOT
BRANCH   1  20
ATOM     19  O   LIG    1       26.230 -23.297   8.075  0.00  0.00    -0.270 OA
ATOM     20  C   LIG    1       25.893 -23.709   6.964  0.00  0.00    +0.250 C 
ATOM     21  N   LIG    1       25.730 -22.888   5.881  0.00  0.00    -0.307 N 
ATOM     22  H   LIG    1       25.506 -23.307   4.977  0.00  0.00    +0.149 HD
BRANCH  21  23
ATOM     23  C   LIG    1       25.966 -21.461   5.939  0.00  0.00    +0.145 C 
BRANCH  23  24
ATOM     24  C   LIG    1       24.791 -20.678   5.437  0.00  0.00    +0.040 A 
ATOM     25  C   LIG    1       24.822 -20.002   4.214  0.00  0.00    +0.134 A 
ATOM     26  F   LIG    1       25.930 -20.035   3.460  0.00  0.00    -0.205 F 
ATOM     27  C   LIG    1       23.721 -19.285   3.749  0.00  0.00    +0.077 A 
ATOM     28  C   LIG    1       22.567 -19.246   4.520  0.00  0.00    +0.129 A 
ATOM     29  F   LIG    1       21.501 -18.566   4.080  0.00  0.00    -0.205 F 
ATOM     30  C   LIG    1       22.500 -19.907   5.738  0.00  0.00    +0.077 A 
ATOM     31  C   LIG    1       23.610 -20.617   6.182  0.00  0.00    +0.134 A 
ATOM     32  F   LIG    1       23.531 -21.250   7.360  0.00  0.00    -0.205 F 
ENDBRANCH  23  24
ENDBRANCH  21  23
ENDBRANCH   1  20
BRANCH   4  33
ATOM     33  O   LIG    1       23.702 -27.620   4.564  0.00  0.00    -0.502 OA
ATOM     34  H   LIG    1       23.105 -28.312   4.925  0.00  0.00    +0.292 HD
ENDBRANCH   4  33
TORSDOF 4
ENDMDL
MODEL 4
REMARK VINA RESULT:      -9.3      4.457     10.072
REMARK  Name = *****
REMARK                            x       y       z     vdW  Elec       q    Type
REMARK                         _______ _______ _______ _____ _____    ______ ____
ROOT
ATOM      1  C   LIG    1       25.688 -27.671   6.764  0.00  0.00    +0.103 C 
ATOM      2  C   LIG    1       24.897 -28.597   5.912  0.00  0.00    +0.236 C 
ATOM      3  O   LIG    1       24.798 -28.403   4.702  0.00  0.00    -0.283 OA
ATOM      4  C   LIG    1       24.201 -29.755   6.582  0.00  0.00    +0.194 C 
ATOM      5  C   LIG    1       24.486 -29.987   7.886  0.00  0.00    +0.150 C 
ATOM      6  C   LIG    1       23.751 -31.129   8.575  0.00  0.00    +0.269 C 
ATOM      7  N   LIG    1       24.144 -31.431   9.872  0.00  0.00    -0.266 N 
ATOM      8  C   LIG    1       25.461 -30.994  10.319  0.00  0.00    +0.229 C 
ATOM      9  C   LIG    1       25.659 -29.498  10.036  0.00  0.00    +0.173 C 
ATOM     10  O   LIG    1       25.670 -31.235  11.715  0.00  0.00    -0.354 OA
ATOM     11  C   LIG    1       25.092 -32.433  12.240  0.00  0.00    +0.122 C 
ATOM     12  C   LIG    1       23.590 -32.337  12.054  0.00  0.00    +0.054 C 
ATOM     13  C   LIG    1       25.495 -33.683  11.448  0.00  0.00    +0.033 C 
ATOM     14  C   LIG    1       24.406 -33.825  10.374  0.00  0.00    +0.025 C 
ATOM     15  C   LIG    1       23.538 -32.573  10.555  0.00  0.00    +0.081 C 
ATOM     16  O   LIG    1       22.843 -31.724   7.995  0.00  0.00    -0.268 OA
ATOM     17  N   LIG    1       25.400 -29.207   8.615  0.00  0.00    -0.335 NA
ATOM     18  C   LIG    1       25.897 -28.048   8.036  0.00  0.00    +0.103 C 
ENDROOT
BRANCH   1  20
ATOM     19  O   LIG    1       27.040 -26.301   5.379  0.00  0.00    -0.270 OA
ATOM     20  C   LIG    1       26.243 -26.363   6.317  0.00  0.00    +0.250 C 
ATOM     21  N   LIG    1       25.822 -25.262   7.013  0.00  0.00    -0.307 N 
ATOM     22  H   LIG    1       25.116 -25.382   7.741  0.00  0.00    +0.149 HD
BRANCH  21  23
ATOM     23  C   LIG    1       26.256 -23.920   6.690  0.00  0.00    +0.145 C 
BRANCH  23  24
ATOM     24  C   LIG    1       25.099 -23.004   6.427  0.00  0.00    +0.040 A 
ATOM     25  C   LIG    1       23.775 -23.435   6.540  0.00  0.00    +0.134 A 
ATOM     26  F   LIG    1       23.512 -24.705   6.880  0.00  0.00    -0.205 F 
ATOM     27  C   LIG    1       22.705 -22.574   6.304  0.00  0.00    +0.077 A 
ATOM     28  C   LIG    1       22.964 -21.256   5.954  0.00  0.00    +0.129 A 
ATOM     29  F   LIG    1       21.944 -20.418   5.731  0.00  0.00    -0.205 F 
ATOM     30  C   LIG    1       24.266 -20.792   5.834  0.00  0.00    +0.077 A 
ATOM     31  C   LIG    1       25.319 -21.669   6.075  0.00  0.00    +0.134 A 
ATOM     32  F   LIG    1       26.571 -21.208   5.957  0.00  0.00    -0.205 F 
ENDBRANCH  23  24
ENDBRANCH  21  23
ENDBRANCH   1  20
BRANCH   4  33
ATOM     33  O   LIG    1       23.313 -30.489   5.812  0.00  0.00    -0.502 OA
ATOM     34  H   LIG    1       22.844 -29.875   5.205  0.00  0.00    +0.292 HD
ENDBRANCH   4  33
TORSDOF 4
ENDMDL
MODEL 5
REMARK VINA RESULT:      -9.0      4.476      9.920
REMARK  Name = *****
REMARK                            x       y       z     vdW  Elec       q    Type
REMARK                         _______ _______ _______ _____ _____    ______ ____
ROOT
ATOM      1  C   LIG    1       25.312 -28.088   6.272  0.00  0.00    +0.103 C 
ATOM      2  C   LIG    1       24.649 -29.240   5.607  0.00  0.00    +0.236 C 
ATOM      3  O   LIG    1       24.568 -29.293   4.381  0.00  0.00    -0.283 OA
ATOM      4  C   LIG    1       24.057 -30.318   6.481  0.00  0.00    +0.194 C 
ATOM      5  C   LIG    1       24.325 -30.265   7.808  0.00  0.00    +0.150 C 
ATOM      6  C   LIG    1       23.692 -31.327   8.696  0.00  0.00    +0.269 C 
ATOM      7  N   LIG    1       24.075 -31.331  10.031  0.00  0.00    -0.266 N 
ATOM      8  C   LIG    1       25.324 -30.676  10.399  0.00  0.00    +0.229 C 
ATOM      9  C   LIG    1       25.372 -29.249   9.835  0.00  0.00    +0.173 C 
ATOM     10  O   LIG    1       25.514 -30.622  11.818  0.00  0.00    -0.354 OA
ATOM     11  C   LIG    1       25.048 -31.754  12.559  0.00  0.00    +0.122 C 
ATOM     12  C   LIG    1       23.551 -31.859  12.341  0.00  0.00    +0.054 C 
ATOM     13  C   LIG    1       25.605 -33.080  12.026  0.00  0.00    +0.033 C 
ATOM     14  C   LIG    1       24.571 -33.542  10.988  0.00  0.00    +0.025 C 
ATOM     15  C   LIG    1       23.570 -32.381  10.916  0.00  0.00    +0.081 C 
ATOM     16  O   LIG    1       22.871 -32.117   8.233  0.00  0.00    -0.268 OA
ATOM     17  N   LIG    1       25.128 -29.264   8.382  0.00  0.00    -0.335 NA
ATOM     18  C   LIG    1       25.519 -28.191   7.595  0.00  0.00    +0.103 C 
ENDROOT
BRANCH   1  20
ATOM     19  O   LIG    1       26.856 -26.747   5.073  0.00  0.00    -0.270 OA
ATOM     20  C   LIG    1       25.739 -26.837   5.587  0.00  0.00    +0.250 C 
ATOM     21  N   LIG    1       24.829 -25.814   5.577  0.00  0.00    -0.307 N 
ATOM     22  H   LIG    1       23.902 -25.980   5.972  0.00  0.00    +0.149 HD
BRANCH  21  23
ATOM     23  C   LIG    1       25.088 -24.543   4.937  0.00  0.00    +0.145 C 
BRANCH  23  24
ATOM     24  C   LIG    1       25.163 -23.421   5.929  0.00  0.00    +0.040 A 
ATOM     25  C   LIG    1       25.663 -23.608   7.219  0.00  0.00    +0.134 A 
ATOM     26  F   LIG    1       26.082 -24.822   7.605  0.00  0.00    -0.205 F 
ATOM     27  C   LIG    1       25.740 -22.557   8.132  0.00  0.00    +0.077 A 
ATOM     28  C   LIG    1       25.312 -21.295   7.743  0.00  0.00    +0.129 A 
ATOM     29  F   LIG    1       25.387 -20.276   8.609  0.00  0.00    -0.205 F 
ATOM     30  C   LIG    1       24.812 -21.071   6.469  0.00  0.00    +0.077 A 
ATOM     31  C   LIG    1       24.745 -22.135   5.575  0.00  0.00    +0.134 A 
ATOM     32  F   LIG    1       24.260 -21.905   4.347  0.00  0.00    -0.205 F 
ENDBRANCH  23  24
ENDBRANCH  21  23
ENDBRANCH   1  20
BRANCH   4  33
ATOM     33  O   LIG    1       23.276 -31.278   5.857  0.00  0.00    -0.502 OA
ATOM     34  H   LIG    1       22.669 -31.667   6.524  0.00  0.00    +0.292 HD
ENDBRANCH   4  33
TORSDOF 4
ENDMDL
MODEL 6
REMARK VINA RESULT:      -8.7      4.982      9.996
REMARK  Name = *****
REMARK                            x       y       z     vdW  Elec       q    Type
REMARK                         _______ _______ _______ _____ _____    ______ ____
ROOT
ATOM      1  C   LIG    1       25.270 -28.668   7.855  0.00  0.00    +0.103 C 
ATOM      2  C   LIG    1       24.288 -29.769   7.674  0.00  0.00    +0.236 C 
ATOM      3  O   LIG    1       23.829 -30.021   6.561  0.00  0.00    -0.283 OA
ATOM      4  C   LIG    1       23.854 -30.539   8.896  0.00  0.00    +0.194 C 
ATOM      5  C   LIG    1       24.519 -30.305  10.053  0.00  0.00    +0.150 C 
ATOM      6  C   LIG    1       24.053 -31.050  11.296  0.00  0.00    +0.269 C 
ATOM      7  N   LIG    1       24.821 -30.893  12.442  0.00  0.00    -0.266 N 
ATOM      8  C   LIG    1       26.199 -30.439  12.298  0.00  0.00    +0.229 C 
ATOM      9  C   LIG    1       26.263 -29.171  11.435  0.00  0.00    +0.173 C 
ATOM     10  O   LIG    1       26.820 -30.172  13.561  0.00  0.00    -0.354 OA
ATOM     11  C   LIG    1       26.456 -31.043  14.637  0.00  0.00    +0.122 C 
ATOM     12  C   LIG    1       24.965 -30.892  14.864  0.00  0.00    +0.054 C 
ATOM     13  C   LIG    1       26.640 -32.526  14.287  0.00  0.00    +0.033 C 
ATOM     14  C   LIG    1       25.286 -32.954  13.702  0.00  0.00    +0.025 C 
ATOM     15  C   LIG    1       24.476 -31.652  13.643  0.00  0.00    +0.081 C 
ATOM     16  O   LIG    1       23.030 -31.735  11.264  0.00  0.00    -0.268 OA
ATOM     17  N   LIG    1       25.586 -29.395  10.145  0.00  0.00    -0.335 NA
ATOM     18  C   LIG    1       25.857 -28.574   9.060  0.00  0.00    +0.103 C 
ENDROOT
BRANCH   1  20
ATOM     19  O   LIG    1       25.808 -28.005   5.644  0.00  0.00    -0.270 OA
ATOM     20  C   LIG    1       25.631 -27.666   6.815  0.00  0.00    +0.250 C 
ATOM     21  N   LIG    1       25.760 -26.373   7.245  0.00  0.00    -0.307 N 
ATOM     22  H   LIG    1       25.542 -26.156   8.219  0.00  0.00    +0.149 HD
BRANCH  21  23
ATOM     23  C   LIG    1       26.089 -25.282   6.354  0.00  0.00    +0.145 C 
BRANCH  23  24
ATOM     24  C   LIG    1       25.311 -24.041   6.675  0.00  0.00    +0.040 A 
ATOM     25  C   LIG    1       25.939 -22.853   7.056  0.00  0.00    +0.134 A 
ATOM     26  F   LIG    1       27.276 -22.805   7.155  0.00  0.00    -0.205 F 
ATOM     27  C   LIG    1       25.210 -21.701   7.342  0.00  0.00    +0.077 A 
ATOM     28  C   LIG    1       23.826 -21.737   7.239  0.00  0.00    +0.129 A 
ATOM     29  F   LIG    1       23.114 -20.634   7.505  0.00  0.00    -0.205 F 
ATOM     30  C   LIG    1       23.168 -22.898   6.861  0.00  0.00    +0.077 A 
ATOM     31  C   LIG    1       23.917 -24.036   6.580  0.00  0.00    +0.134 A 
ATOM     32  F   LIG    1       23.269 -25.150   6.216  0.00  0.00    -0.205 F 
ENDBRANCH  23  24
ENDBRANCH  21  23
ENDBRANCH   1  20
BRANCH   4  33
ATOM     33  O   LIG    1       22.797 -31.424   8.742  0.00  0.00    -0.502 OA
ATOM     34  H   LIG    1       22.926 -31.921   7.905  0.00  0.00    +0.292 HD
ENDBRANCH   4  33
TORSDOF 4
ENDMDL
MODEL 7
REMARK VINA RESULT:      -8.1      5.034      9.672
REMARK  Name = *****
REMARK                            x       y       z     vdW  Elec       q    Type
REMARK                         _______ _______ _______ _____ _____    ______ ____
ROOT
ATOM      1  C   LIG    1       29.255 -19.924   7.133  0.00  0.00    +0.103 C 
ATOM      2  C   LIG    1       28.639 -21.063   7.865  0.00  0.00    +0.236 C 
ATOM      3  O   LIG    1       29.171 -21.516   8.877  0.00  0.00    -0.283 OA
ATOM      4  C   LIG    1       27.368 -21.656   7.312  0.00  0.00    +0.194 C 
ATOM      5  C   LIG    1       26.765 -21.003   6.289  0.00  0.00    +0.150 C 
ATOM      6  C   LIG    1       25.506 -21.624   5.701  0.00  0.00    +0.269 C 
ATOM      7  N   LIG    1       24.834 -20.881   4.740  0.00  0.00    -0.266 N 
ATOM      8  C   LIG    1       25.074 -19.445   4.679  0.00  0.00    +0.229 C 
ATOM      9  C   LIG    1       26.579 -19.150   4.625  0.00  0.00    +0.173 C 
ATOM     10  O   LIG    1       24.440 -18.834   3.549  0.00  0.00    -0.354 OA
ATOM     11  C   LIG    1       23.166 -19.368   3.177  0.00  0.00    +0.122 C 
ATOM     12  C   LIG    1       23.372 -20.824   2.805  0.00  0.00    +0.054 C 
ATOM     13  C   LIG    1       22.176 -19.410   4.348  0.00  0.00    +0.033 C 
ATOM     14  C   LIG    1       22.388 -20.794   4.981  0.00  0.00    +0.025 C 
ATOM     15  C   LIG    1       23.571 -21.384   4.202  0.00  0.00    +0.081 C 
ATOM     16  O   LIG    1       25.136 -22.741   6.064  0.00  0.00    -0.268 OA
ATOM     17  N   LIG    1       27.271 -19.808   5.748  0.00  0.00    -0.335 NA
ATOM     18  C   LIG    1       28.525 -19.372   6.150  0.00  0.00    +0.103 C 
ENDROOT
BRANCH   1  20
ATOM     19  O   LIG    1       31.620 -19.937   6.970  0.00  0.00    -0.270 OA
ATOM     20  C   LIG    1       30.612 -19.372   7.399  0.00  0.00    +0.250 C 
ATOM     21  N   LIG    1       30.660 -18.225   8.144  0.00  0.00    -0.307 N 
ATOM     22  H   LIG    1       29.781 -17.781   8.417  0.00  0.00    +0.149 HD
BRANCH  21  23
ATOM     23  C   LIG    1       31.900 -17.557   8.473  0.00  0.00    +0.145 C 
BRANCH  23  24
ATOM     24  C   LIG    1       31.929 -17.097   9.899  0.00  0.00    +0.040 A 
ATOM     25  C   LIG    1       31.406 -17.873  10.937  0.00  0.00    +0.134 A 
ATOM     26  F   LIG    1       30.846 -19.061  10.666  0.00  0.00    -0.205 F 
ATOM     27  C   LIG    1       31.447 -17.443  12.261  0.00  0.00    +0.077 A 
ATOM     28  C   LIG    1       32.026 -16.216  12.555  0.00  0.00    +0.129 A 
ATOM     29  F   LIG    1       32.077 -15.796  13.825  0.00  0.00    -0.205 F 
ATOM     30  C   LIG    1       32.558 -15.420  11.551  0.00  0.00    +0.077 A 
ATOM     31  C   LIG    1       32.507 -15.870  10.236  0.00  0.00    +0.134 A 
ATOM     32  F   LIG    1       33.025 -15.091   9.276  0.00  0.00    -0.205 F 
ENDBRANCH  23  24
ENDBRANCH  21  23
ENDBRANCH   1  20
BRANCH   4  33
ATOM     33  O   LIG    1       26.918 -22.833   7.888  0.00  0.00    -0.502 OA
ATOM     34  H   LIG    1       26.400 -22.609   8.691  0.00  0.00    +0.292 HD
ENDBRANCH   4  33
TORSDOF 4
ENDMDL
MODEL 8
REMARK VINA RESULT:      -7.9      5.403     10.993
REMARK  Name = *****
REMARK                            x       y       z     vdW  Elec       q    Type
REMARK                         _______ _______ _______ _____ _____    ______ ____
ROOT
ATOM      1  C   LIG    1       25.263 -28.900   8.529  0.00  0.00    +0.103 C 
ATOM      2  C   LIG    1       26.319 -29.273   9.506  0.00  0.00    +0.236 C 
ATOM      3  O   LIG    1       27.429 -28.745   9.459  0.00  0.00    -0.283 OA
ATOM      4  C   LIG    1       25.996 -30.333  10.528  0.00  0.00    +0.194 C 
ATOM      5  C   LIG    1       24.709 -30.749  10.613  0.00  0.00    +0.150 C 
ATOM      6  C   LIG    1       24.390 -31.850  11.615  0.00  0.00    +0.269 C 
ATOM      7  N   LIG    1       23.050 -32.178  11.776  0.00  0.00    -0.266 N 
ATOM      8  C   LIG    1       22.043 -31.208  11.365  0.00  0.00    +0.229 C 
ATOM      9  C   LIG    1       22.307 -30.730   9.930  0.00  0.00    +0.173 C 
ATOM     10  O   LIG    1       20.714 -31.736  11.441  0.00  0.00    -0.354 OA
ATOM     11  C   LIG    1       20.454 -32.628  12.529  0.00  0.00    +0.122 C 
ATOM     12  C   LIG    1       21.370 -33.825  12.369  0.00  0.00    +0.054 C 
ATOM     13  C   LIG    1       20.838 -32.032  13.890  0.00  0.00    +0.033 C 
ATOM     14  C   LIG    1       22.297 -32.466  14.100  0.00  0.00    +0.025 C 
ATOM     15  C   LIG    1       22.672 -33.165  12.786  0.00  0.00    +0.081 C 
ATOM     16  O   LIG    1       25.296 -32.419  12.223  0.00  0.00    -0.268 OA
ATOM     17  N   LIG    1       23.686 -30.227   9.803  0.00  0.00    -0.335 NA
ATOM     18  C   LIG    1       24.031 -29.383   8.757  0.00  0.00    +0.103 C 
ENDROOT
BRANCH   1  20
ATOM     19  O   LIG    1       25.289 -28.506   6.191  0.00  0.00    -0.270 OA
ATOM     20  C   LIG    1       25.476 -28.054   7.322  0.00  0.00    +0.250 C 
ATOM     21  N   LIG    1       25.896 -26.772   7.552  0.00  0.00    -0.307 N 
ATOM     22  H   LIG    1       25.975 -26.448   8.518  0.00  0.00    +0.149 HD
BRANCH  21  23
ATOM     23  C   LIG    1       26.130 -25.822   6.486  0.00  0.00    +0.145 C 
BRANCH  23  24
ATOM     24  C   LIG    1       25.272 -24.601   6.623  0.00  0.00    +0.040 A 
ATOM     25  C   LIG    1       25.806 -23.357   6.969  0.00  0.00    +0.134 A 
ATOM     26  F   LIG    1       27.121 -23.235   7.200  0.00  0.00    -0.205 F 
ATOM     27  C   LIG    1       25.003 -22.224   7.083  0.00  0.00    +0.077 A 
ATOM     28  C   LIG    1       23.641 -22.337   6.843  0.00  0.00    +0.129 A 
ATOM     29  F   LIG    1       22.859 -21.253   6.944  0.00  0.00    -0.205 F 
ATOM     30  C   LIG    1       23.075 -23.555   6.496  0.00  0.00    +0.077 A 
ATOM     31  C   LIG    1       23.896 -24.672   6.387  0.00  0.00    +0.134 A 
ATOM     32  F   LIG    1       23.337 -25.842   6.050  0.00  0.00    -0.205 F 
ENDBRANCH  23  24
ENDBRANCH  21  23
ENDBRANCH   1  20
BRANCH   4  33
ATOM     33  O   LIG    1       27.045 -30.807  11.299  0.00  0.00    -0.502 OA
ATOM     34  H   LIG    1       27.131 -31.774  11.149  0.00  0.00    +0.292 HD
ENDBRANCH   4  33
TORSDOF 4
ENDMDL
MODEL 9
REMARK VINA RESULT:      -7.7      4.408      9.559
REMARK  Name = *****
REMARK                            x       y       z     vdW  Elec       q    Type
REMARK                         _______ _______ _______ _____ _____    ______ ____
ROOT
ATOM      1  C   LIG    1       24.534 -25.973   6.326  0.00  0.00    +0.103 C 
ATOM      2  C   LIG    1       25.221 -26.316   5.054  0.00  0.00    +0.236 C 
ATOM      3  O   LIG    1       25.525 -25.436   4.250  0.00  0.00    -0.283 OA
ATOM      4  C   LIG    1       25.504 -27.770   4.771  0.00  0.00    +0.194 C 
ATOM      5  C   LIG    1       25.282 -28.657   5.771  0.00  0.00    +0.150 C 
ATOM      6  C   LIG    1       25.525 -30.130   5.473  0.00  0.00    +0.269 C 
ATOM      7  N   LIG    1       25.411 -31.010   6.541  0.00  0.00    -0.266 N 
ATOM      8  C   LIG    1       25.522 -30.479   7.894  0.00  0.00    +0.229 C 
ATOM      9  C   LIG    1       24.578 -29.284   8.084  0.00  0.00    +0.173 C 
ATOM     10  O   LIG    1       25.231 -31.464   8.892  0.00  0.00    -0.354 OA
ATOM     11  C   LIG    1       25.662 -32.798   8.603  0.00  0.00    +0.122 C 
ATOM     12  C   LIG    1       24.942 -33.250   7.348  0.00  0.00    +0.054 C 
ATOM     13  C   LIG    1       27.150 -32.874   8.239  0.00  0.00    +0.033 C 
ATOM     14  C   LIG    1       27.180 -32.711   6.711  0.00  0.00    +0.025 C 
ATOM     15  C   LIG    1       25.720 -32.425   6.337  0.00  0.00    +0.081 C 
ATOM     16  O   LIG    1       25.788 -30.498   4.328  0.00  0.00    -0.268 OA
ATOM     17  N   LIG    1       24.816 -28.271   7.040  0.00  0.00    -0.335 NA
ATOM     18  C   LIG    1       24.400 -26.961   7.226  0.00  0.00    +0.103 C 
ENDROOT
BRANCH   1  20
ATOM     19  O   LIG    1       22.760 -24.435   6.651  0.00  0.00    -0.270 OA
ATOM     20  C   LIG    1       23.975 -24.634   6.661  0.00  0.00    +0.250 C 
ATOM     21  N   LIG    1       24.888 -23.660   6.964  0.00  0.00    -0.307 N 
ATOM     22  H   LIG    1       25.877 -23.912   7.009  0.00  0.00    +0.149 HD
BRANCH  21  23
ATOM     23  C   LIG    1       24.504 -22.313   7.326  0.00  0.00    +0.145 C 
BRANCH  23  24
ATOM     24  C   LIG    1       24.627 -21.364   6.173  0.00  0.00    +0.040 A 
ATOM     25  C   LIG    1       23.517 -20.956   5.429  0.00  0.00    +0.134 A 
ATOM     26  F   LIG    1       22.299 -21.426   5.734  0.00  0.00    -0.205 F 
ATOM     27  C   LIG    1       23.639 -20.065   4.365  0.00  0.00    +0.077 A 
ATOM     28  C   LIG    1       24.894 -19.569   4.041  0.00  0.00    +0.129 A 
ATOM     29  F   LIG    1       25.023 -18.707   3.025  0.00  0.00    -0.205 F 
ATOM     30  C   LIG    1       26.019 -19.950   4.759  0.00  0.00    +0.077 A 
ATOM     31  C   LIG    1       25.873 -20.840   5.818  0.00  0.00    +0.134 A 
ATOM     32  F   LIG    1       26.968 -21.199   6.502  0.00  0.00    -0.205 F 
ENDBRANCH  23  24
ENDBRANCH  21  23
ENDBRANCH   1  20
BRANCH   4  33
ATOM     33  O   LIG    1       25.963 -28.089   3.503  0.00  0.00    -0.502 OA
ATOM     34  H   LIG    1       26.883 -28.426   3.579  0.00  0.00    +0.292 HD
ENDBRANCH   4  33
TORSDOF 4
ENDMDL
