MODEL 1
REMARK VINA RESULT:      -4.0      0.000      0.000
REMARK  Name = *****
REMARK                            x       y       z     vdW  Elec       q    Type
REMARK                         _______ _______ _______ _____ _____    ______ ____
ROOT
ATOM      1  S   LIG    1       25.739 -17.699   3.232  0.00  0.00    -0.027 S 
ENDROOT
BRANCH   1   2
ATOM      2  C   LIG    1       25.513 -19.306   4.273  0.00  0.00    +0.120 C 
ATOM      3  S   LIG    1       26.906 -19.821   5.116  0.00  0.00    -0.027 S 
BRANCH   2   4
ATOM      4  N   LIG    1       24.185 -19.902   4.428  0.00  0.00    -0.319 N 
BRANCH   4   6
ATOM      5  C   LIG    1       22.245 -18.420   4.655  0.00  0.00    +0.024 C 
ATOM      6  C   LIG    1       23.087 -19.266   3.725  0.00  0.00    +0.103 C 
ENDBRANCH   4   6
BRANCH   4   7
ATOM      7  C   LIG    1       23.791 -21.091   5.411  0.00  0.00    +0.103 C 
ATOM      8  C   LIG    1       23.545 -20.768   6.956  0.00  0.00    +0.024 C 
ENDBRANCH   4   7
ENDBRANCH   2   4
ENDBRANCH   1   2
BRANCH   1   9
ATOM      9  S   LIG    1       27.403 -16.410   4.033  0.00  0.00    -0.027 S 
BRANCH   9  10
ATOM     10  C   LIG    1       26.941 -14.607   3.771  0.00  0.00    +0.120 C 
ATOM     11  S   LIG    1       28.239 -13.519   3.735  0.00  0.00    -0.027 S 
BRANCH  10  12
ATOM     12  N   LIG    1       25.590 -14.231   3.435  0.00  0.00    -0.319 N 
BRANCH  12  13
ATOM     13  C   LIG    1       25.114 -13.794   2.131  0.00  0.00    +0.103 C 
ATOM     14  C   LIG    1       24.833 -12.299   2.246  0.00  0.00    +0.024 C 
ENDBRANCH  12  13
BRANCH  12  15
ATOM     15  C   LIG    1       24.536 -13.976   4.398  0.00  0.00    +0.103 C 
ATOM     16  C   LIG    1       23.541 -14.903   4.284  0.00  0.00    +0.024 C 
ENDBRANCH  12  15
ENDBRANCH  10  12
ENDBRANCH   9  10
ENDBRANCH   1   9
TORSDOF 9
ENDMDL
MODEL 2
REMARK VINA RESULT:      -3.9      2.011      7.104
REMARK  Name = *****
REMARK                            x       y       z     vdW  Elec       q    Type
REMARK                         _______ _______ _______ _____ _____    ______ ____
ROOT
ATOM      1  S   LIG    1       25.572 -17.218   3.397  0.00  0.00    -0.027 S 
ENDROOT
BRANCH   1   2
ATOM      2  C   LIG    1       25.151 -15.352   3.639  0.00  0.00    +0.120 C 
ATOM      3  S   LIG    1       23.631 -15.043   4.353  0.00  0.00    -0.027 S 
BRANCH   2   4
ATOM      4  N   LIG    1       26.161 -14.327   3.368  0.00  0.00    -0.319 N 
BRANCH   4   6
ATOM      5  C   LIG    1       28.388 -13.375   3.750  0.00  0.00    +0.024 C 
ATOM      6  C   LIG    1       27.260 -14.215   4.308  0.00  0.00    +0.103 C 
ENDBRANCH   4   6
BRANCH   4   7
ATOM      7  C   LIG    1       26.100 -13.218   2.228  0.00  0.00    +0.103 C 
ATOM      8  C   LIG    1       24.800 -12.297   2.113  0.00  0.00    +0.024 C 
ENDBRANCH   4   7
ENDBRANCH   2   4
ENDBRANCH   1   2
BRANCH   1   9
ATOM      9  S   LIG    1       23.850 -18.546   3.981  0.00  0.00    -0.027 S 
BRANCH   9  10
ATOM     10  C   LIG    1       24.531 -20.237   4.444  0.00  0.00    +0.120 C 
ATOM     11  S   LIG    1       24.130 -21.498   3.388  0.00  0.00    -0.027 S 
BRANCH  10  12
ATOM     12  N   LIG    1       25.481 -20.381   5.519  0.00  0.00    -0.319 N 
BRANCH  12  13
ATOM     13  C   LIG    1       25.176 -20.697   6.907  0.00  0.00    +0.103 C 
ATOM     14  C   LIG    1       23.659 -20.821   7.003  0.00  0.00    +0.024 C 
ENDBRANCH  12  13
BRANCH  12  15
ATOM     15  C   LIG    1       26.874 -19.981   5.453  0.00  0.00    +0.103 C 
ATOM     16  C   LIG    1       27.554 -20.410   6.555  0.00  0.00    +0.024 C 
ENDBRANCH  12  15
ENDBRANCH  10  12
ENDBRANCH   9  10
ENDBRANCH   1   9
TORSDOF 9
ENDMDL
MODEL 3
REMARK VINA RESULT:      -3.9      2.028      6.990
REMARK  Name = *****
REMARK                            x       y       z     vdW  Elec       q    Type
REMARK                         _______ _______ _______ _____ _____    ______ ____
ROOT
ATOM      1  S   LIG    1       25.574 -17.300   3.382  0.00  0.00    -0.027 S 
ENDROOT
BRANCH   1   2
ATOM      2  C   LIG    1       25.240 -15.414   3.609  0.00  0.00    +0.120 C 
ATOM      3  S   LIG    1       23.728 -15.029   4.304  0.00  0.00    -0.027 S 
BRANCH   2   4
ATOM      4  N   LIG    1       26.301 -14.441   3.344  0.00  0.00    -0.319 N 
BRANCH   4   6
ATOM      5  C   LIG    1       25.112 -12.588   2.264  0.00  0.00    +0.024 C 
ATOM      6  C   LIG    1       26.185 -13.647   2.135  0.00  0.00    +0.103 C 
ENDBRANCH   4   6
BRANCH   4   7
ATOM      7  C   LIG    1       27.652 -14.267   4.168  0.00  0.00    +0.103 C 
ATOM      8  C   LIG    1       28.609 -13.033   3.833  0.00  0.00    +0.024 C 
ENDBRANCH   4   7
ENDBRANCH   2   4
ENDBRANCH   1   2
BRANCH   1   9
ATOM      9  S   LIG    1       23.827 -18.546   4.061  0.00  0.00    -0.027 S 
BRANCH   9  10
ATOM     10  C   LIG    1       24.457 -20.256   4.525  0.00  0.00    +0.120 C 
ATOM     11  S   LIG    1       24.129 -21.483   3.404  0.00  0.00    -0.027 S 
BRANCH  10  12
ATOM     12  N   LIG    1       25.322 -20.441   5.664  0.00  0.00    -0.319 N 
BRANCH  12  13
ATOM     13  C   LIG    1       24.905 -20.620   7.046  0.00  0.00    +0.103 C 
ATOM     14  C   LIG    1       23.410 -20.922   7.016  0.00  0.00    +0.024 C 
ENDBRANCH  12  13
BRANCH  12  15
ATOM     15  C   LIG    1       26.756 -20.220   5.660  0.00  0.00    +0.103 C 
ATOM     16  C   LIG    1       27.280 -20.423   6.903  0.00  0.00    +0.024 C 
ENDBRANCH  12  15
ENDBRANCH  10  12
ENDBRANCH   9  10
ENDBRANCH   1   9
TORSDOF 9
ENDMDL
MODEL 4
REMARK VINA RESULT:      -3.9      0.218      1.564
REMARK  Name = *****
REMARK                            x       y       z     vdW  Elec       q    Type
REMARK                         _______ _______ _______ _____ _____    ______ ____
ROOT
ATOM      1  S   LIG    1       25.850 -17.727   3.334  0.00  0.00    -0.027 S 
ENDROOT
BRANCH   1   2
ATOM      2  C   LIG    1       25.678 -19.319   4.407  0.00  0.00    +0.120 C 
ATOM      3  S   LIG    1       27.123 -19.846   5.151  0.00  0.00    -0.027 S 
BRANCH   2   4
ATOM      4  N   LIG    1       24.358 -19.895   4.666  0.00  0.00    -0.319 N 
BRANCH   4   6
ATOM      5  C   LIG    1       23.408 -20.784   6.744  0.00  0.00    +0.024 C 
ATOM      6  C   LIG    1       24.297 -21.045   5.548  0.00  0.00    +0.103 C 
ENDBRANCH   4   6
BRANCH   4   7
ATOM      7  C   LIG    1       22.993 -19.485   3.957  0.00  0.00    +0.103 C 
ATOM      8  C   LIG    1       22.180 -18.227   4.514  0.00  0.00    +0.024 C 
ENDBRANCH   4   7
ENDBRANCH   2   4
ENDBRANCH   1   2
BRANCH   1   9
ATOM      9  S   LIG    1       27.496 -16.386   4.083  0.00  0.00    -0.027 S 
BRANCH   9  10
ATOM     10  C   LIG    1       26.998 -14.599   3.776  0.00  0.00    +0.120 C 
ATOM     11  S   LIG    1       28.276 -13.492   3.681  0.00  0.00    -0.027 S 
BRANCH  10  12
ATOM     12  N   LIG    1       25.635 -14.257   3.454  0.00  0.00    -0.319 N 
BRANCH  12  13
ATOM     13  C   LIG    1       25.127 -13.864   2.147  0.00  0.00    +0.103 C 
ATOM     14  C   LIG    1       24.909 -12.355   2.200  0.00  0.00    +0.024 C 
ENDBRANCH  12  13
BRANCH  12  15
ATOM     15  C   LIG    1       24.594 -13.994   4.430  0.00  0.00    +0.103 C 
ATOM     16  C   LIG    1       23.560 -14.873   4.283  0.00  0.00    +0.024 C 
ENDBRANCH  12  15
ENDBRANCH  10  12
ENDBRANCH   9  10
ENDBRANCH   1   9
TORSDOF 9
ENDMDL
MODEL 5
REMARK VINA RESULT:      -3.8      2.006      3.045
REMARK  Name = *****
REMARK                            x       y       z     vdW  Elec       q    Type
REMARK                         _______ _______ _______ _____ _____    ______ ____
ROOT
ATOM      1  S   LIG    1       23.988 -18.430   3.942  0.00  0.00    -0.027 S 
ENDROOT
BRANCH   1   2
ATOM      2  C   LIG    1       24.608 -20.181   4.460  0.00  0.00    +0.120 C 
ATOM      3  S   LIG    1       24.102 -21.455   3.441  0.00  0.00    -0.027 S 
BRANCH   2   4
ATOM      4  N   LIG    1       25.571 -20.327   5.552  0.00  0.00    -0.319 N 
BRANCH   4   6
ATOM      5  C   LIG    1       23.549 -20.669   6.897  0.00  0.00    +0.024 C 
ATOM      6  C   LIG    1       25.057 -20.773   6.834  0.00  0.00    +0.103 C 
ENDBRANCH   4   6
BRANCH   4   7
ATOM      7  C   LIG    1       27.105 -19.903   5.523  0.00  0.00    +0.103 C 
ATOM      8  C   LIG    1       28.065 -20.389   6.704  0.00  0.00    +0.024 C 
ENDBRANCH   4   7
ENDBRANCH   2   4
ENDBRANCH   1   2
BRANCH   1   9
ATOM      9  S   LIG    1       25.694 -17.067   3.392  0.00  0.00    -0.027 S 
BRANCH   9  10
ATOM     10  C   LIG    1       25.157 -15.289   3.687  0.00  0.00    +0.120 C 
ATOM     11  S   LIG    1       23.614 -15.095   4.356  0.00  0.00    -0.027 S 
BRANCH  10  12
ATOM     12  N   LIG    1       26.088 -14.200   3.526  0.00  0.00    -0.319 N 
BRANCH  12  13
ATOM     13  C   LIG    1       26.279 -13.395   2.328  0.00  0.00    +0.103 C 
ATOM     14  C   LIG    1       25.027 -12.538   2.174  0.00  0.00    +0.024 C 
ENDBRANCH  12  13
BRANCH  12  15
ATOM     15  C   LIG    1       27.171 -13.894   4.442  0.00  0.00    +0.103 C 
ATOM     16  C   LIG    1       28.283 -13.493   3.760  0.00  0.00    +0.024 C 
ENDBRANCH  12  15
ENDBRANCH  10  12
ENDBRANCH   9  10
ENDBRANCH   1   9
TORSDOF 9
ENDMDL
MODEL 6
REMARK VINA RESULT:      -3.5      1.636      6.442
REMARK  Name = *****
REMARK                            x       y       z     vdW  Elec       q    Type
REMARK                         _______ _______ _______ _____ _____    ______ ____
ROOT
ATOM      1  S   LIG    1       26.180 -17.204   3.201  0.00  0.00    -0.027 S 
ENDROOT
BRANCH   1   2
ATOM      2  C   LIG    1       26.229 -15.326   3.635  0.00  0.00    +0.120 C 
ATOM      3  S   LIG    1       27.753 -14.741   4.135  0.00  0.00    -0.027 S 
BRANCH   2   4
ATOM      4  N   LIG    1       25.062 -14.480   3.378  0.00  0.00    -0.319 N 
BRANCH   4   6
ATOM      5  C   LIG    1       24.496 -12.319   2.367  0.00  0.00    +0.024 C 
ATOM      6  C   LIG    1       25.062 -13.706   2.152  0.00  0.00    +0.103 C 
ENDBRANCH   4   6
BRANCH   4   7
ATOM      7  C   LIG    1       23.856 -14.203   4.380  0.00  0.00    +0.103 C 
ATOM      8  C   LIG    1       22.845 -15.392   4.722  0.00  0.00    +0.024 C 
ENDBRANCH   4   7
ENDBRANCH   2   4
ENDBRANCH   1   2
BRANCH   1   9
ATOM      9  S   LIG    1       24.293 -18.185   3.940  0.00  0.00    -0.027 S 
BRANCH   9  10
ATOM     10  C   LIG    1       24.675 -19.979   4.354  0.00  0.00    +0.120 C 
ATOM     11  S   LIG    1       24.199 -21.112   3.189  0.00  0.00    -0.027 S 
BRANCH  10  12
ATOM     12  N   LIG    1       25.488 -20.317   5.496  0.00  0.00    -0.319 N 
BRANCH  12  13
ATOM     13  C   LIG    1       25.008 -20.719   6.810  0.00  0.00    +0.103 C 
ATOM     14  C   LIG    1       23.485 -20.642   6.762  0.00  0.00    +0.024 C 
ENDBRANCH  12  13
BRANCH  12  15
ATOM     15  C   LIG    1       26.912 -20.061   5.604  0.00  0.00    +0.103 C 
ATOM     16  C   LIG    1       27.377 -20.427   6.833  0.00  0.00    +0.024 C 
ENDBRANCH  12  15
ENDBRANCH  10  12
ENDBRANCH   9  10
ENDBRANCH   1   9
TORSDOF 9
ENDMDL
MODEL 7
REMARK VINA RESULT:      -3.4      1.568      2.270
REMARK  Name = *****
REMARK                            x       y       z     vdW  Elec       q    Type
REMARK                         _______ _______ _______ _____ _____    ______ ____
ROOT
ATOM      1  S   LIG    1       24.663 -17.953   3.733  0.00  0.00    -0.027 S 
ENDROOT
BRANCH   1   2
ATOM      2  C   LIG    1       24.903 -19.785   4.282  0.00  0.00    +0.120 C 
ATOM      3  S   LIG    1       24.324 -20.951   3.176  0.00  0.00    -0.027 S 
BRANCH   2   4
ATOM      4  N   LIG    1       25.677 -20.098   5.484  0.00  0.00    -0.319 N 
BRANCH   4   6
ATOM      5  C   LIG    1       27.790 -20.232   6.721  0.00  0.00    +0.024 C 
ATOM      6  C   LIG    1       27.122 -20.029   5.379  0.00  0.00    +0.103 C 
ENDBRANCH   4   6
BRANCH   4   7
ATOM      7  C   LIG    1       25.102 -20.657   6.859  0.00  0.00    +0.103 C 
ATOM      8  C   LIG    1       23.522 -20.812   7.032  0.00  0.00    +0.024 C 
ENDBRANCH   4   7
ENDBRANCH   2   4
ENDBRANCH   1   2
BRANCH   1   9
ATOM      9  S   LIG    1       26.632 -16.920   3.381  0.00  0.00    -0.027 S 
BRANCH   9  10
ATOM     10  C   LIG    1       26.407 -15.080   3.696  0.00  0.00    +0.120 C 
ATOM     11  S   LIG    1       27.810 -14.238   4.132  0.00  0.00    -0.027 S 
BRANCH  10  12
ATOM     12  N   LIG    1       25.158 -14.426   3.393  0.00  0.00    -0.319 N 
BRANCH  12  13
ATOM     13  C   LIG    1       24.802 -13.783   2.136  0.00  0.00    +0.103 C 
ATOM     14  C   LIG    1       24.740 -12.284   2.415  0.00  0.00    +0.024 C 
ENDBRANCH  12  13
BRANCH  12  15
ATOM     15  C   LIG    1       24.149 -14.070   4.373  0.00  0.00    +0.103 C 
ATOM     16  C   LIG    1       23.208 -15.053   4.477  0.00  0.00    +0.024 C 
ENDBRANCH  12  15
ENDBRANCH  10  12
ENDBRANCH   9  10
ENDBRANCH   1   9
TORSDOF 9
ENDMDL
MODEL 8
REMARK VINA RESULT:      -3.3      2.129      3.266
REMARK  Name = *****
REMARK                            x       y       z     vdW  Elec       q    Type
REMARK                         _______ _______ _______ _____ _____    ______ ____
ROOT
ATOM      1  S   LIG    1       24.363 -17.200   3.757  0.00  0.00    -0.027 S 
ENDROOT
BRANCH   1   2
ATOM      2  C   LIG    1       23.273 -18.715   4.240  0.00  0.00    +0.120 C 
ATOM      3  S   LIG    1       21.592 -18.488   4.036  0.00  0.00    -0.027 S 
BRANCH   2   4
ATOM      4  N   LIG    1       23.899 -19.992   4.590  0.00  0.00    -0.319 N 
BRANCH   4   6
ATOM      5  C   LIG    1       23.316 -20.657   6.876  0.00  0.00    +0.024 C 
ATOM      6  C   LIG    1       23.121 -20.912   5.398  0.00  0.00    +0.103 C 
ENDBRANCH   4   6
BRANCH   4   7
ATOM      7  C   LIG    1       25.406 -20.415   4.303  0.00  0.00    +0.103 C 
ATOM      8  C   LIG    1       26.523 -20.090   5.397  0.00  0.00    +0.024 C 
ENDBRANCH   4   7
ENDBRANCH   2   4
ENDBRANCH   1   2
BRANCH   1   9
ATOM      9  S   LIG    1       23.447 -15.259   4.439  0.00  0.00    -0.027 S 
BRANCH   9  10
ATOM     10  C   LIG    1       24.680 -13.875   4.125  0.00  0.00    +0.120 C 
ATOM     11  S   LIG    1       24.004 -12.379   3.708  0.00  0.00    -0.027 S 
BRANCH  10  12
ATOM     12  N   LIG    1       26.080 -14.052   4.417  0.00  0.00    -0.319 N 
BRANCH  12  13
ATOM     13  C   LIG    1       26.805 -13.498   5.551  0.00  0.00    +0.103 C 
ATOM     14  C   LIG    1       28.065 -12.847   4.989  0.00  0.00    +0.024 C 
ENDBRANCH  12  13
BRANCH  12  15
ATOM     15  C   LIG    1       27.057 -14.595   3.492  0.00  0.00    +0.103 C 
ATOM     16  C   LIG    1       26.755 -14.246   2.208  0.00  0.00    +0.024 C 
ENDBRANCH  12  15
ENDBRANCH  10  12
ENDBRANCH   9  10
ENDBRANCH   1   9
TORSDOF 9
ENDMDL
MODEL 9
REMARK VINA RESULT:      -3.3      1.999      3.083
REMARK  Name = *****
REMARK                            x       y       z     vdW  Elec       q    Type
REMARK                         _______ _______ _______ _____ _____    ______ ____
ROOT
ATOM      1  S   LIG    1       23.930 -18.318   4.056  0.00  0.00    -0.027 S 
ENDROOT
BRANCH   1   2
ATOM      2  C   LIG    1       24.479 -20.122   4.456  0.00  0.00    +0.120 C 
ATOM      3  S   LIG    1       24.206 -21.252   3.205  0.00  0.00    -0.027 S 
BRANCH   2   4
ATOM      4  N   LIG    1       25.218 -20.411   5.685  0.00  0.00    -0.319 N 
BRANCH   4   6
ATOM      5  C   LIG    1       27.298 -20.554   6.976  0.00  0.00    +0.024 C 
ATOM      6  C   LIG    1       26.666 -20.363   5.615  0.00  0.00    +0.103 C 
ENDBRANCH   4   6
BRANCH   4   7
ATOM      7  C   LIG    1       24.602 -20.925   7.060  0.00  0.00    +0.103 C 
ATOM      8  C   LIG    1       23.140 -21.568   7.061  0.00  0.00    +0.024 C 
ENDBRANCH   4   7
ENDBRANCH   2   4
ENDBRANCH   1   2
BRANCH   1   9
ATOM      9  S   LIG    1       25.650 -17.063   3.324  0.00  0.00    -0.027 S 
BRANCH   9  10
ATOM     10  C   LIG    1       25.230 -15.251   3.603  0.00  0.00    +0.120 C 
ATOM     11  S   LIG    1       23.713 -14.954   4.295  0.00  0.00    -0.027 S 
BRANCH  10  12
ATOM     12  N   LIG    1       26.223 -14.224   3.413  0.00  0.00    -0.319 N 
BRANCH  12  13
ATOM     13  C   LIG    1       27.414 -14.012   4.222  0.00  0.00    +0.103 C 
ATOM     14  C   LIG    1       26.956 -13.321   5.502  0.00  0.00    +0.024 C 
ENDBRANCH  12  13
BRANCH  12  15
ATOM     15  C   LIG    1       26.068 -13.071   2.545  0.00  0.00    +0.103 C 
ATOM     16  C   LIG    1       24.749 -12.828   2.294  0.00  0.00    +0.024 C 
ENDBRANCH  12  15
ENDBRANCH  10  12
ENDBRANCH   9  10
ENDBRANCH   1   9
TORSDOF 9
ENDMDL
