MODEL 1
REMARK VINA RESULT:      -3.7      0.000      0.000
REMARK  Name = *****
REMARK                            x       y       z     vdW  Elec       q    Type
REMARK                         _______ _______ _______ _____ _____    ______ ____
ROOT
ATOM      1  C   LIG    1       26.096 -18.799   4.013  0.00  0.00    +0.157 A 
ATOM      2  C   LIG    1       27.328 -18.451   4.533  0.00  0.00    +0.161 A 
ATOM      3  N   LIG    1       27.921 -17.251   4.355  0.00  0.00    -0.218 NA
ATOM      4  C   LIG    1       27.200 -16.369   3.666  0.00  0.00    +0.235 A 
ATOM      5  N   LIG    1       25.980 -16.549   3.154  0.00  0.00    -0.218 NA
ATOM      6  C   LIG    1       25.462 -17.787   3.322  0.00  0.00    +0.161 A 
ENDROOT
BRANCH   4   7
ATOM      7  N   LIG    1       27.802 -15.159   3.346  0.00  0.00    -0.184 N 
ATOM      8  H   LIG    1       28.813 -15.242   3.329  0.00  0.00    +0.177 HD
BRANCH   7   9
ATOM      9  S   LIG    1       27.387 -13.919   4.395  0.00  0.00    +0.075 S 
ATOM     10  O   LIG    1       28.441 -12.932   4.264  0.00  0.00    -0.150 OA
ATOM     11  O   LIG    1       27.047 -14.450   5.697  0.00  0.00    -0.150 OA
BRANCH   9  12
ATOM     12  C   LIG    1       25.934 -13.173   3.693  0.00  0.00    +0.109 A 
ATOM     13  C   LIG    1       24.863 -12.827   4.523  0.00  0.00    +0.029 A 
ATOM     14  C   LIG    1       23.787 -12.109   3.999  0.00  0.00    +0.002 A 
ATOM     15  C   LIG    1       23.781 -11.746   2.650  0.00  0.00    +0.000 A 
ATOM     16  C   LIG    1       24.847 -12.105   1.822  0.00  0.00    +0.002 A 
ATOM     17  C   LIG    1       25.929 -12.813   2.341  0.00  0.00    +0.029 A 
ENDBRANCH   9  12
ENDBRANCH   7   9
ENDBRANCH   4   7
BRANCH   1  18
ATOM     18  O   LIG    1       25.662 -20.070   4.228  0.00  0.00    -0.487 OA
BRANCH  18  19
ATOM     19  C   LIG    1       24.336 -20.378   3.790  0.00  0.00    +0.257 C 
BRANCH  19  20
ATOM     20  C   LIG    1       23.524 -20.879   4.982  0.00  0.00    +0.200 C 
BRANCH  20  22
ATOM     21  C   LIG    1       22.221 -18.966   4.532  0.00  0.00    +0.194 C 
ATOM     22  O   LIG    1       22.792 -19.790   5.542  0.00  0.00    -0.380 OA
ENDBRANCH  20  22
ENDBRANCH  19  20
ENDBRANCH  18  19
ENDBRANCH   1  18
TORSDOF 7
ENDMDL
MODEL 2
REMARK VINA RESULT:      -3.0      1.040      1.652
REMARK  Name = *****
REMARK                            x       y       z     vdW  Elec       q    Type
REMARK                         _______ _______ _______ _____ _____    ______ ____
ROOT
ATOM      1  C   LIG    1       26.059 -18.500   3.692  0.00  0.00    +0.157 A 
ATOM      2  C   LIG    1       25.440 -17.331   3.292  0.00  0.00    +0.161 A 
ATOM      3  N   LIG    1       25.972 -16.098   3.432  0.00  0.00    -0.218 NA
ATOM      4  C   LIG    1       27.198 -16.076   3.952  0.00  0.00    +0.235 A 
ATOM      5  N   LIG    1       27.933 -17.124   4.329  0.00  0.00    -0.218 NA
ATOM      6  C   LIG    1       27.325 -18.326   4.211  0.00  0.00    +0.161 A 
ENDROOT
BRANCH   4   7
ATOM      7  N   LIG    1       27.753 -14.834   4.233  0.00  0.00    -0.184 N 
ATOM      8  H   LIG    1       27.412 -14.468   5.115  0.00  0.00    +0.177 HD
BRANCH   7   9
ATOM      9  S   LIG    1       27.462 -13.696   3.036  0.00  0.00    +0.075 S 
ATOM     10  O   LIG    1       27.256 -14.457   1.819  0.00  0.00    -0.150 OA
ATOM     11  O   LIG    1       28.462 -12.651   3.079  0.00  0.00    -0.150 OA
BRANCH   9  12
ATOM     12  C   LIG    1       25.883 -12.984   3.436  0.00  0.00    +0.109 A 
ATOM     13  C   LIG    1       25.501 -12.851   4.775  0.00  0.00    +0.029 A 
ATOM     14  C   LIG    1       24.332 -12.160   5.094  0.00  0.00    +0.002 A 
ATOM     15  C   LIG    1       23.546 -11.611   4.079  0.00  0.00    +0.000 A 
ATOM     16  C   LIG    1       23.924 -11.757   2.742  0.00  0.00    +0.002 A 
ATOM     17  C   LIG    1       25.096 -12.438   2.416  0.00  0.00    +0.029 A 
ENDBRANCH   9  12
ENDBRANCH   7   9
ENDBRANCH   4   7
BRANCH   1  18
ATOM     18  O   LIG    1       25.364 -19.660   3.539  0.00  0.00    -0.487 OA
BRANCH  18  19
ATOM     19  C   LIG    1       25.279 -20.511   4.685  0.00  0.00    +0.257 C 
BRANCH  19  20
ATOM     20  C   LIG    1       23.853 -21.046   4.800  0.00  0.00    +0.200 C 
BRANCH  20  22
ATOM     21  C   LIG    1       22.346 -19.235   4.877  0.00  0.00    +0.194 C 
ATOM     22  O   LIG    1       23.093 -20.178   5.638  0.00  0.00    -0.380 OA
ENDBRANCH  20  22
ENDBRANCH  19  20
ENDBRANCH  18  19
ENDBRANCH   1  18
TORSDOF 7
ENDMDL
MODEL 3
REMARK VINA RESULT:      -2.7      2.594      3.510
REMARK  Name = *****
REMARK                            x       y       z     vdW  Elec       q    Type
REMARK                         _______ _______ _______ _____ _____    ______ ____
ROOT
ATOM      1  C   LIG    1       23.487 -18.168   3.806  0.00  0.00    +0.157 A 
ATOM      2  C   LIG    1       24.570 -17.328   3.627  0.00  0.00    +0.161 A 
ATOM      3  N   LIG    1       24.583 -16.017   3.953  0.00  0.00    -0.218 NA
ATOM      4  C   LIG    1       23.465 -15.575   4.527  0.00  0.00    +0.235 A 
ATOM      5  N   LIG    1       22.369 -16.281   4.809  0.00  0.00    -0.218 NA
ATOM      6  C   LIG    1       22.399 -17.574   4.412  0.00  0.00    +0.161 A 
ENDROOT
BRANCH   4   7
ATOM      7  N   LIG    1       23.370 -14.211   4.776  0.00  0.00    -0.184 N 
ATOM      8  H   LIG    1       22.404 -13.924   4.898  0.00  0.00    +0.177 HD
BRANCH   7   9
ATOM      9  S   LIG    1       24.056 -13.271   3.570  0.00  0.00    +0.075 S 
ATOM     10  O   LIG    1       23.688 -11.905   3.886  0.00  0.00    -0.150 OA
ATOM     11  O   LIG    1       23.754 -13.821   2.266  0.00  0.00    -0.150 OA
BRANCH   9  12
ATOM     12  C   LIG    1       25.811 -13.373   3.833  0.00  0.00    +0.109 A 
ATOM     13  C   LIG    1       26.676 -13.418   2.734  0.00  0.00    +0.029 A 
ATOM     14  C   LIG    1       28.055 -13.349   2.936  0.00  0.00    +0.002 A 
ATOM     15  C   LIG    1       28.565 -13.242   4.231  0.00  0.00    +0.000 A 
ATOM     16  C   LIG    1       27.699 -13.211   5.327  0.00  0.00    +0.002 A 
ATOM     17  C   LIG    1       26.320 -13.270   5.132  0.00  0.00    +0.029 A 
ENDBRANCH   9  12
ENDBRANCH   7   9
ENDBRANCH   4   7
BRANCH   1  18
ATOM     18  O   LIG    1       23.610 -19.449   3.369  0.00  0.00    -0.487 OA
BRANCH  18  19
ATOM     19  C   LIG    1       24.846 -20.109   3.657  0.00  0.00    +0.257 C 
BRANCH  19  20
ATOM     20  C   LIG    1       24.594 -21.200   4.696  0.00  0.00    +0.200 C 
BRANCH  20  22
ATOM     21  C   LIG    1       23.378 -20.749   6.664  0.00  0.00    +0.194 C 
ATOM     22  O   LIG    1       24.630 -20.624   6.000  0.00  0.00    -0.380 OA
ENDBRANCH  20  22
ENDBRANCH  19  20
ENDBRANCH  18  19
ENDBRANCH   1  18
TORSDOF 7
ENDMDL
MODEL 4
REMARK VINA RESULT:      -2.4      2.919      7.144
REMARK  Name = *****
REMARK                            x       y       z     vdW  Elec       q    Type
REMARK                         _______ _______ _______ _____ _____    ______ ____
ROOT
ATOM      1  C   LIG    1       23.836 -15.293   4.251  0.00  0.00    +0.157 A 
ATOM      2  C   LIG    1       24.709 -16.231   3.733  0.00  0.00    +0.161 A 
ATOM      3  N   LIG    1       24.483 -17.563   3.728  0.00  0.00    -0.218 NA
ATOM      4  C   LIG    1       23.303 -17.930   4.224  0.00  0.00    +0.235 A 
ATOM      5  N   LIG    1       22.347 -17.134   4.705  0.00  0.00    -0.218 NA
ATOM      6  C   LIG    1       22.653 -15.817   4.730  0.00  0.00    +0.161 A 
ENDROOT
BRANCH   4   7
ATOM      7  N   LIG    1       23.060 -19.292   4.357  0.00  0.00    -0.184 N 
ATOM      8  H   LIG    1       22.916 -19.549   5.328  0.00  0.00    +0.177 HD
BRANCH   7   9
ATOM      9  S   LIG    1       24.289 -20.245   3.731  0.00  0.00    +0.075 S 
ATOM     10  O   LIG    1       24.940 -19.428   2.725  0.00  0.00    -0.150 OA
ATOM     11  O   LIG    1       23.785 -21.558   3.387  0.00  0.00    -0.150 OA
BRANCH   9  12
ATOM     12  C   LIG    1       25.468 -20.421   5.049  0.00  0.00    +0.109 A 
ATOM     13  C   LIG    1       25.201 -21.298   6.106  0.00  0.00    +0.029 A 
ATOM     14  C   LIG    1       26.187 -21.548   7.062  0.00  0.00    +0.002 A 
ATOM     15  C   LIG    1       27.430 -20.919   6.964  0.00  0.00    +0.000 A 
ATOM     16  C   LIG    1       27.688 -20.033   5.915  0.00  0.00    +0.002 A 
ATOM     17  C   LIG    1       26.711 -19.786   4.951  0.00  0.00    +0.029 A 
ENDBRANCH   9  12
ENDBRANCH   7   9
ENDBRANCH   4   7
BRANCH   1  18
ATOM     18  O   LIG    1       24.237 -13.993   4.238  0.00  0.00    -0.487 OA
BRANCH  18  19
ATOM     19  C   LIG    1       24.282 -13.349   2.962  0.00  0.00    +0.257 C 
BRANCH  19  20
ATOM     20  C   LIG    1       25.710 -13.414   2.425  0.00  0.00    +0.200 C 
BRANCH  20  22
ATOM     21  C   LIG    1       27.746 -14.033   3.439  0.00  0.00    +0.194 C 
ATOM     22  O   LIG    1       26.624 -13.159   3.490  0.00  0.00    -0.380 OA
ENDBRANCH  20  22
ENDBRANCH  19  20
ENDBRANCH  18  19
ENDBRANCH   1  18
TORSDOF 7
ENDMDL
MODEL 5
REMARK VINA RESULT:      -2.2      2.451      6.715
REMARK  Name = *****
REMARK                            x       y       z     vdW  Elec       q    Type
REMARK                         _______ _______ _______ _____ _____    ______ ____
ROOT
ATOM      1  C   LIG    1       26.998 -16.050   3.668  0.00  0.00    +0.157 A 
ATOM      2  C   LIG    1       26.103 -17.053   3.348  0.00  0.00    +0.161 A 
ATOM      3  N   LIG    1       26.255 -18.351   3.691  0.00  0.00    -0.218 NA
ATOM      4  C   LIG    1       27.333 -18.610   4.427  0.00  0.00    +0.235 A 
ATOM      5  N   LIG    1       28.249 -17.737   4.853  0.00  0.00    -0.218 NA
ATOM      6  C   LIG    1       28.068 -16.464   4.434  0.00  0.00    +0.161 A 
ENDROOT
BRANCH   4   7
ATOM      7  N   LIG    1       27.611 -19.941   4.710  0.00  0.00    -0.184 N 
ATOM      8  H   LIG    1       27.205 -20.560   4.015  0.00  0.00    +0.177 HD
BRANCH   7   9
ATOM      9  S   LIG    1       27.075 -20.419   6.225  0.00  0.00    +0.075 S 
ATOM     10  O   LIG    1       27.041 -19.209   7.023  0.00  0.00    -0.150 OA
ATOM     11  O   LIG    1       27.819 -21.572   6.685  0.00  0.00    -0.150 OA
BRANCH   9  12
ATOM     12  C   LIG    1       25.378 -20.896   5.997  0.00  0.00    +0.109 A 
ATOM     13  C   LIG    1       24.478 -20.788   7.062  0.00  0.00    +0.029 A 
ATOM     14  C   LIG    1       23.119 -21.020   6.845  0.00  0.00    +0.002 A 
ATOM     15  C   LIG    1       22.666 -21.367   5.570  0.00  0.00    +0.000 A 
ATOM     16  C   LIG    1       23.569 -21.487   4.512  0.00  0.00    +0.002 A 
ATOM     17  C   LIG    1       24.927 -21.247   4.719  0.00  0.00    +0.029 A 
ENDBRANCH   9  12
ENDBRANCH   7   9
ENDBRANCH   4   7
BRANCH   1  18
ATOM     18  O   LIG    1       26.734 -14.802   3.195  0.00  0.00    -0.487 OA
BRANCH  18  19
ATOM     19  C   LIG    1       26.594 -13.765   4.169  0.00  0.00    +0.257 C 
BRANCH  19  20
ATOM     20  C   LIG    1       25.128 -13.672   4.588  0.00  0.00    +0.200 C 
BRANCH  20  22
ATOM     21  C   LIG    1       24.138 -12.128   3.107  0.00  0.00    +0.194 C 
ATOM     22  O   LIG    1       24.319 -13.503   3.426  0.00  0.00    -0.380 OA
ENDBRANCH  20  22
ENDBRANCH  19  20
ENDBRANCH  18  19
ENDBRANCH   1  18
TORSDOF 7
ENDMDL
MODEL 6
REMARK VINA RESULT:      -1.6      2.699      7.227
REMARK  Name = *****
REMARK                            x       y       z     vdW  Elec       q    Type
REMARK                         _______ _______ _______ _____ _____    ______ ____
ROOT
ATOM      1  C   LIG    1       25.066 -14.584   3.259  0.00  0.00    +0.157 A 
ATOM      2  C   LIG    1       23.871 -14.219   3.849  0.00  0.00    +0.161 A 
ATOM      3  N   LIG    1       23.015 -15.083   4.438  0.00  0.00    -0.218 NA
ATOM      4  C   LIG    1       23.429 -16.348   4.463  0.00  0.00    +0.235 A 
ATOM      5  N   LIG    1       24.577 -16.831   3.983  0.00  0.00    -0.218 NA
ATOM      6  C   LIG    1       25.367 -15.926   3.361  0.00  0.00    +0.161 A 
ENDROOT
BRANCH   4   7
ATOM      7  N   LIG    1       22.543 -17.303   4.946  0.00  0.00    -0.184 N 
ATOM      8  H   LIG    1       22.727 -17.519   5.920  0.00  0.00    +0.177 HD
BRANCH   7   9
ATOM      9  S   LIG    1       22.569 -18.730   4.068  0.00  0.00    +0.075 S 
ATOM     10  O   LIG    1       23.439 -18.474   2.936  0.00  0.00    -0.150 OA
ATOM     11  O   LIG    1       21.223 -19.218   3.855  0.00  0.00    -0.150 OA
BRANCH   9  12
ATOM     12  C   LIG    1       23.437 -19.897   5.091  0.00  0.00    +0.109 A 
ATOM     13  C   LIG    1       24.803 -20.118   4.886  0.00  0.00    +0.029 A 
ATOM     14  C   LIG    1       25.515 -20.919   5.779  0.00  0.00    +0.002 A 
ATOM     15  C   LIG    1       24.862 -21.501   6.867  0.00  0.00    +0.000 A 
ATOM     16  C   LIG    1       23.495 -21.289   7.062  0.00  0.00    +0.002 A 
ATOM     17  C   LIG    1       22.779 -20.482   6.179  0.00  0.00    +0.029 A 
ENDBRANCH   9  12
ENDBRANCH   7   9
ENDBRANCH   4   7
BRANCH   1  18
ATOM     18  O   LIG    1       25.788 -13.604   2.652  0.00  0.00    -0.487 OA
BRANCH  18  19
ATOM     19  C   LIG    1       27.187 -13.848   2.485  0.00  0.00    +0.257 C 
BRANCH  19  20
ATOM     20  C   LIG    1       27.953 -13.126   3.591  0.00  0.00    +0.200 C 
BRANCH  20  22
ATOM     21  C   LIG    1       27.166 -13.430   5.793  0.00  0.00    +0.194 C 
ATOM     22  O   LIG    1       27.987 -13.951   4.754  0.00  0.00    -0.380 OA
ENDBRANCH  20  22
ENDBRANCH  19  20
ENDBRANCH  18  19
ENDBRANCH   1  18
TORSDOF 7
ENDMDL
MODEL 7
REMARK VINA RESULT:      -1.5      2.333      3.350
REMARK  Name = *****
REMARK                            x       y       z     vdW  Elec       q    Type
REMARK                         _______ _______ _______ _____ _____    ______ ____
ROOT
ATOM      1  C   LIG    1       25.117 -19.584   4.315  0.00  0.00    +0.157 A 
ATOM      2  C   LIG    1       26.309 -18.935   4.056  0.00  0.00    +0.161 A 
ATOM      3  N   LIG    1       26.405 -17.691   3.538  0.00  0.00    -0.218 NA
ATOM      4  C   LIG    1       25.238 -17.083   3.330  0.00  0.00    +0.235 A 
ATOM      5  N   LIG    1       24.020 -17.566   3.583  0.00  0.00    -0.218 NA
ATOM      6  C   LIG    1       23.990 -18.833   4.053  0.00  0.00    +0.161 A 
ENDROOT
BRANCH   4   7
ATOM      7  N   LIG    1       25.263 -15.851   2.688  0.00  0.00    -0.184 N 
ATOM      8  H   LIG    1       26.185 -15.646   2.317  0.00  0.00    +0.177 HD
BRANCH   7   9
ATOM      9  S   LIG    1       24.794 -14.582   3.678  0.00  0.00    +0.075 S 
ATOM     10  O   LIG    1       24.366 -15.197   4.920  0.00  0.00    -0.150 OA
ATOM     11  O   LIG    1       23.907 -13.687   2.966  0.00  0.00    -0.150 OA
BRANCH   9  12
ATOM     12  C   LIG    1       26.291 -13.704   4.063  0.00  0.00    +0.109 A 
ATOM     13  C   LIG    1       26.646 -13.492   5.399  0.00  0.00    +0.029 A 
ATOM     14  C   LIG    1       27.889 -12.936   5.704  0.00  0.00    +0.002 A 
ATOM     15  C   LIG    1       28.769 -12.589   4.676  0.00  0.00    +0.000 A 
ATOM     16  C   LIG    1       28.405 -12.790   3.343  0.00  0.00    +0.002 A 
ATOM     17  C   LIG    1       27.169 -13.354   3.031  0.00  0.00    +0.029 A 
ENDBRANCH   9  12
ENDBRANCH   7   9
ENDBRANCH   4   7
BRANCH   1  18
ATOM     18  O   LIG    1       25.189 -20.861   4.779  0.00  0.00    -0.487 OA
BRANCH  18  19
ATOM     19  C   LIG    1       24.973 -21.046   6.181  0.00  0.00    +0.257 C 
BRANCH  19  20
ATOM     20  C   LIG    1       26.273 -21.527   6.823  0.00  0.00    +0.200 C 
BRANCH  20  22
ATOM     21  C   LIG    1       28.488 -20.720   6.824  0.00  0.00    +0.194 C 
ATOM     22  O   LIG    1       27.120 -20.405   7.062  0.00  0.00    -0.380 OA
ENDBRANCH  20  22
ENDBRANCH  19  20
ENDBRANCH  18  19
ENDBRANCH   1  18
TORSDOF 7
ENDMDL
MODEL 8
REMARK VINA RESULT:      -1.0      2.102      6.423
REMARK  Name = *****
REMARK                            x       y       z     vdW  Elec       q    Type
REMARK                         _______ _______ _______ _____ _____    ______ ____
ROOT
ATOM      1  C   LIG    1       27.267 -15.566   3.855  0.00  0.00    +0.157 A 
ATOM      2  C   LIG    1       26.050 -15.879   3.280  0.00  0.00    +0.161 A 
ATOM      3  N   LIG    1       25.573 -17.135   3.136  0.00  0.00    -0.218 NA
ATOM      4  C   LIG    1       26.352 -18.088   3.645  0.00  0.00    +0.235 A 
ATOM      5  N   LIG    1       27.519 -17.928   4.271  0.00  0.00    -0.218 NA
ATOM      6  C   LIG    1       27.966 -16.653   4.339  0.00  0.00    +0.161 A 
ENDROOT
BRANCH   4   7
ATOM      7  N   LIG    1       25.977 -19.407   3.423  0.00  0.00    -0.184 N 
ATOM      8  H   LIG    1       25.313 -19.480   2.659  0.00  0.00    +0.177 HD
BRANCH   7   9
ATOM      9  S   LIG    1       25.314 -20.141   4.776  0.00  0.00    +0.075 S 
ATOM     10  O   LIG    1       25.784 -19.365   5.907  0.00  0.00    -0.150 OA
ATOM     11  O   LIG    1       25.533 -21.571   4.735  0.00  0.00    -0.150 OA
BRANCH   9  12
ATOM     12  C   LIG    1       23.566 -19.835   4.670  0.00  0.00    +0.109 A 
ATOM     13  C   LIG    1       23.106 -18.569   4.292  0.00  0.00    +0.029 A 
ATOM     14  C   LIG    1       21.743 -18.369   4.066  0.00  0.00    +0.002 A 
ATOM     15  C   LIG    1       20.847 -19.429   4.224  0.00  0.00    +0.000 A 
ATOM     16  C   LIG    1       21.309 -20.687   4.614  0.00  0.00    +0.002 A 
ATOM     17  C   LIG    1       22.670 -20.897   4.833  0.00  0.00    +0.029 A 
ENDBRANCH   9  12
ENDBRANCH   7   9
ENDBRANCH   4   7
BRANCH   1  18
ATOM     18  O   LIG    1       27.633 -14.256   3.870  0.00  0.00    -0.487 OA
BRANCH  18  19
ATOM     19  C   LIG    1       26.627 -13.314   4.251  0.00  0.00    +0.257 C 
BRANCH  19  20
ATOM     20  C   LIG    1       26.229 -12.491   3.028  0.00  0.00    +0.200 C 
BRANCH  20  22
ATOM     21  C   LIG    1       24.132 -13.205   3.834  0.00  0.00    +0.194 C 
ATOM     22  O   LIG    1       24.869 -12.769   2.698  0.00  0.00    -0.380 OA
ENDBRANCH  20  22
ENDBRANCH  19  20
ENDBRANCH  18  19
ENDBRANCH   1  18
TORSDOF 7
ENDMDL
