MODEL 1
REMARK VINA RESULT:      -9.6      0.000      0.000
REMARK  Name = *****
REMARK                            x       y       z     vdW  Elec       q    Type
REMARK                         _______ _______ _______ _____ _____    ______ ____
ROOT
ATOM      1  C   LIG    1       24.908 -20.493   6.787  0.00  0.00    +0.120 A 
ATOM      2  C   LIG    1       25.280 -20.567   8.130  0.00  0.00    +0.046 A 
ATOM      3  C   LIG    1       26.634 -20.600   8.480  0.00  0.00    +0.007 A 
ATOM      4  C   LIG    1       27.630 -20.487   7.498  0.00  0.00    -0.046 A 
ATOM      5  C   LIG    1       27.249 -20.383   6.159  0.00  0.00    +0.007 A 
ATOM      6  C   LIG    1       25.903 -20.370   5.814  0.00  0.00    +0.046 A 
ENDROOT
BRANCH   1   7
ATOM      7  O   LIG    1       23.570 -20.576   6.486  0.00  0.00    -0.492 OA
BRANCH   7   8
ATOM      8  C   LIG    1       23.188 -21.853   5.938  0.00  0.00    +0.235 C 
BRANCH   8   9
ATOM      9  C   LIG    1       23.145 -22.941   6.999  0.00  0.00    +0.096 C 
BRANCH   9  13
ATOM     10  C   LIG    1       25.516 -26.266   5.842  0.00  0.00    -0.029 A 
ATOM     11  C   LIG    1       24.126 -26.293   5.859  0.00  0.00    +0.114 A 
ATOM     12  N   LIG    1       23.354 -25.255   6.251  0.00  0.00    -0.260 NA
ATOM     13  C   LIG    1       23.991 -24.137   6.674  0.00  0.00    +0.044 A 
ATOM     14  C   LIG    1       25.375 -24.025   6.706  0.00  0.00    +0.024 A 
ATOM     15  C   LIG    1       26.144 -25.100   6.280  0.00  0.00    +0.007 A 
BRANCH  10  17
ATOM     16  C   LIG    1       25.486 -28.699   5.249  0.00  0.00    +0.009 C 
ATOM     17  C   LIG    1       26.318 -27.428   5.333  0.00  0.00    +0.033 C 
ENDBRANCH  10  17
ENDBRANCH   9  13
ENDBRANCH   8   9
ENDBRANCH   7   8
ENDBRANCH   1   7
BRANCH   4  18
ATOM     18  C   LIG    1       29.085 -20.369   7.900  0.00  0.00    +0.059 C 
BRANCH  18  19
ATOM     19  C   LIG    1       29.658 -18.945   7.794  0.00  0.00    +0.146 C 
ATOM     20  C   LIG    1       31.035 -18.970   7.161  0.00  0.00    +0.234 C 
ATOM     21  O   LIG    1       31.255 -19.266   5.992  0.00  0.00    -0.274 OA
ATOM     22  N   LIG    1       32.014 -18.693   8.064  0.00  0.00    -0.246 N 
ATOM     23  H   LIG    1       32.987 -18.774   7.823  0.00  0.00    +0.158 HD
ATOM     24  C   LIG    1       31.655 -18.301   9.315  0.00  0.00    +0.279 C 
ATOM     25  O   LIG    1       32.412 -18.052  10.223  0.00  0.00    -0.263 OA
ATOM     26  S   LIG    1       29.915 -18.141   9.416  0.00  0.00    -0.054 S 
ENDBRANCH  18  19
ENDBRANCH   4  18
TORSDOF 7
ENDMDL
MODEL 2
REMARK VINA RESULT:      -9.3      1.241      1.599
REMARK  Name = *****
REMARK                            x       y       z     vdW  Elec       q    Type
REMARK                         _______ _______ _______ _____ _____    ______ ____
ROOT
ATOM      1  C   LIG    1       25.384 -20.549   6.752  0.00  0.00    +0.120 A 
ATOM      2  C   LIG    1       26.444 -20.675   5.853  0.00  0.00    +0.046 A 
ATOM      3  C   LIG    1       27.753 -20.798   6.330  0.00  0.00    +0.007 A 
ATOM      4  C   LIG    1       28.011 -20.866   7.707  0.00  0.00    -0.046 A 
ATOM      5  C   LIG    1       26.942 -20.769   8.599  0.00  0.00    +0.007 A 
ATOM      6  C   LIG    1       25.644 -20.628   8.123  0.00  0.00    +0.046 A 
ENDROOT
BRANCH   1   7
ATOM      7  O   LIG    1       24.130 -20.318   6.239  0.00  0.00    -0.492 OA
BRANCH   7   8
ATOM      8  C   LIG    1       23.431 -21.526   5.878  0.00  0.00    +0.235 C 
BRANCH   8   9
ATOM      9  C   LIG    1       23.371 -22.517   7.031  0.00  0.00    +0.096 C 
BRANCH   9  13
ATOM     10  C   LIG    1       25.323 -26.138   5.985  0.00  0.00    -0.029 A 
ATOM     11  C   LIG    1       23.950 -25.954   5.869  0.00  0.00    +0.114 A 
ATOM     12  N   LIG    1       23.306 -24.819   6.224  0.00  0.00    -0.260 NA
ATOM     13  C   LIG    1       24.057 -23.820   6.744  0.00  0.00    +0.044 A 
ATOM     14  C   LIG    1       25.433 -23.919   6.911  0.00  0.00    +0.024 A 
ATOM     15  C   LIG    1       26.071 -25.089   6.521  0.00  0.00    +0.007 A 
BRANCH  10  17
ATOM     16  C   LIG    1       25.004 -28.549   5.390  0.00  0.00    +0.009 C 
ATOM     17  C   LIG    1       25.990 -27.397   5.513  0.00  0.00    +0.033 C 
ENDBRANCH  10  17
ENDBRANCH   9  13
ENDBRANCH   8   9
ENDBRANCH   7   8
ENDBRANCH   1   7
BRANCH   4  18
ATOM     18  C   LIG    1       29.411 -21.154   8.206  0.00  0.00    +0.059 C 
BRANCH  18  19
ATOM     19  C   LIG    1       30.438 -20.055   7.883  0.00  0.00    +0.146 C 
ATOM     20  C   LIG    1       31.425 -19.896   9.021  0.00  0.00    +0.234 C 
ATOM     21  O   LIG    1       32.258 -20.737   9.339  0.00  0.00    -0.274 OA
ATOM     22  N   LIG    1       31.233 -18.733   9.702  0.00  0.00    -0.246 N 
ATOM     23  H   LIG    1       31.739 -18.532  10.547  0.00  0.00    +0.158 HD
ATOM     24  C   LIG    1       30.335 -17.836   9.217  0.00  0.00    +0.279 C 
ATOM     25  O   LIG    1       30.041 -16.781   9.728  0.00  0.00    -0.263 OA
ATOM     26  S   LIG    1       29.693 -18.397   7.688  0.00  0.00    -0.054 S 
ENDBRANCH  18  19
ENDBRANCH   4  18
TORSDOF 7
ENDMDL
MODEL 3
REMARK VINA RESULT:      -9.1      2.931      4.843
REMARK  Name = *****
REMARK                            x       y       z     vdW  Elec       q    Type
REMARK                         _______ _______ _______ _____ _____    ______ ____
ROOT
ATOM      1  C   LIG    1       28.908 -20.760   7.236  0.00  0.00    +0.120 A 
ATOM      2  C   LIG    1       29.778 -21.189   8.239  0.00  0.00    +0.046 A 
ATOM      3  C   LIG    1       30.812 -20.352   8.671  0.00  0.00    +0.007 A 
ATOM      4  C   LIG    1       30.946 -19.053   8.156  0.00  0.00    -0.046 A 
ATOM      5  C   LIG    1       30.053 -18.622   7.174  0.00  0.00    +0.007 A 
ATOM      6  C   LIG    1       29.038 -19.463   6.733  0.00  0.00    +0.046 A 
ENDROOT
BRANCH   1   7
ATOM      7  O   LIG    1       27.978 -21.656   6.765  0.00  0.00    -0.492 OA
BRANCH   7   8
ATOM      8  C   LIG    1       27.113 -22.173   7.796  0.00  0.00    +0.235 C 
BRANCH   8   9
ATOM      9  C   LIG    1       25.885 -22.861   7.219  0.00  0.00    +0.096 C 
BRANCH   9  13
ATOM     10  C   LIG    1       23.062 -20.402   5.219  0.00  0.00    -0.029 A 
ATOM     11  C   LIG    1       23.869 -21.323   4.560  0.00  0.00    +0.114 A 
ATOM     12  N   LIG    1       24.793 -22.094   5.175  0.00  0.00    -0.260 NA
ATOM     13  C   LIG    1       24.947 -21.929   6.511  0.00  0.00    +0.044 A 
ATOM     14  C   LIG    1       24.195 -21.023   7.249  0.00  0.00    +0.024 A 
ATOM     15  C   LIG    1       23.239 -20.257   6.595  0.00  0.00    +0.007 A 
BRANCH  10  17
ATOM     16  C   LIG    1       22.216 -18.120   4.629  0.00  0.00    +0.009 C 
ATOM     17  C   LIG    1       22.006 -19.621   4.492  0.00  0.00    +0.033 C 
ENDBRANCH  10  17
ENDBRANCH   9  13
ENDBRANCH   8   9
ENDBRANCH   7   8
ENDBRANCH   1   7
BRANCH   4  18
ATOM     18  C   LIG    1       31.971 -18.105   8.741  0.00  0.00    +0.059 C 
BRANCH  18  19
ATOM     19  C   LIG    1       31.375 -16.972   9.592  0.00  0.00    +0.146 C 
ATOM     20  C   LIG    1       32.448 -15.977   9.985  0.00  0.00    +0.234 C 
ATOM     21  O   LIG    1       33.025 -15.234   9.199  0.00  0.00    -0.274 OA
ATOM     22  N   LIG    1       32.751 -16.053  11.309  0.00  0.00    -0.246 N 
ATOM     23  H   LIG    1       33.516 -15.532  11.701  0.00  0.00    +0.158 HD
ATOM     24  C   LIG    1       31.996 -16.855  12.106  0.00  0.00    +0.279 C 
ATOM     25  O   LIG    1       32.167 -17.042  13.287  0.00  0.00    -0.263 OA
ATOM     26  S   LIG    1       30.679 -17.545  11.183  0.00  0.00    -0.054 S 
ENDBRANCH  18  19
ENDBRANCH   4  18
TORSDOF 7
ENDMDL
MODEL 4
REMARK VINA RESULT:      -9.1      1.372      1.413
REMARK  Name = *****
REMARK                            x       y       z     vdW  Elec       q    Type
REMARK                         _______ _______ _______ _____ _____    ______ ____
ROOT
ATOM      1  C   LIG    1       24.534 -20.490   6.476  0.00  0.00    +0.120 A 
ATOM      2  C   LIG    1       25.213 -20.516   7.695  0.00  0.00    +0.046 A 
ATOM      3  C   LIG    1       26.611 -20.467   7.717  0.00  0.00    +0.007 A 
ATOM      4  C   LIG    1       27.342 -20.321   6.529  0.00  0.00    -0.046 A 
ATOM      5  C   LIG    1       26.653 -20.265   5.316  0.00  0.00    +0.007 A 
ATOM      6  C   LIG    1       25.265 -20.333   5.296  0.00  0.00    +0.046 A 
ENDROOT
BRANCH   1   7
ATOM      7  O   LIG    1       23.170 -20.653   6.498  0.00  0.00    -0.492 OA
BRANCH   7   8
ATOM      8  C   LIG    1       22.737 -21.911   5.944  0.00  0.00    +0.235 C 
BRANCH   8   9
ATOM      9  C   LIG    1       22.737 -23.022   6.982  0.00  0.00    +0.096 C 
BRANCH   9  13
ATOM     10  C   LIG    1       25.579 -26.015   5.989  0.00  0.00    -0.029 A 
ATOM     11  C   LIG    1       24.206 -26.222   5.932  0.00  0.00    +0.114 A 
ATOM     12  N   LIG    1       23.286 -25.292   6.271  0.00  0.00    -0.260 NA
ATOM     13  C   LIG    1       23.747 -24.099   6.716  0.00  0.00    +0.044 A 
ATOM     14  C   LIG    1       25.102 -23.807   6.820  0.00  0.00    +0.024 A 
ATOM     15  C   LIG    1       26.025 -24.775   6.447  0.00  0.00    +0.007 A 
BRANCH  10  17
ATOM     16  C   LIG    1       25.848 -28.338   5.095  0.00  0.00    +0.009 C 
ATOM     17  C   LIG    1       26.552 -27.064   5.537  0.00  0.00    +0.033 C 
ENDBRANCH  10  17
ENDBRANCH   9  13
ENDBRANCH   8   9
ENDBRANCH   7   8
ENDBRANCH   1   7
BRANCH   4  18
ATOM     18  C   LIG    1       28.841 -20.114   6.577  0.00  0.00    +0.059 C 
BRANCH  18  19
ATOM     19  C   LIG    1       29.397 -19.831   7.983  0.00  0.00    +0.146 C 
ATOM     20  C   LIG    1       30.727 -19.110   7.896  0.00  0.00    +0.234 C 
ATOM     21  O   LIG    1       30.868 -17.963   7.487  0.00  0.00    -0.274 OA
ATOM     22  N   LIG    1       31.765 -19.912   8.258  0.00  0.00    -0.246 N 
ATOM     23  H   LIG    1       32.719 -19.613   8.153  0.00  0.00    +0.158 HD
ATOM     24  C   LIG    1       31.490 -21.140   8.771  0.00  0.00    +0.279 C 
ATOM     25  O   LIG    1       32.306 -21.966   9.107  0.00  0.00    -0.263 OA
ATOM     26  S   LIG    1       29.760 -21.346   8.941  0.00  0.00    -0.054 S 
ENDBRANCH  18  19
ENDBRANCH   4  18
TORSDOF 7
ENDMDL
MODEL 5
REMARK VINA RESULT:      -8.8      2.783      9.600
REMARK  Name = *****
REMARK                            x       y       z     vdW  Elec       q    Type
REMARK                         _______ _______ _______ _____ _____    ______ ____
ROOT
ATOM      1  C   LIG    1       29.459 -20.168   6.673  0.00  0.00    +0.120 A 
ATOM      2  C   LIG    1       28.530 -19.696   5.745  0.00  0.00    +0.046 A 
ATOM      3  C   LIG    1       27.190 -20.085   5.839  0.00  0.00    +0.007 A 
ATOM      4  C   LIG    1       26.749 -20.892   6.899  0.00  0.00    -0.046 A 
ATOM      5  C   LIG    1       27.680 -21.335   7.840  0.00  0.00    +0.007 A 
ATOM      6  C   LIG    1       29.015 -20.963   7.734  0.00  0.00    +0.046 A 
ENDROOT
BRANCH   1   7
ATOM      7  O   LIG    1       30.782 -19.851   6.477  0.00  0.00    -0.492 OA
BRANCH   7   8
ATOM      8  C   LIG    1       31.427 -19.341   7.660  0.00  0.00    +0.235 C 
BRANCH   8   9
ATOM      9  C   LIG    1       30.724 -18.109   8.209  0.00  0.00    +0.096 C 
BRANCH   9  13
ATOM     10  C   LIG    1       32.444 -16.289  11.636  0.00  0.00    -0.029 A 
ATOM     11  C   LIG    1       32.995 -16.187  10.364  0.00  0.00    +0.114 A 
ATOM     12  N   LIG    1       32.479 -16.783   9.266  0.00  0.00    -0.260 NA
ATOM     13  C   LIG    1       31.371 -17.541   9.438  0.00  0.00    +0.044 A 
ATOM     14  C   LIG    1       30.759 -17.712  10.674  0.00  0.00    +0.024 A 
ATOM     15  C   LIG    1       31.299 -17.074  11.782  0.00  0.00    +0.007 A 
BRANCH  10  17
ATOM     16  C   LIG    1       32.466 -16.054  14.129  0.00  0.00    +0.009 C 
ATOM     17  C   LIG    1       33.025 -15.550  12.807  0.00  0.00    +0.033 C 
ENDBRANCH  10  17
ENDBRANCH   9  13
ENDBRANCH   8   9
ENDBRANCH   7   8
ENDBRANCH   1   7
BRANCH   4  18
ATOM     18  C   LIG    1       25.274 -21.178   7.076  0.00  0.00    +0.059 C 
BRANCH  18  19
ATOM     19  C   LIG    1       24.629 -21.938   5.904  0.00  0.00    +0.146 C 
ATOM     20  C   LIG    1       23.135 -22.075   6.113  0.00  0.00    +0.234 C 
ATOM     21  O   LIG    1       22.343 -21.141   6.089  0.00  0.00    -0.274 OA
ATOM     22  N   LIG    1       22.779 -23.356   6.406  0.00  0.00    -0.246 N 
ATOM     23  H   LIG    1       21.839 -23.589   6.674  0.00  0.00    +0.158 HD
ATOM     24  C   LIG    1       23.725 -24.329   6.329  0.00  0.00    +0.279 C 
ATOM     25  O   LIG    1       23.561 -25.498   6.587  0.00  0.00    -0.263 OA
ATOM     26  S   LIG    1       25.228 -23.657   5.735  0.00  0.00    -0.054 S 
ENDBRANCH  18  19
ENDBRANCH   4  18
TORSDOF 7
ENDMDL
MODEL 6
REMARK VINA RESULT:      -8.7      3.854      8.723
REMARK  Name = *****
REMARK                            x       y       z     vdW  Elec       q    Type
REMARK                         _______ _______ _______ _____ _____    ______ ____
ROOT
ATOM      1  C   LIG    1       24.577 -22.277   7.454  0.00  0.00    +0.120 A 
ATOM      2  C   LIG    1       23.330 -22.750   7.045  0.00  0.00    +0.046 A 
ATOM      3  C   LIG    1       23.212 -24.037   6.509  0.00  0.00    +0.007 A 
ATOM      4  C   LIG    1       24.324 -24.889   6.439  0.00  0.00    -0.046 A 
ATOM      5  C   LIG    1       25.563 -24.418   6.878  0.00  0.00    +0.007 A 
ATOM      6  C   LIG    1       25.680 -23.132   7.393  0.00  0.00    +0.046 A 
ENDROOT
BRANCH   1   7
ATOM      7  O   LIG    1       24.664 -20.970   7.869  0.00  0.00    -0.492 OA
BRANCH   7   8
ATOM      8  C   LIG    1       26.004 -20.571   8.219  0.00  0.00    +0.235 C 
BRANCH   8   9
ATOM      9  C   LIG    1       26.902 -20.451   6.998  0.00  0.00    +0.096 C 
BRANCH   9  13
ATOM     10  C   LIG    1       30.706 -18.752   7.805  0.00  0.00    -0.029 A 
ATOM     11  C   LIG    1       29.825 -19.149   8.803  0.00  0.00    +0.114 A 
ATOM     12  N   LIG    1       28.598 -19.665   8.567  0.00  0.00    -0.260 NA
ATOM     13  C   LIG    1       28.210 -19.772   7.274  0.00  0.00    +0.044 A 
ATOM     14  C   LIG    1       29.019 -19.387   6.211  0.00  0.00    +0.024 A 
ATOM     15  C   LIG    1       30.282 -18.877   6.482  0.00  0.00    +0.007 A 
BRANCH  10  17
ATOM     16  C   LIG    1       32.042 -17.056   9.075  0.00  0.00    +0.009 C 
ATOM     17  C   LIG    1       32.083 -18.246   8.127  0.00  0.00    +0.033 C 
ENDBRANCH  10  17
ENDBRANCH   9  13
ENDBRANCH   8   9
ENDBRANCH   7   8
ENDBRANCH   1   7
BRANCH   4  18
ATOM     18  C   LIG    1       24.154 -26.328   6.002  0.00  0.00    +0.059 C 
BRANCH  18  19
ATOM     19  C   LIG    1       25.252 -27.280   6.508  0.00  0.00    +0.146 C 
ATOM     20  C   LIG    1       26.123 -27.750   5.361  0.00  0.00    +0.234 C 
ATOM     21  O   LIG    1       26.885 -27.028   4.729  0.00  0.00    -0.274 OA
ATOM     22  N   LIG    1       25.908 -29.060   5.064  0.00  0.00    -0.246 N 
ATOM     23  H   LIG    1       26.332 -29.491   4.261  0.00  0.00    +0.158 HD
ATOM     24  C   LIG    1       25.100 -29.789   5.878  0.00  0.00    +0.279 C 
ATOM     25  O   LIG    1       24.797 -30.948   5.723  0.00  0.00    -0.263 OA
ATOM     26  S   LIG    1       24.596 -28.819   7.246  0.00  0.00    -0.054 S 
ENDBRANCH  18  19
ENDBRANCH   4  18
TORSDOF 7
ENDMDL
MODEL 7
REMARK VINA RESULT:      -8.6      1.922      2.955
REMARK  Name = *****
REMARK                            x       y       z     vdW  Elec       q    Type
REMARK                         _______ _______ _______ _____ _____    ______ ____
ROOT
ATOM      1  C   LIG    1       28.281 -20.205   6.298  0.00  0.00    +0.120 A 
ATOM      2  C   LIG    1       28.816 -20.892   7.389  0.00  0.00    +0.046 A 
ATOM      3  C   LIG    1       29.910 -20.362   8.080  0.00  0.00    +0.007 A 
ATOM      4  C   LIG    1       30.437 -19.109   7.734  0.00  0.00    -0.046 A 
ATOM      5  C   LIG    1       29.877 -18.414   6.660  0.00  0.00    +0.007 A 
ATOM      6  C   LIG    1       28.801 -18.953   5.964  0.00  0.00    +0.046 A 
ENDROOT
BRANCH   1   7
ATOM      7  O   LIG    1       27.279 -20.817   5.582  0.00  0.00    -0.492 OA
BRANCH   7   8
ATOM      8  C   LIG    1       25.958 -20.402   5.981  0.00  0.00    +0.235 C 
BRANCH   8   9
ATOM      9  C   LIG    1       25.492 -21.112   7.243  0.00  0.00    +0.096 C 
BRANCH   9  13
ATOM     10  C   LIG    1       24.526 -25.160   6.410  0.00  0.00    -0.029 A 
ATOM     11  C   LIG    1       23.568 -24.162   6.541  0.00  0.00    +0.114 A 
ATOM     12  N   LIG    1       23.853 -22.873   6.835  0.00  0.00    -0.260 NA
ATOM     13  C   LIG    1       25.155 -22.558   7.033  0.00  0.00    +0.044 A 
ATOM     14  C   LIG    1       26.180 -23.493   6.937  0.00  0.00    +0.024 A 
ATOM     15  C   LIG    1       25.860 -24.805   6.616  0.00  0.00    +0.007 A 
BRANCH  10  17
ATOM     16  C   LIG    1       25.097 -27.589   6.625  0.00  0.00    +0.009 C 
ATOM     17  C   LIG    1       24.154 -26.560   6.018  0.00  0.00    +0.033 C 
ENDBRANCH  10  17
ENDBRANCH   9  13
ENDBRANCH   8   9
ENDBRANCH   7   8
ENDBRANCH   1   7
BRANCH   4  18
ATOM     18  C   LIG    1       31.518 -18.477   8.584  0.00  0.00    +0.059 C 
BRANCH  18  19
ATOM     19  C   LIG    1       31.061 -17.244   9.381  0.00  0.00    +0.146 C 
ATOM     20  C   LIG    1       32.226 -16.310   9.637  0.00  0.00    +0.234 C 
ATOM     21  O   LIG    1       32.807 -15.671   8.767  0.00  0.00    -0.274 OA
ATOM     22  N   LIG    1       32.604 -16.316  10.944  0.00  0.00    -0.246 N 
ATOM     23  H   LIG    1       33.428 -15.830  11.253  0.00  0.00    +0.158 HD
ATOM     24  C   LIG    1       31.843 -16.999  11.840  0.00  0.00    +0.279 C 
ATOM     25  O   LIG    1       32.071 -17.116  13.020  0.00  0.00    -0.263 OA
ATOM     26  S   LIG    1       30.424 -17.648  11.047  0.00  0.00    -0.054 S 
ENDBRANCH  18  19
ENDBRANCH   4  18
TORSDOF 7
ENDMDL
MODEL 8
REMARK VINA RESULT:      -8.6      1.709      2.308
REMARK  Name = *****
REMARK                            x       y       z     vdW  Elec       q    Type
REMARK                         _______ _______ _______ _____ _____    ______ ____
ROOT
ATOM      1  C   LIG    1       24.545 -22.037   6.756  0.00  0.00    +0.120 A 
ATOM      2  C   LIG    1       25.054 -22.242   8.039  0.00  0.00    +0.046 A 
ATOM      3  C   LIG    1       26.237 -21.608   8.431  0.00  0.00    +0.007 A 
ATOM      4  C   LIG    1       26.888 -20.710   7.572  0.00  0.00    -0.046 A 
ATOM      5  C   LIG    1       26.356 -20.488   6.300  0.00  0.00    +0.007 A 
ATOM      6  C   LIG    1       25.190 -21.134   5.907  0.00  0.00    +0.046 A 
ENDROOT
BRANCH   1   7
ATOM      7  O   LIG    1       23.443 -22.766   6.377  0.00  0.00    -0.492 OA
BRANCH   7   8
ATOM      8  C   LIG    1       23.640 -24.190   6.476  0.00  0.00    +0.235 C 
BRANCH   8   9
ATOM      9  C   LIG    1       24.746 -24.679   5.554  0.00  0.00    +0.096 C 
BRANCH   9  13
ATOM     10  C   LIG    1       25.219 -28.897   5.564  0.00  0.00    -0.029 A 
ATOM     11  C   LIG    1       24.249 -28.240   6.311  0.00  0.00    +0.114 A 
ATOM     12  N   LIG    1       24.101 -26.897   6.344  0.00  0.00    -0.260 NA
ATOM     13  C   LIG    1       24.975 -26.160   5.617  0.00  0.00    +0.044 A 
ATOM     14  C   LIG    1       25.986 -26.730   4.852  0.00  0.00    +0.024 A 
ATOM     15  C   LIG    1       26.104 -28.113   4.823  0.00  0.00    +0.007 A 
BRANCH  10  17
ATOM     16  C   LIG    1       24.060 -31.044   6.128  0.00  0.00    +0.009 C 
ATOM     17  C   LIG    1       25.294 -30.396   5.516  0.00  0.00    +0.033 C 
ENDBRANCH  10  17
ENDBRANCH   9  13
ENDBRANCH   8   9
ENDBRANCH   7   8
ENDBRANCH   1   7
BRANCH   4  18
ATOM     18  C   LIG    1       28.080 -19.915   8.062  0.00  0.00    +0.059 C 
BRANCH  18  19
ATOM     19  C   LIG    1       29.417 -20.312   7.415  0.00  0.00    +0.146 C 
ATOM     20  C   LIG    1       30.400 -20.786   8.466  0.00  0.00    +0.234 C 
ATOM     21  O   LIG    1       30.278 -21.820   9.112  0.00  0.00    -0.274 OA
ATOM     22  N   LIG    1       31.404 -19.890   8.664  0.00  0.00    -0.246 N 
ATOM     23  H   LIG    1       32.076 -20.011   9.402  0.00  0.00    +0.158 HD
ATOM     24  C   LIG    1       31.488 -18.813   7.839  0.00  0.00    +0.279 C 
ATOM     25  O   LIG    1       32.305 -17.925   7.913  0.00  0.00    -0.263 OA
ATOM     26  S   LIG    1       30.267 -18.919   6.589  0.00  0.00    -0.054 S 
ENDBRANCH  18  19
ENDBRANCH   4  18
TORSDOF 7
ENDMDL
MODEL 9
REMARK VINA RESULT:      -8.4      2.292      3.071
REMARK  Name = *****
REMARK                            x       y       z     vdW  Elec       q    Type
REMARK                         _______ _______ _______ _____ _____    ______ ____
ROOT
ATOM      1  C   LIG    1       25.141 -22.602   6.362  0.00  0.00    +0.120 A 
ATOM      2  C   LIG    1       25.451 -21.371   5.784  0.00  0.00    +0.046 A 
ATOM      3  C   LIG    1       26.389 -20.530   6.391  0.00  0.00    +0.007 A 
ATOM      4  C   LIG    1       27.079 -20.939   7.543  0.00  0.00    -0.046 A 
ATOM      5  C   LIG    1       26.784 -22.186   8.098  0.00  0.00    +0.007 A 
ATOM      6  C   LIG    1       25.837 -23.011   7.503  0.00  0.00    +0.046 A 
ENDROOT
BRANCH   1   7
ATOM      7  O   LIG    1       24.134 -23.344   5.793  0.00  0.00    -0.492 OA
BRANCH   7   8
ATOM      8  C   LIG    1       23.981 -24.648   6.387  0.00  0.00    +0.235 C 
BRANCH   8   9
ATOM      9  C   LIG    1       24.623 -25.739   5.545  0.00  0.00    +0.096 C 
BRANCH   9  13
ATOM     10  C   LIG    1       25.388 -29.184   7.905  0.00  0.00    -0.029 A 
ATOM     11  C   LIG    1       26.140 -28.018   7.996  0.00  0.00    +0.114 A 
ATOM     12  N   LIG    1       25.930 -26.922   7.233  0.00  0.00    -0.260 NA
ATOM     13  C   LIG    1       24.939 -26.989   6.313  0.00  0.00    +0.044 A 
ATOM     14  C   LIG    1       24.146 -28.117   6.141  0.00  0.00    +0.024 A 
ATOM     15  C   LIG    1       24.371 -29.222   6.950  0.00  0.00    +0.007 A 
BRANCH  10  17
ATOM     16  C   LIG    1       24.522 -30.482   9.863  0.00  0.00    +0.009 C 
ATOM     17  C   LIG    1       25.625 -30.346   8.824  0.00  0.00    +0.033 C 
ENDBRANCH  10  17
ENDBRANCH   9  13
ENDBRANCH   8   9
ENDBRANCH   7   8
ENDBRANCH   1   7
BRANCH   4  18
ATOM     18  C   LIG    1       28.200 -20.088   8.101  0.00  0.00    +0.059 C 
BRANCH  18  19
ATOM     19  C   LIG    1       29.589 -20.414   7.529  0.00  0.00    +0.146 C 
ATOM     20  C   LIG    1       30.546 -20.803   8.638  0.00  0.00    +0.234 C 
ATOM     21  O   LIG    1       30.457 -21.828   9.303  0.00  0.00    -0.274 OA
ATOM     22  N   LIG    1       31.482 -19.841   8.861  0.00  0.00    -0.246 N 
ATOM     23  H   LIG    1       32.123 -19.903   9.633  0.00  0.00    +0.158 HD
ATOM     24  C   LIG    1       31.541 -18.779   8.014  0.00  0.00    +0.279 C 
ATOM     25  O   LIG    1       32.297 -17.841   8.106  0.00  0.00    -0.263 OA
ATOM     26  S   LIG    1       30.392 -18.990   6.710  0.00  0.00    -0.054 S 
ENDBRANCH  18  19
ENDBRANCH   4  18
TORSDOF 7
ENDMDL
