MODEL 1
REMARK VINA RESULT:      -5.8      0.000      0.000
REMARK  Name = *****
REMARK                            x       y       z     vdW  Elec       q    Type
REMARK                         _______ _______ _______ _____ _____    ______ ____
ROOT
ATOM      1  O   LIG    1       25.779 -16.379   3.028  0.00  0.00    -0.459 OA
ENDROOT
BRANCH   1   2
ATOM      2  C   LIG    1       26.448 -15.271   3.439  0.00  0.00    +0.341 C 
ATOM      3  O   LIG    1       27.598 -15.234   3.833  0.00  0.00    -0.245 OA
BRANCH   2   4
ATOM      4  C   LIG    1       25.578 -14.076   3.354  0.00  0.00    +0.077 A 
ATOM      5  C   LIG    1       25.473 -13.315   2.198  0.00  0.00    +0.125 A 
ATOM      6  N   LIG    1       24.687 -12.215   2.084  0.00  0.00    -0.262 NA
ATOM      7  C   LIG    1       23.975 -11.860   3.175  0.00  0.00    +0.111 A 
ATOM      8  C   LIG    1       24.002 -12.559   4.372  0.00  0.00    +0.020 A 
ATOM      9  C   LIG    1       24.817 -13.688   4.461  0.00  0.00    +0.018 A 
ENDBRANCH   2   4
ENDBRANCH   1   2
BRANCH   1  10
ATOM     10  C   LIG    1       26.373 -17.635   3.397  0.00  0.00    +0.260 C 
BRANCH  10  11
ATOM     11  C   LIG    1       25.307 -18.712   3.591  0.00  0.00    +0.201 C 
BRANCH  11  12
ATOM     12  O   LIG    1       25.820 -19.773   4.399  0.00  0.00    -0.376 OA
BRANCH  12  13
ATOM     13  C   LIG    1       24.841 -20.794   4.600  0.00  0.00    +0.160 C 
BRANCH  13  14
ATOM     14  C   LIG    1       23.434 -20.223   4.415  0.00  0.00    +0.028 C 
BRANCH  14  16
ATOM     15  C   LIG    1       23.458 -20.742   6.900  0.00  0.00    +0.004 C 
ATOM     16  C   LIG    1       22.693 -20.108   5.749  0.00  0.00    -0.001 C 
ENDBRANCH  14  16
ENDBRANCH  13  14
ENDBRANCH  12  13
ENDBRANCH  11  12
ENDBRANCH  10  11
ENDBRANCH   1  10
TORSDOF 8
ENDMDL
MODEL 2
REMARK VINA RESULT:      -5.8      0.698      1.200
REMARK  Name = *****
REMARK                            x       y       z     vdW  Elec       q    Type
REMARK                         _______ _______ _______ _____ _____    ______ ____
ROOT
ATOM      1  O   LIG    1       25.800 -16.404   3.038  0.00  0.00    -0.459 OA
ENDROOT
BRANCH   1   2
ATOM      2  C   LIG    1       26.459 -15.287   3.443  0.00  0.00    +0.341 C 
ATOM      3  O   LIG    1       27.611 -15.235   3.828  0.00  0.00    -0.245 OA
BRANCH   2   4
ATOM      4  C   LIG    1       25.574 -14.104   3.363  0.00  0.00    +0.077 A 
ATOM      5  C   LIG    1       24.816 -13.669   4.442  0.00  0.00    +0.125 A 
ATOM      6  N   LIG    1       23.995 -12.590   4.405  0.00  0.00    -0.262 NA
ATOM      7  C   LIG    1       23.928 -11.915   3.238  0.00  0.00    +0.111 A 
ATOM      8  C   LIG    1       24.652 -12.261   2.107  0.00  0.00    +0.020 A 
ATOM      9  C   LIG    1       25.490 -13.374   2.173  0.00  0.00    +0.018 A 
ENDBRANCH   2   4
ENDBRANCH   1   2
BRANCH   1  10
ATOM     10  C   LIG    1       26.384 -17.652   3.451  0.00  0.00    +0.260 C 
BRANCH  10  11
ATOM     11  C   LIG    1       25.320 -18.742   3.574  0.00  0.00    +0.201 C 
BRANCH  11  12
ATOM     12  O   LIG    1       25.823 -19.835   4.344  0.00  0.00    -0.376 OA
BRANCH  12  13
ATOM     13  C   LIG    1       24.810 -20.816   4.578  0.00  0.00    +0.160 C 
BRANCH  13  14
ATOM     14  C   LIG    1       23.422 -20.194   4.411  0.00  0.00    +0.028 C 
BRANCH  14  16
ATOM     15  C   LIG    1       23.455 -20.737   6.891  0.00  0.00    +0.004 C 
ATOM     16  C   LIG    1       22.689 -20.086   5.750  0.00  0.00    -0.001 C 
ENDBRANCH  14  16
ENDBRANCH  13  14
ENDBRANCH  12  13
ENDBRANCH  11  12
ENDBRANCH  10  11
ENDBRANCH   1  10
TORSDOF 8
ENDMDL
MODEL 3
REMARK VINA RESULT:      -4.9      2.722      6.664
REMARK  Name = *****
REMARK                            x       y       z     vdW  Elec       q    Type
REMARK                         _______ _______ _______ _____ _____    ______ ____
ROOT
ATOM      1  O   LIG    1       25.729 -18.015   3.248  0.00  0.00    -0.459 OA
ENDROOT
BRANCH   1   2
ATOM      2  C   LIG    1       25.862 -19.063   4.101  0.00  0.00    +0.341 C 
ATOM      3  O   LIG    1       26.908 -19.491   4.552  0.00  0.00    -0.245 OA
BRANCH   2   4
ATOM      4  C   LIG    1       24.540 -19.645   4.422  0.00  0.00    +0.077 A 
ATOM      5  C   LIG    1       24.402 -20.888   5.024  0.00  0.00    +0.125 A 
ATOM      6  N   LIG    1       23.207 -21.453   5.332  0.00  0.00    -0.262 NA
ATOM      7  C   LIG    1       22.101 -20.743   5.023  0.00  0.00    +0.111 A 
ATOM      8  C   LIG    1       22.132 -19.490   4.431  0.00  0.00    +0.020 A 
ATOM      9  C   LIG    1       23.373 -18.931   4.128  0.00  0.00    +0.018 A 
ENDBRANCH   2   4
ENDBRANCH   1   2
BRANCH   1  10
ATOM     10  C   LIG    1       26.629 -16.916   3.469  0.00  0.00    +0.260 C 
BRANCH  10  11
ATOM     11  C   LIG    1       25.912 -15.577   3.306  0.00  0.00    +0.201 C 
BRANCH  11  12
ATOM     12  O   LIG    1       26.646 -14.730   2.420  0.00  0.00    -0.376 OA
BRANCH  12  13
ATOM     13  C   LIG    1       26.290 -13.357   2.599  0.00  0.00    +0.160 C 
BRANCH  13  14
ATOM     14  C   LIG    1       24.881 -13.101   2.063  0.00  0.00    +0.028 C 
BRANCH  14  16
ATOM     15  C   LIG    1       24.117 -12.516   4.412  0.00  0.00    +0.004 C 
ATOM     16  C   LIG    1       24.113 -12.115   2.945  0.00  0.00    -0.001 C 
ENDBRANCH  14  16
ENDBRANCH  13  14
ENDBRANCH  12  13
ENDBRANCH  11  12
ENDBRANCH  10  11
ENDBRANCH   1  10
TORSDOF 8
ENDMDL
MODEL 4
REMARK VINA RESULT:      -4.9      3.064      6.934
REMARK  Name = *****
REMARK                            x       y       z     vdW  Elec       q    Type
REMARK                         _______ _______ _______ _____ _____    ______ ____
ROOT
ATOM      1  O   LIG    1       23.109 -17.180   4.107  0.00  0.00    -0.459 OA
ENDROOT
BRANCH   1   2
ATOM      2  C   LIG    1       22.346 -18.298   4.208  0.00  0.00    +0.341 C 
ATOM      3  O   LIG    1       21.161 -18.383   3.950  0.00  0.00    -0.245 OA
BRANCH   2   4
ATOM      4  C   LIG    1       23.155 -19.438   4.695  0.00  0.00    +0.077 A 
ATOM      5  C   LIG    1       24.316 -19.852   4.056  0.00  0.00    +0.125 A 
ATOM      6  N   LIG    1       25.081 -20.891   4.473  0.00  0.00    -0.262 NA
ATOM      7  C   LIG    1       24.667 -21.547   5.578  0.00  0.00    +0.111 A 
ATOM      8  C   LIG    1       23.530 -21.205   6.294  0.00  0.00    +0.020 A 
ATOM      9  C   LIG    1       22.763 -20.131   5.845  0.00  0.00    +0.018 A 
ENDBRANCH   2   4
ENDBRANCH   1   2
BRANCH   1  10
ATOM     10  C   LIG    1       22.579 -16.007   4.748  0.00  0.00    +0.260 C 
BRANCH  10  11
ATOM     11  C   LIG    1       23.408 -14.771   4.404  0.00  0.00    +0.201 C 
BRANCH  11  12
ATOM     12  O   LIG    1       24.631 -15.158   3.774  0.00  0.00    -0.376 OA
BRANCH  12  13
ATOM     13  C   LIG    1       25.338 -14.024   3.269  0.00  0.00    +0.160 C 
BRANCH  13  14
ATOM     14  C   LIG    1       26.758 -14.421   2.865  0.00  0.00    +0.028 C 
BRANCH  14  16
ATOM     15  C   LIG    1       27.127 -13.449   5.181  0.00  0.00    +0.004 C 
ATOM     16  C   LIG    1       27.763 -14.137   3.983  0.00  0.00    -0.001 C 
ENDBRANCH  14  16
ENDBRANCH  13  14
ENDBRANCH  12  13
ENDBRANCH  11  12
ENDBRANCH  10  11
ENDBRANCH   1  10
TORSDOF 8
ENDMDL
MODEL 5
REMARK VINA RESULT:      -4.8      2.647      6.737
REMARK  Name = *****
REMARK                            x       y       z     vdW  Elec       q    Type
REMARK                         _______ _______ _______ _____ _____    ______ ____
ROOT
ATOM      1  O   LIG    1       26.105 -18.609   3.808  0.00  0.00    -0.459 OA
ENDROOT
BRANCH   1   2
ATOM      2  C   LIG    1       25.256 -19.630   3.524  0.00  0.00    +0.341 C 
ATOM      3  O   LIG    1       24.994 -20.058   2.416  0.00  0.00    -0.245 OA
BRANCH   2   4
ATOM      4  C   LIG    1       24.663 -20.173   4.767  0.00  0.00    +0.077 A 
ATOM      5  C   LIG    1       23.312 -20.045   5.062  0.00  0.00    +0.125 A 
ATOM      6  N   LIG    1       22.734 -20.529   6.190  0.00  0.00    -0.262 NA
ATOM      7  C   LIG    1       23.543 -21.170   7.061  0.00  0.00    +0.111 A 
ATOM      8  C   LIG    1       24.900 -21.360   6.854  0.00  0.00    +0.020 A 
ATOM      9  C   LIG    1       25.468 -20.854   5.685  0.00  0.00    +0.018 A 
ENDBRANCH   2   4
ENDBRANCH   1   2
BRANCH   1  10
ATOM     10  C   LIG    1       25.694 -17.313   3.340  0.00  0.00    +0.260 C 
BRANCH  10  11
ATOM     11  C   LIG    1       26.823 -16.294   3.483  0.00  0.00    +0.201 C 
BRANCH  11  12
ATOM     12  O   LIG    1       26.567 -15.156   2.657  0.00  0.00    -0.376 OA
BRANCH  12  13
ATOM     13  C   LIG    1       26.999 -13.948   3.287  0.00  0.00    +0.160 C 
BRANCH  13  14
ATOM     14  C   LIG    1       26.237 -13.730   4.595  0.00  0.00    +0.028 C 
BRANCH  14  16
ATOM     15  C   LIG    1       23.782 -14.280   4.250  0.00  0.00    +0.004 C 
ATOM     16  C   LIG    1       24.830 -13.182   4.343  0.00  0.00    -0.001 C 
ENDBRANCH  14  16
ENDBRANCH  13  14
ENDBRANCH  12  13
ENDBRANCH  11  12
ENDBRANCH  10  11
ENDBRANCH   1  10
TORSDOF 8
ENDMDL
MODEL 6
REMARK VINA RESULT:      -4.8      2.221      2.781
REMARK  Name = *****
REMARK                            x       y       z     vdW  Elec       q    Type
REMARK                         _______ _______ _______ _____ _____    ______ ____
ROOT
ATOM      1  O   LIG    1       24.024 -15.721   4.062  0.00  0.00    -0.459 OA
ENDROOT
BRANCH   1   2
ATOM      2  C   LIG    1       24.195 -14.417   3.725  0.00  0.00    +0.341 C 
ATOM      3  O   LIG    1       23.319 -13.644   3.387  0.00  0.00    -0.245 OA
BRANCH   2   4
ATOM      4  C   LIG    1       25.624 -14.040   3.814  0.00  0.00    +0.077 A 
ATOM      5  C   LIG    1       26.467 -14.060   2.711  0.00  0.00    +0.125 A 
ATOM      6  N   LIG    1       27.780 -13.721   2.755  0.00  0.00    -0.262 NA
ATOM      7  C   LIG    1       28.271 -13.345   3.955  0.00  0.00    +0.111 A 
ATOM      8  C   LIG    1       27.510 -13.281   5.112  0.00  0.00    +0.020 A 
ATOM      9  C   LIG    1       26.163 -13.633   5.038  0.00  0.00    +0.018 A 
ENDBRANCH   2   4
ENDBRANCH   1   2
BRANCH   1  10
ATOM     10  C   LIG    1       22.734 -16.060   4.600  0.00  0.00    +0.260 C 
BRANCH  10  11
ATOM     11  C   LIG    1       22.462 -17.557   4.475  0.00  0.00    +0.201 C 
BRANCH  11  12
ATOM     12  O   LIG    1       23.533 -18.195   3.776  0.00  0.00    -0.376 OA
BRANCH  12  13
ATOM     13  C   LIG    1       23.657 -19.567   4.156  0.00  0.00    +0.160 C 
BRANCH  13  14
ATOM     14  C   LIG    1       22.435 -20.007   4.963  0.00  0.00    +0.028 C 
BRANCH  14  16
ATOM     15  C   LIG    1       23.631 -20.787   7.062  0.00  0.00    +0.004 C 
ATOM     16  C   LIG    1       22.759 -21.187   5.882  0.00  0.00    -0.001 C 
ENDBRANCH  14  16
ENDBRANCH  13  14
ENDBRANCH  12  13
ENDBRANCH  11  12
ENDBRANCH  10  11
ENDBRANCH   1  10
TORSDOF 8
ENDMDL
MODEL 7
REMARK VINA RESULT:      -4.7      1.888      2.555
REMARK  Name = *****
REMARK                            x       y       z     vdW  Elec       q    Type
REMARK                         _______ _______ _______ _____ _____    ______ ____
ROOT
ATOM      1  O   LIG    1       25.945 -16.839   2.998  0.00  0.00    -0.459 OA
ENDROOT
BRANCH   1   2
ATOM      2  C   LIG    1       26.573 -15.748   3.505  0.00  0.00    +0.341 C 
ATOM      3  O   LIG    1       27.681 -15.727   4.006  0.00  0.00    -0.245 OA
BRANCH   2   4
ATOM      4  C   LIG    1       25.715 -14.548   3.379  0.00  0.00    +0.077 A 
ATOM      5  C   LIG    1       24.715 -14.251   4.295  0.00  0.00    +0.125 A 
ATOM      6  N   LIG    1       23.910 -13.162   4.211  0.00  0.00    -0.262 NA
ATOM      7  C   LIG    1       24.114 -12.334   3.165  0.00  0.00    +0.111 A 
ATOM      8  C   LIG    1       25.092 -12.536   2.204  0.00  0.00    +0.020 A 
ATOM      9  C   LIG    1       25.907 -13.662   2.315  0.00  0.00    +0.018 A 
ENDBRANCH   2   4
ENDBRANCH   1   2
BRANCH   1  10
ATOM     10  C   LIG    1       26.396 -18.107   3.506  0.00  0.00    +0.260 C 
BRANCH  10  11
ATOM     11  C   LIG    1       25.255 -19.123   3.538  0.00  0.00    +0.201 C 
BRANCH  11  12
ATOM     12  O   LIG    1       25.635 -20.264   4.310  0.00  0.00    -0.376 OA
BRANCH  12  13
ATOM     13  C   LIG    1       26.382 -19.884   5.468  0.00  0.00    +0.160 C 
BRANCH  13  14
ATOM     14  C   LIG    1       26.643 -21.103   6.353  0.00  0.00    +0.028 C 
BRANCH  14  16
ATOM     15  C   LIG    1       28.726 -19.770   6.925  0.00  0.00    +0.004 C 
ATOM     16  C   LIG    1       28.095 -21.151   6.833  0.00  0.00    -0.001 C 
ENDBRANCH  14  16
ENDBRANCH  13  14
ENDBRANCH  12  13
ENDBRANCH  11  12
ENDBRANCH  10  11
ENDBRANCH   1  10
TORSDOF 8
ENDMDL
MODEL 8
REMARK VINA RESULT:      -4.7      2.054      2.727
REMARK  Name = *****
REMARK                            x       y       z     vdW  Elec       q    Type
REMARK                         _______ _______ _______ _____ _____    ______ ____
ROOT
ATOM      1  O   LIG    1       25.934 -16.148   2.843  0.00  0.00    -0.459 OA
ENDROOT
BRANCH   1   2
ATOM      2  C   LIG    1       25.473 -15.116   3.595  0.00  0.00    +0.341 C 
ATOM      3  O   LIG    1       24.316 -14.930   3.924  0.00  0.00    -0.245 OA
BRANCH   2   4
ATOM      4  C   LIG    1       26.581 -14.211   3.974  0.00  0.00    +0.077 A 
ATOM      5  C   LIG    1       26.674 -13.639   5.235  0.00  0.00    +0.125 A 
ATOM      6  N   LIG    1       27.674 -12.805   5.617  0.00  0.00    -0.262 NA
ATOM      7  C   LIG    1       28.623 -12.531   4.696  0.00  0.00    +0.111 A 
ATOM      8  C   LIG    1       28.626 -13.060   3.414  0.00  0.00    +0.020 A 
ATOM      9  C   LIG    1       27.588 -13.916   3.049  0.00  0.00    +0.018 A 
ENDBRANCH   2   4
ENDBRANCH   1   2
BRANCH   1  10
ATOM     10  C   LIG    1       26.266 -17.345   3.568  0.00  0.00    +0.260 C 
BRANCH  10  11
ATOM     11  C   LIG    1       25.397 -18.518   3.119  0.00  0.00    +0.201 C 
BRANCH  11  12
ATOM     12  O   LIG    1       25.163 -19.405   4.214  0.00  0.00    -0.376 OA
BRANCH  12  13
ATOM     13  C   LIG    1       24.477 -20.585   3.791  0.00  0.00    +0.160 C 
BRANCH  13  14
ATOM     14  C   LIG    1       23.189 -20.766   4.596  0.00  0.00    +0.028 C 
BRANCH  14  16
ATOM     15  C   LIG    1       21.930 -18.576   4.350  0.00  0.00    +0.004 C 
ATOM     16  C   LIG    1       22.756 -19.462   5.269  0.00  0.00    -0.001 C 
ENDBRANCH  14  16
ENDBRANCH  13  14
ENDBRANCH  12  13
ENDBRANCH  11  12
ENDBRANCH  10  11
ENDBRANCH   1  10
TORSDOF 8
ENDMDL
MODEL 9
REMARK VINA RESULT:      -4.5      2.365      3.126
REMARK  Name = *****
REMARK                            x       y       z     vdW  Elec       q    Type
REMARK                         _______ _______ _______ _____ _____    ______ ____
ROOT
ATOM      1  O   LIG    1       23.771 -15.333   4.036  0.00  0.00    -0.459 OA
ENDROOT
BRANCH   1   2
ATOM      2  C   LIG    1       24.143 -14.061   4.330  0.00  0.00    +0.341 C 
ATOM      3  O   LIG    1       23.410 -13.171   4.716  0.00  0.00    -0.245 OA
BRANCH   2   4
ATOM      4  C   LIG    1       25.596 -13.880   4.109  0.00  0.00    +0.077 A 
ATOM      5  C   LIG    1       26.444 -13.405   5.100  0.00  0.00    +0.125 A 
ATOM      6  N   LIG    1       27.778 -13.226   4.933  0.00  0.00    -0.262 NA
ATOM      7  C   LIG    1       28.287 -13.535   3.721  0.00  0.00    +0.111 A 
ATOM      8  C   LIG    1       27.527 -14.026   2.671  0.00  0.00    +0.020 A 
ATOM      9  C   LIG    1       26.159 -14.202   2.870  0.00  0.00    +0.018 A 
ENDBRANCH   2   4
ENDBRANCH   1   2
BRANCH   1  10
ATOM     10  C   LIG    1       22.655 -15.842   4.787  0.00  0.00    +0.260 C 
BRANCH  10  11
ATOM     11  C   LIG    1       22.379 -17.304   4.439  0.00  0.00    +0.201 C 
BRANCH  11  12
ATOM     12  O   LIG    1       23.583 -17.943   4.009  0.00  0.00    -0.376 OA
BRANCH  12  13
ATOM     13  C   LIG    1       23.446 -19.366   4.012  0.00  0.00    +0.160 C 
BRANCH  13  14
ATOM     14  C   LIG    1       22.483 -19.803   5.117  0.00  0.00    +0.028 C 
BRANCH  14  16
ATOM     15  C   LIG    1       24.677 -20.735   5.991  0.00  0.00    +0.004 C 
ATOM     16  C   LIG    1       23.229 -20.397   6.314  0.00  0.00    -0.001 C 
ENDBRANCH  14  16
ENDBRANCH  13  14
ENDBRANCH  12  13
ENDBRANCH  11  12
ENDBRANCH  10  11
ENDBRANCH   1  10
TORSDOF 8
ENDMDL
