MODEL 1
REMARK VINA RESULT:      -7.3      0.000      0.000
REMARK  Name = *****
REMARK                            x       y       z     vdW  Elec       q    Type
REMARK                         _______ _______ _______ _____ _____    ______ ____
ROOT
ATOM      1  C   LIG    1       26.240 -17.794   3.488  0.00  0.00    +0.048 C 
ATOM      2  C   LIG    1       26.488 -18.861   4.521  0.00  0.00    -0.001 C 
ATOM      3  C   LIG    1       25.478 -19.733   4.980  0.00  0.00    +0.052 C 
ATOM      4  C   LIG    1       24.072 -19.659   4.461  0.00  0.00    +0.204 C 
ATOM      5  C   LIG    1       23.073 -20.634   4.953  0.00  0.00    +0.122 C 
ATOM      6  C   LIG    1       23.488 -21.533   5.855  0.00  0.00    +0.105 C 
ATOM      7  N   LIG    1       24.769 -21.643   6.356  0.00  0.00    -0.343 NA
ATOM      8  O   LIG    1       23.704 -18.814   3.648  0.00  0.00    -0.286 OA
ATOM      9  C   LIG    1       25.774 -20.712   5.956  0.00  0.00    +0.055 C 
ATOM     10  C   LIG    1       27.076 -20.754   6.493  0.00  0.00    +0.052 C 
ATOM     11  C   LIG    1       28.114 -19.913   6.058  0.00  0.00    +0.068 C 
ATOM     12  C   LIG    1       27.786 -18.987   5.053  0.00  0.00    +0.148 C 
ATOM     13  F   LIG    1       28.731 -18.152   4.588  0.00  0.00    -0.203 F 
ENDROOT
BRANCH  11  14
ATOM     14  N   LIG    1       29.392 -20.084   6.634  0.00  0.00    -0.325 NA
ATOM     15  C   LIG    1       29.406 -21.047   7.765  0.00  0.00    +0.123 C 
ATOM     16  C   LIG    1       30.857 -21.324   8.264  0.00  0.00    +0.068 C 
ATOM     17  C   LIG    1       30.830 -22.181   9.531  0.00  0.00    +0.025 C 
ATOM     18  N   LIG    1       31.635 -20.097   8.551  0.00  0.00    -0.310 NA
ATOM     19  H   LIG    1       31.175 -19.591   9.308  0.00  0.00    +0.122 HD
ATOM     20  C   LIG    1       31.620 -19.240   7.349  0.00  0.00    +0.100 C 
ATOM     21  C   LIG    1       30.191 -18.866   6.895  0.00  0.00    +0.120 C 
ENDBRANCH  11  14
BRANCH   7  22
ATOM     22  C   LIG    1       25.033 -22.709   7.342  0.00  0.00    +0.087 C 
ATOM     23  C   LIG    1       24.563 -24.130   7.132  0.00  0.00    +0.027 C 
ATOM     24  C   LIG    1       26.022 -23.817   7.067  0.00  0.00    +0.027 C 
ENDBRANCH   7  22
BRANCH   5  25
ATOM     25  C   LIG    1       21.664 -20.670   4.506  0.00  0.00    +0.342 C 
ATOM     26  O   LIG    1       21.097 -19.714   3.989  0.00  0.00    -0.245 OA
BRANCH  25  27
ATOM     27  O   LIG    1       21.035 -21.846   4.713  0.00  0.00    -0.477 OA
ATOM     28  H   LIG    1       20.340 -21.807   5.416  0.00  0.00    +0.295 HD
ENDBRANCH  25  27
ENDBRANCH   5  25
TORSDOF 4
ENDMDL
MODEL 2
REMARK VINA RESULT:      -7.0     10.780     12.937
REMARK  Name = *****
REMARK                            x       y       z     vdW  Elec       q    Type
REMARK                         _______ _______ _______ _____ _____    ______ ____
ROOT
ATOM      1  C   LIG    1       24.524 -25.430  14.813  0.00  0.00    +0.048 C 
ATOM      2  C   LIG    1       23.657 -26.504  14.213  0.00  0.00    -0.001 C 
ATOM      3  C   LIG    1       24.148 -27.471  13.309  0.00  0.00    +0.052 C 
ATOM      4  C   LIG    1       25.587 -27.498  12.884  0.00  0.00    +0.204 C 
ATOM      5  C   LIG    1       26.044 -28.567  11.970  0.00  0.00    +0.122 C 
ATOM      6  C   LIG    1       25.129 -29.455  11.561  0.00  0.00    +0.105 C 
ATOM      7  N   LIG    1       23.800 -29.474  11.928  0.00  0.00    -0.343 NA
ATOM      8  O   LIG    1       26.408 -26.662  13.254  0.00  0.00    -0.286 OA
ATOM      9  C   LIG    1       23.280 -28.450  12.777  0.00  0.00    +0.055 C 
ATOM     10  C   LIG    1       21.915 -28.400  13.123  0.00  0.00    +0.052 C 
ATOM     11  C   LIG    1       21.385 -27.463  14.025  0.00  0.00    +0.068 C 
ATOM     12  C   LIG    1       22.293 -26.537  14.567  0.00  0.00    +0.148 C 
ATOM     13  F   LIG    1       21.856 -25.613  15.439  0.00  0.00    -0.203 F 
ENDROOT
BRANCH  11  14
ATOM     14  N   LIG    1       20.010 -27.544  14.336  0.00  0.00    -0.325 NA
ATOM     15  C   LIG    1       19.426 -28.887  14.084  0.00  0.00    +0.123 C 
ATOM     16  C   LIG    1       17.954 -28.975  14.589  0.00  0.00    +0.068 C 
ATOM     17  C   LIG    1       17.325 -30.304  14.167  0.00  0.00    +0.025 C 
ATOM     18  N   LIG    1       17.088 -27.877  14.102  0.00  0.00    -0.310 NA
ATOM     19  H   LIG    1       17.035 -27.933  13.085  0.00  0.00    +0.122 HD
ATOM     20  C   LIG    1       17.716 -26.590  14.460  0.00  0.00    +0.100 C 
ATOM     21  C   LIG    1       19.141 -26.436  13.882  0.00  0.00    +0.120 C 
ENDBRANCH  11  14
BRANCH   7  22
ATOM     22  C   LIG    1       22.947 -30.543  11.375  0.00  0.00    +0.087 C 
ATOM     23  C   LIG    1       22.533 -30.567   9.921  0.00  0.00    +0.027 C 
ATOM     24  C   LIG    1       23.496 -31.588  10.433  0.00  0.00    +0.027 C 
ENDBRANCH   7  22
BRANCH   5  25
ATOM     25  C   LIG    1       27.437 -28.707  11.494  0.00  0.00    +0.342 C 
ATOM     26  O   LIG    1       27.729 -28.960  10.330  0.00  0.00    -0.245 OA
BRANCH  25  27
ATOM     27  O   LIG    1       28.380 -28.538  12.445  0.00  0.00    -0.477 OA
ATOM     28  H   LIG    1       28.062 -28.037  13.236  0.00  0.00    +0.295 HD
ENDBRANCH  25  27
ENDBRANCH   5  25
TORSDOF 4
ENDMDL
MODEL 3
REMARK VINA RESULT:      -6.8      7.211     10.203
REMARK  Name = *****
REMARK                            x       y       z     vdW  Elec       q    Type
REMARK                         _______ _______ _______ _____ _____    ______ ____
ROOT
ATOM      1  C   LIG    1       24.301 -31.037   5.753  0.00  0.00    +0.048 C 
ATOM      2  C   LIG    1       24.884 -29.916   6.571  0.00  0.00    -0.001 C 
ATOM      3  C   LIG    1       25.360 -30.095   7.888  0.00  0.00    +0.052 C 
ATOM      4  C   LIG    1       25.323 -31.432   8.568  0.00  0.00    +0.204 C 
ATOM      5  C   LIG    1       25.881 -31.559   9.932  0.00  0.00    +0.122 C 
ATOM      6  C   LIG    1       26.385 -30.453  10.493  0.00  0.00    +0.105 C 
ATOM      7  N   LIG    1       26.446 -29.205   9.905  0.00  0.00    -0.343 NA
ATOM      8  O   LIG    1       24.837 -32.434   8.046  0.00  0.00    -0.286 OA
ATOM      9  C   LIG    1       25.892 -29.001   8.606  0.00  0.00    +0.055 C 
ATOM     10  C   LIG    1       25.879 -27.729   8.001  0.00  0.00    +0.052 C 
ATOM     11  C   LIG    1       25.425 -27.506   6.690  0.00  0.00    +0.068 C 
ATOM     12  C   LIG    1       24.949 -28.632   5.996  0.00  0.00    +0.148 C 
ATOM     13  F   LIG    1       24.500 -28.493   4.737  0.00  0.00    -0.203 F 
ENDROOT
BRANCH  11  14
ATOM     14  N   LIG    1       25.511 -26.196   6.171  0.00  0.00    -0.325 NA
ATOM     15  C   LIG    1       25.760 -25.164   7.210  0.00  0.00    +0.123 C 
ATOM     16  C   LIG    1       26.006 -23.761   6.577  0.00  0.00    +0.068 C 
ATOM     17  C   LIG    1       26.091 -22.692   7.668  0.00  0.00    +0.025 C 
ATOM     18  N   LIG    1       24.964 -23.351   5.608  0.00  0.00    -0.310 NA
ATOM     19  H   LIG    1       24.073 -23.281   6.100  0.00  0.00    +0.122 HD
ATOM     20  C   LIG    1       24.839 -24.405   4.581  0.00  0.00    +0.100 C 
ATOM     21  C   LIG    1       24.493 -25.787   5.177  0.00  0.00    +0.120 C 
ENDBRANCH  11  14
BRANCH   7  22
ATOM     22  C   LIG    1       27.049 -28.106  10.684  0.00  0.00    +0.087 C 
ATOM     23  C   LIG    1       26.326 -27.454  11.841  0.00  0.00    +0.027 C 
ATOM     24  C   LIG    1       27.524 -28.307  12.104  0.00  0.00    +0.027 C 
ENDBRANCH   7  22
BRANCH   5  25
ATOM     25  C   LIG    1       25.914 -32.824  10.697  0.00  0.00    +0.342 C 
ATOM     26  O   LIG    1       25.366 -32.969  11.784  0.00  0.00    -0.245 OA
BRANCH  25  27
ATOM     27  O   LIG    1       26.606 -33.824  10.108  0.00  0.00    -0.477 OA
ATOM     28  H   LIG    1       26.977 -34.481  10.747  0.00  0.00    +0.295 HD
ENDBRANCH  25  27
ENDBRANCH   5  25
TORSDOF 4
ENDMDL
MODEL 4
REMARK VINA RESULT:      -6.7      9.123     11.724
REMARK  Name = *****
REMARK                            x       y       z     vdW  Elec       q    Type
REMARK                         _______ _______ _______ _____ _____    ______ ____
ROOT
ATOM      1  C   LIG    1       26.280 -33.811   9.450  0.00  0.00    +0.048 C 
ATOM      2  C   LIG    1       25.860 -32.375   9.289  0.00  0.00    -0.001 C 
ATOM      3  C   LIG    1       25.706 -31.758   8.029  0.00  0.00    +0.052 C 
ATOM      4  C   LIG    1       25.949 -32.501   6.748  0.00  0.00    +0.204 C 
ATOM      5  C   LIG    1       25.725 -31.806   5.461  0.00  0.00    +0.122 C 
ATOM      6  C   LIG    1       25.322 -30.530   5.517  0.00  0.00    +0.105 C 
ATOM      7  N   LIG    1       25.080 -29.808   6.668  0.00  0.00    -0.343 NA
ATOM      8  O   LIG    1       26.339 -33.666   6.716  0.00  0.00    -0.286 OA
ATOM      9  C   LIG    1       25.313 -30.403   7.945  0.00  0.00    +0.055 C 
ATOM     10  C   LIG    1       25.138 -29.678   9.140  0.00  0.00    +0.052 C 
ATOM     11  C   LIG    1       25.270 -30.254  10.414  0.00  0.00    +0.068 C 
ATOM     12  C   LIG    1       25.615 -31.616  10.450  0.00  0.00    +0.148 C 
ATOM     13  F   LIG    1       25.757 -32.233  11.635  0.00  0.00    -0.203 F 
ENDROOT
BRANCH  11  14
ATOM     14  N   LIG    1       25.017 -29.441  11.541  0.00  0.00    -0.325 NA
ATOM     15  C   LIG    1       23.580 -29.110  11.720  0.00  0.00    +0.123 C 
ATOM     16  C   LIG    1       23.330 -28.349  13.057  0.00  0.00    +0.068 C 
ATOM     17  C   LIG    1       21.877 -27.873  13.136  0.00  0.00    +0.025 C 
ATOM     18  N   LIG    1       24.212 -27.175  13.252  0.00  0.00    -0.310 NA
ATOM     19  H   LIG    1       24.023 -26.501  12.509  0.00  0.00    +0.122 HD
ATOM     20  C   LIG    1       25.615 -27.617  13.124  0.00  0.00    +0.100 C 
ATOM     21  C   LIG    1       25.913 -28.284  11.762  0.00  0.00    +0.120 C 
ENDBRANCH  11  14
BRANCH   7  22
ATOM     22  C   LIG    1       24.632 -28.410   6.523  0.00  0.00    +0.087 C 
ATOM     23  C   LIG    1       25.608 -27.256   6.482  0.00  0.00    +0.027 C 
ATOM     24  C   LIG    1       24.857 -27.633   5.247  0.00  0.00    +0.027 C 
ENDBRANCH   7  22
BRANCH   5  25
ATOM     25  C   LIG    1       25.916 -32.436   4.138  0.00  0.00    +0.342 C 
ATOM     26  O   LIG    1       27.019 -32.700   3.670  0.00  0.00    -0.245 OA
BRANCH  25  27
ATOM     27  O   LIG    1       24.775 -32.700   3.466  0.00  0.00    -0.477 OA
ATOM     28  H   LIG    1       23.966 -32.325   3.893  0.00  0.00    +0.295 HD
ENDBRANCH  25  27
ENDBRANCH   5  25
TORSDOF 4
ENDMDL
MODEL 5
REMARK VINA RESULT:      -6.5     10.311     12.838
REMARK  Name = *****
REMARK                            x       y       z     vdW  Elec       q    Type
REMARK                         _______ _______ _______ _____ _____    ______ ____
ROOT
ATOM      1  C   LIG    1       26.620 -30.060   9.429  0.00  0.00    +0.048 C 
ATOM      2  C   LIG    1       25.314 -29.916  10.164  0.00  0.00    -0.001 C 
ATOM      3  C   LIG    1       25.138 -29.028  11.247  0.00  0.00    +0.052 C 
ATOM      4  C   LIG    1       26.252 -28.153  11.743  0.00  0.00    +0.204 C 
ATOM      5  C   LIG    1       25.985 -27.212  12.853  0.00  0.00    +0.122 C 
ATOM      6  C   LIG    1       24.748 -27.205  13.365  0.00  0.00    +0.105 C 
ATOM      7  N   LIG    1       23.692 -27.985  12.939  0.00  0.00    -0.343 NA
ATOM      8  O   LIG    1       27.388 -28.189  11.274  0.00  0.00    -0.286 OA
ATOM      9  C   LIG    1       23.887 -28.942  11.899  0.00  0.00    +0.055 C 
ATOM     10  C   LIG    1       22.850 -29.799  11.480  0.00  0.00    +0.052 C 
ATOM     11  C   LIG    1       22.978 -30.689  10.401  0.00  0.00    +0.068 C 
ATOM     12  C   LIG    1       24.224 -30.708   9.752  0.00  0.00    +0.148 C 
ATOM     13  F   LIG    1       24.417 -31.534   8.711  0.00  0.00    -0.203 F 
ENDROOT
BRANCH  11  14
ATOM     14  N   LIG    1       21.851 -31.461  10.039  0.00  0.00    -0.325 NA
ATOM     15  C   LIG    1       20.589 -30.992  10.666  0.00  0.00    +0.123 C 
ATOM     16  C   LIG    1       19.354 -31.768  10.117  0.00  0.00    +0.068 C 
ATOM     17  C   LIG    1       18.094 -31.386  10.897  0.00  0.00    +0.025 C 
ATOM     18  N   LIG    1       19.501 -33.241  10.168  0.00  0.00    -0.310 NA
ATOM     19  H   LIG    1       19.594 -33.523  11.145  0.00  0.00    +0.122 HD
ATOM     20  C   LIG    1       20.744 -33.612   9.463  0.00  0.00    +0.100 C 
ATOM     21  C   LIG    1       21.998 -32.933  10.057  0.00  0.00    +0.120 C 
ENDBRANCH  11  14
BRANCH   7  22
ATOM     22  C   LIG    1       22.396 -27.826  13.628  0.00  0.00    +0.087 C 
ATOM     23  C   LIG    1       22.045 -26.571  14.394  0.00  0.00    +0.027 C 
ATOM     24  C   LIG    1       21.337 -26.879  13.115  0.00  0.00    +0.027 C 
ENDBRANCH   7  22
BRANCH   5  25
ATOM     25  C   LIG    1       26.996 -26.292  13.417  0.00  0.00    +0.342 C 
ATOM     26  O   LIG    1       26.906 -25.071  13.353  0.00  0.00    -0.245 OA
BRANCH  25  27
ATOM     27  O   LIG    1       28.044 -26.900  14.013  0.00  0.00    -0.477 OA
ATOM     28  H   LIG    1       27.904 -27.082  14.975  0.00  0.00    +0.295 HD
ENDBRANCH  25  27
ENDBRANCH   5  25
TORSDOF 4
ENDMDL
MODEL 6
REMARK VINA RESULT:      -6.5      1.701      3.476
REMARK  Name = *****
REMARK                            x       y       z     vdW  Elec       q    Type
REMARK                         _______ _______ _______ _____ _____    ______ ____
ROOT
ATOM      1  C   LIG    1       24.554 -22.184   8.089  0.00  0.00    +0.048 C 
ATOM      2  C   LIG    1       25.422 -21.351   7.186  0.00  0.00    -0.001 C 
ATOM      3  C   LIG    1       24.916 -20.649   6.070  0.00  0.00    +0.052 C 
ATOM      4  C   LIG    1       23.461 -20.681   5.707  0.00  0.00    +0.204 C 
ATOM      5  C   LIG    1       22.991 -19.885   4.552  0.00  0.00    +0.122 C 
ATOM      6  C   LIG    1       23.910 -19.180   3.881  0.00  0.00    +0.105 C 
ATOM      7  N   LIG    1       25.256 -19.115   4.180  0.00  0.00    -0.343 NA
ATOM      8  O   LIG    1       22.634 -21.352   6.323  0.00  0.00    -0.286 OA
ATOM      9  C   LIG    1       25.785 -19.887   5.257  0.00  0.00    +0.055 C 
ATOM     10  C   LIG    1       27.163 -19.895   5.552  0.00  0.00    +0.052 C 
ATOM     11  C   LIG    1       27.708 -20.570   6.657  0.00  0.00    +0.068 C 
ATOM     12  C   LIG    1       26.801 -21.276   7.466  0.00  0.00    +0.148 C 
ATOM     13  F   LIG    1       27.251 -21.944   8.541  0.00  0.00    -0.203 F 
ENDROOT
BRANCH  11  14
ATOM     14  N   LIG    1       29.098 -20.462   6.883  0.00  0.00    -0.325 NA
ATOM     15  C   LIG    1       29.564 -21.227   8.068  0.00  0.00    +0.123 C 
ATOM     16  C   LIG    1       31.119 -21.210   8.185  0.00  0.00    +0.068 C 
ATOM     17  C   LIG    1       31.561 -21.857   9.499  0.00  0.00    +0.025 C 
ATOM     18  N   LIG    1       31.709 -19.853   8.115  0.00  0.00    -0.310 NA
ATOM     19  H   LIG    1       31.366 -19.309   8.908  0.00  0.00    +0.122 HD
ATOM     20  C   LIG    1       31.243 -19.202   6.875  0.00  0.00    +0.100 C 
ATOM     21  C   LIG    1       29.703 -19.115   6.784  0.00  0.00    +0.120 C 
ENDBRANCH  11  14
BRANCH   7  22
ATOM     22  C   LIG    1       26.112 -18.272   3.323  0.00  0.00    +0.087 C 
ATOM     23  C   LIG    1       25.908 -16.779   3.207  0.00  0.00    +0.027 C 
ATOM     24  C   LIG    1       27.116 -17.307   3.908  0.00  0.00    +0.027 C 
ENDBRANCH   7  22
BRANCH   5  25
ATOM     25  C   LIG    1       21.582 -19.826   4.108  0.00  0.00    +0.342 C 
ATOM     26  O   LIG    1       21.050 -18.803   3.691  0.00  0.00    -0.245 OA
BRANCH  25  27
ATOM     27  O   LIG    1       20.911 -20.994   4.198  0.00  0.00    -0.477 OA
ATOM     28  H   LIG    1       21.498 -21.789   4.239  0.00  0.00    +0.295 HD
ENDBRANCH  25  27
ENDBRANCH   5  25
TORSDOF 4
ENDMDL
MODEL 7
REMARK VINA RESULT:      -6.5     10.771     12.624
REMARK  Name = *****
REMARK                            x       y       z     vdW  Elec       q    Type
REMARK                         _______ _______ _______ _____ _____    ______ ____
ROOT
ATOM      1  C   LIG    1       19.937 -32.681  10.132  0.00  0.00    +0.048 C 
ATOM      2  C   LIG    1       20.879 -31.639  10.673  0.00  0.00    -0.001 C 
ATOM      3  C   LIG    1       20.522 -30.746  11.707  0.00  0.00    +0.052 C 
ATOM      4  C   LIG    1       19.167 -30.779  12.349  0.00  0.00    +0.204 C 
ATOM      5  C   LIG    1       18.876 -29.845  13.459  0.00  0.00    +0.122 C 
ATOM      6  C   LIG    1       19.853 -29.004  13.823  0.00  0.00    +0.105 C 
ATOM      7  N   LIG    1       21.114 -28.941  13.267  0.00  0.00    -0.343 NA
ATOM      8  O   LIG    1       18.275 -31.544  11.988  0.00  0.00    -0.286 OA
ATOM      9  C   LIG    1       21.451 -29.786  12.167  0.00  0.00    +0.055 C 
ATOM     10  C   LIG    1       22.707 -29.706  11.533  0.00  0.00    +0.052 C 
ATOM     11  C   LIG    1       23.107 -30.580  10.509  0.00  0.00    +0.068 C 
ATOM     12  C   LIG    1       22.169 -31.550  10.115  0.00  0.00    +0.148 C 
ATOM     13  F   LIG    1       22.485 -32.420   9.141  0.00  0.00    -0.203 F 
ENDROOT
BRANCH  11  14
ATOM     14  N   LIG    1       24.411 -30.437   9.985  0.00  0.00    -0.325 NA
ATOM     15  C   LIG    1       25.372 -29.844  10.950  0.00  0.00    +0.123 C 
ATOM     16  C   LIG    1       26.826 -29.853  10.389  0.00  0.00    +0.068 C 
ATOM     17  C   LIG    1       27.764 -29.086  11.324  0.00  0.00    +0.025 C 
ATOM     18  N   LIG    1       26.948 -29.270   9.032  0.00  0.00    -0.310 NA
ATOM     19  H   LIG    1       26.675 -28.288   9.076  0.00  0.00    +0.122 HD
ATOM     20  C   LIG    1       26.007 -29.969   8.136  0.00  0.00    +0.100 C 
ATOM     21  C   LIG    1       24.542 -29.886   8.618  0.00  0.00    +0.120 C 
ENDBRANCH  11  14
BRANCH   7  22
ATOM     22  C   LIG    1       22.058 -27.947  13.813  0.00  0.00    +0.087 C 
ATOM     23  C   LIG    1       22.149 -26.542  13.264  0.00  0.00    +0.027 C 
ATOM     24  C   LIG    1       21.585 -26.768  14.629  0.00  0.00    +0.027 C 
ENDBRANCH   7  22
BRANCH   5  25
ATOM     25  C   LIG    1       17.585 -29.794  14.179  0.00  0.00    +0.342 C 
ATOM     26  O   LIG    1       17.473 -30.022  15.378  0.00  0.00    -0.245 OA
BRANCH  25  27
ATOM     27  O   LIG    1       16.521 -29.477  13.410  0.00  0.00    -0.477 OA
ATOM     28  H   LIG    1       16.074 -28.636  13.677  0.00  0.00    +0.295 HD
ENDBRANCH  25  27
ENDBRANCH   5  25
TORSDOF 4
ENDMDL
MODEL 8
REMARK VINA RESULT:      -6.4     10.091     11.298
REMARK  Name = *****
REMARK                            x       y       z     vdW  Elec       q    Type
REMARK                         _______ _______ _______ _____ _____    ______ ____
ROOT
ATOM      1  C   LIG    1       24.826 -31.349   9.390  0.00  0.00    +0.048 C 
ATOM      2  C   LIG    1       24.511 -30.375  10.493  0.00  0.00    -0.001 C 
ATOM      3  C   LIG    1       23.199 -30.137  10.956  0.00  0.00    +0.052 C 
ATOM      4  C   LIG    1       22.013 -30.851  10.375  0.00  0.00    +0.204 C 
ATOM      5  C   LIG    1       20.671 -30.588  10.939  0.00  0.00    +0.122 C 
ATOM      6  C   LIG    1       20.591 -29.706  11.942  0.00  0.00    +0.105 C 
ATOM      7  N   LIG    1       21.651 -29.030  12.511  0.00  0.00    -0.343 NA
ATOM      8  O   LIG    1       22.104 -31.644   9.440  0.00  0.00    -0.286 OA
ATOM      9  C   LIG    1       22.969 -29.206  11.993  0.00  0.00    +0.055 C 
ATOM     10  C   LIG    1       24.067 -28.487  12.507  0.00  0.00    +0.052 C 
ATOM     11  C   LIG    1       25.390 -28.698  12.084  0.00  0.00    +0.068 C 
ATOM     12  C   LIG    1       25.577 -29.668  11.084  0.00  0.00    +0.148 C 
ATOM     13  F   LIG    1       26.816 -29.924  10.632  0.00  0.00    -0.203 F 
ENDROOT
BRANCH  11  14
ATOM     14  N   LIG    1       26.414 -27.955  12.710  0.00  0.00    -0.325 NA
ATOM     15  C   LIG    1       27.139 -28.716  13.759  0.00  0.00    +0.123 C 
ATOM     16  C   LIG    1       28.359 -27.916  14.308  0.00  0.00    +0.068 C 
ATOM     17  C   LIG    1       28.983 -28.646  15.499  0.00  0.00    +0.025 C 
ATOM     18  N   LIG    1       28.027 -26.537  14.734  0.00  0.00    -0.310 NA
ATOM     19  H   LIG    1       27.359 -26.587  15.504  0.00  0.00    +0.122 HD
ATOM     20  C   LIG    1       27.375 -25.843  13.606  0.00  0.00    +0.100 C 
ATOM     21  C   LIG    1       26.102 -26.565  13.110  0.00  0.00    +0.120 C 
ENDBRANCH  11  14
BRANCH   7  22
ATOM     22  C   LIG    1       21.360 -28.100  13.619  0.00  0.00    +0.087 C 
ATOM     23  C   LIG    1       21.300 -26.603  13.414  0.00  0.00    +0.027 C 
ATOM     24  C   LIG    1       20.047 -27.360  13.709  0.00  0.00    +0.027 C 
ENDBRANCH   7  22
BRANCH   5  25
ATOM     25  C   LIG    1       19.433 -31.240  10.461  0.00  0.00    +0.342 C 
ATOM     26  O   LIG    1       19.118 -32.388  10.757  0.00  0.00    -0.245 OA
BRANCH  25  27
ATOM     27  O   LIG    1       18.662 -30.473   9.661  0.00  0.00    -0.477 OA
ATOM     28  H   LIG    1       18.683 -29.512   9.890  0.00  0.00    +0.295 HD
ENDBRANCH  25  27
ENDBRANCH   5  25
TORSDOF 4
ENDMDL
MODEL 9
REMARK VINA RESULT:      -6.4      8.102     11.241
REMARK  Name = *****
REMARK                            x       y       z     vdW  Elec       q    Type
REMARK                         _______ _______ _______ _____ _____    ______ ____
ROOT
ATOM      1  C   LIG    1       23.617 -32.242   7.475  0.00  0.00    +0.048 C 
ATOM      2  C   LIG    1       24.424 -31.061   7.945  0.00  0.00    -0.001 C 
ATOM      3  C   LIG    1       24.926 -30.949   9.259  0.00  0.00    +0.052 C 
ATOM      4  C   LIG    1       24.693 -32.015  10.289  0.00  0.00    +0.204 C 
ATOM      5  C   LIG    1       25.287 -31.855  11.634  0.00  0.00    +0.122 C 
ATOM      6  C   LIG    1       26.001 -30.744  11.860  0.00  0.00    +0.105 C 
ATOM      7  N   LIG    1       26.247 -29.742  10.944  0.00  0.00    -0.343 NA
ATOM      8  O   LIG    1       24.017 -33.018  10.070  0.00  0.00    -0.286 OA
ATOM      9  C   LIG    1       25.672 -29.812   9.640  0.00  0.00    +0.055 C 
ATOM     10  C   LIG    1       25.850 -28.777   8.699  0.00  0.00    +0.052 C 
ATOM     11  C   LIG    1       25.377 -28.851   7.378  0.00  0.00    +0.068 C 
ATOM     12  C   LIG    1       24.680 -30.021   7.030  0.00  0.00    +0.148 C 
ATOM     13  F   LIG    1       24.201 -30.160   5.783  0.00  0.00    -0.203 F 
ENDROOT
BRANCH  11  14
ATOM     14  N   LIG    1       25.661 -27.774   6.510  0.00  0.00    -0.325 NA
ATOM     15  C   LIG    1       25.603 -26.447   7.176  0.00  0.00    +0.123 C 
ATOM     16  C   LIG    1       26.078 -25.308   6.225  0.00  0.00    +0.068 C 
ATOM     17  C   LIG    1       25.849 -23.941   6.874  0.00  0.00    +0.025 C 
ATOM     18  N   LIG    1       25.405 -25.311   4.905  0.00  0.00    -0.310 NA
ATOM     19  H   LIG    1       24.407 -25.153   5.050  0.00  0.00    +0.122 HD
ATOM     20  C   LIG    1       25.576 -26.644   4.295  0.00  0.00    +0.100 C 
ATOM     21  C   LIG    1       25.019 -27.784   5.177  0.00  0.00    +0.120 C 
ENDBRANCH  11  14
BRANCH   7  22
ATOM     22  C   LIG    1       27.066 -28.595  11.382  0.00  0.00    +0.087 C 
ATOM     23  C   LIG    1       26.472 -27.425  12.131  0.00  0.00    +0.027 C 
ATOM     24  C   LIG    1       27.394 -28.364  12.838  0.00  0.00    +0.027 C 
ENDBRANCH   7  22
BRANCH   5  25
ATOM     25  C   LIG    1       25.140 -32.842  12.726  0.00  0.00    +0.342 C 
ATOM     26  O   LIG    1       26.092 -33.350  13.307  0.00  0.00    -0.245 OA
BRANCH  25  27
ATOM     27  O   LIG    1       23.863 -33.152  13.039  0.00  0.00    -0.477 OA
ATOM     28  H   LIG    1       23.204 -32.482  12.732  0.00  0.00    +0.295 HD
ENDBRANCH  25  27
ENDBRANCH   5  25
TORSDOF 4
ENDMDL
