MODEL 1
REMARK VINA RESULT:       6.3      0.000      0.000
REMARK  Name = *****
REMARK                            x       y       z     vdW  Elec       q    Type
REMARK                         _______ _______ _______ _____ _____    ______ ____
ROOT
ATOM      1  C   LIG    1       23.941 -16.933   4.089  0.00  0.00    +0.061 A 
ATOM      2  C   LIG    1       22.714 -16.647   4.738  0.00  0.00    +0.131 A 
ATOM      3  C   LIG    1       21.760 -17.657   4.914  0.00  0.00    +0.048 A 
ATOM      4  C   LIG    1       22.007 -18.955   4.467  0.00  0.00    +0.032 A 
ATOM      5  C   LIG    1       23.202 -19.238   3.804  0.00  0.00    +0.106 A 
ATOM      6  C   LIG    1       24.181 -18.249   3.645  0.00  0.00    +0.043 A 
ENDROOT
BRANCH   1  10
ATOM      7  C   LIG    1       25.831 -12.541   2.663  0.00  0.00    +0.089 A 
ATOM      8  C   LIG    1       25.775 -13.848   3.184  0.00  0.00    +0.119 A 
ATOM      9  N   LIG    1       24.685 -14.714   3.350  0.00  0.00    -0.225 NA
ATOM     10  C   LIG    1       25.004 -15.886   3.828  0.00  0.00    +0.145 C 
ATOM     11  N   LIG    1       26.311 -16.251   4.148  0.00  0.00    -0.305 N 
ATOM     12  H   LIG    1       26.494 -17.170   4.525  0.00  0.00    +0.170 HD
ATOM     13  C   LIG    1       27.407 -15.438   4.036  0.00  0.00    +0.278 C 
ATOM     14  O   LIG    1       28.534 -15.794   4.365  0.00  0.00    -0.266 OA
ATOM     15  C   LIG    1       27.057 -14.177   3.513  0.00  0.00    +0.151 A 
ATOM     16  N   LIG    1       27.809 -13.079   3.241  0.00  0.00    -0.260 N 
ATOM     17  C   LIG    1       29.212 -12.900   3.530  0.00  0.00    +0.173 C 
ATOM     18  N   LIG    1       27.093 -12.066   2.698  0.00  0.00    -0.174 NA
BRANCH   7  19
ATOM     19  C   LIG    1       24.719 -11.711   2.121  0.00  0.00    +0.059 C 
BRANCH  19  21
ATOM     20  C   LIG    1       24.042 -11.634   4.579  0.00  0.00    +0.004 C 
ATOM     21  C   LIG    1       23.600 -11.451   3.133  0.00  0.00    +0.003 C 
ENDBRANCH  19  21
ENDBRANCH   7  19
ENDBRANCH   1  10
BRANCH   5  22
ATOM     22  S   LIG    1       23.471 -20.896   3.194  0.00  0.00    +0.061 S 
ATOM     23  O   LIG    1       24.229 -20.803   1.967  0.00  0.00    -0.153 OA
ATOM     24  O   LIG    1       22.182 -21.570   3.233  0.00  0.00    -0.153 OA
BRANCH  22  25
ATOM     25  N   LIG    1       24.467 -21.570   4.397  0.00  0.00    -0.174 NA
ATOM     26  C   LIG    1       25.939 -21.451   4.178  0.00  0.00    +0.124 C 
ATOM     27  C   LIG    1       26.507 -20.120   4.709  0.00  0.00    +0.101 C 
ATOM     28  N   LIG    1       26.184 -19.809   6.116  0.00  0.00    -0.303 NA
ATOM     29  C   LIG    1       26.994 -20.571   7.060  0.00  0.00    +0.105 C 
ATOM     30  C   LIG    1       24.737 -19.980   6.353  0.00  0.00    +0.101 C 
ATOM     31  C   LIG    1       24.116 -21.290   5.822  0.00  0.00    +0.124 C 
ENDBRANCH  22  25
ENDBRANCH   5  22
BRANCH   2  32
ATOM     32  O   LIG    1       22.471 -15.355   5.142  0.00  0.00    -0.491 OA
BRANCH  32  33
ATOM     33  C   LIG    1       22.327 -15.133   6.548  0.00  0.00    +0.226 C 
ATOM     34  C   LIG    1       20.850 -14.947   6.850  0.00  0.00    +0.048 C 
ENDBRANCH  32  33
ENDBRANCH   2  32
TORSDOF 7
ENDMDL
