MODEL 1
REMARK VINA RESULT:      -6.4      0.000      0.000
REMARK  Name = *****
REMARK                            x       y       z     vdW  Elec       q    Type
REMARK                         _______ _______ _______ _____ _____    ______ ____
ROOT
ATOM      1  C   LIG    1       26.875 -21.578   6.826  0.00  0.00    +0.169 C 
ATOM      2  C   LIG    1       26.434 -20.351   5.957  0.00  0.00    +0.084 C 
ATOM      3  C   LIG    1       24.966 -20.321   5.508  0.00  0.00    +0.042 C 
ATOM      4  C   LIG    1       24.087 -20.577   6.715  0.00  0.00    +0.084 C 
ATOM      5  C   LIG    1       24.306 -22.021   7.163  0.00  0.00    +0.163 C 
ATOM      6  C   LIG    1       25.746 -22.301   7.636  0.00  0.00    +0.182 C 
ENDROOT
BRANCH   2   7
ATOM      7  N   LIG    1       27.284 -20.196   4.755  0.00  0.00    -0.325 NA
ATOM      8  H   LIG    1       26.761 -20.499   3.923  0.00  0.00    +0.118 HD
ATOM      9  H   LIG    1       28.102 -20.798   4.810  0.00  0.00    +0.118 HD
ENDBRANCH   2   7
BRANCH   4  10
ATOM     10  N   LIG    1       22.658 -20.373   6.415  0.00  0.00    -0.325 NA
ATOM     11  H   LIG    1       22.398 -19.411   6.641  0.00  0.00    +0.118 HD
ATOM     12  H   LIG    1       22.489 -20.479   5.415  0.00  0.00    +0.118 HD
ENDBRANCH   4  10
BRANCH   5  13
ATOM     13  O   LIG    1       23.378 -22.268   8.234  0.00  0.00    -0.388 OA
ATOM     14  H   LIG    1       22.498 -22.034   7.869  0.00  0.00    +0.210 HD
ENDBRANCH   5  13
BRANCH   6  15
ATOM     15  O   LIG    1       26.049 -23.731   7.551  0.00  0.00    -0.340 OA
BRANCH  15  16
ATOM     16  C   LIG    1       25.086 -24.511   6.833  0.00  0.00    +0.282 C 
ATOM     17  C   LIG    1       25.423 -24.507   5.326  0.00  0.00    +0.201 C 
ATOM     18  C   LIG    1       25.166 -25.952   4.931  0.00  0.00    +0.179 C 
ATOM     19  C   LIG    1       25.480 -26.726   6.204  0.00  0.00    +0.178 C 
ATOM     20  O   LIG    1       25.131 -25.862   7.298  0.00  0.00    -0.341 OA
BRANCH  18  21
ATOM     21  O   LIG    1       23.783 -26.131   4.581  0.00  0.00    -0.386 OA
ATOM     22  H   LIG    1       23.311 -26.371   5.403  0.00  0.00    +0.210 HD
ENDBRANCH  18  21
BRANCH  17  23
ATOM     23  O   LIG    1       24.583 -23.630   4.563  0.00  0.00    -0.384 OA
ATOM     24  H   LIG    1       25.105 -23.349   3.791  0.00  0.00    +0.210 HD
ENDBRANCH  17  23
BRANCH  19  25
ATOM     25  C   LIG    1       26.961 -27.095   6.355  0.00  0.00    +0.190 C 
BRANCH  25  26
ATOM     26  O   LIG    1       27.624 -27.187   5.100  0.00  0.00    -0.392 OA
ATOM     27  H   LIG    1       26.997 -27.543   4.443  0.00  0.00    +0.209 HD
ENDBRANCH  25  26
ENDBRANCH  19  25
ENDBRANCH  15  16
ENDBRANCH   6  15
BRANCH   1  28
ATOM     28  O   LIG    1       27.913 -21.043   7.715  0.00  0.00    -0.342 OA
BRANCH  28  33
ATOM     29  C   LIG    1       29.501 -18.880   6.657  0.00  0.00    +0.166 C 
ATOM     30  C   LIG    1       30.397 -18.565   7.869  0.00  0.00    +0.175 C 
ATOM     31  C   LIG    1       30.177 -19.596   8.985  0.00  0.00    +0.167 C 
ATOM     32  C   LIG    1       30.291 -21.026   8.426  0.00  0.00    +0.139 C 
ATOM     33  C   LIG    1       29.263 -21.185   7.264  0.00  0.00    +0.270 C 
ATOM     34  O   LIG    1       29.599 -20.254   6.242  0.00  0.00    -0.343 OA
BRANCH  32  35
ATOM     35  N   LIG    1       30.200 -22.040   9.499  0.00  0.00    -0.321 NA
ATOM     36  H   LIG    1       29.210 -22.264   9.636  0.00  0.00    +0.119 HD
ATOM     37  H   LIG    1       30.623 -22.907   9.163  0.00  0.00    +0.119 HD
ENDBRANCH  32  35
BRANCH  31  38
ATOM     38  O   LIG    1       31.153 -19.371  10.028  0.00  0.00    -0.387 OA
ATOM     39  H   LIG    1       31.916 -19.946   9.851  0.00  0.00    +0.210 HD
ENDBRANCH  31  38
BRANCH  30  40
ATOM     40  O   LIG    1       30.127 -17.252   8.375  0.00  0.00    -0.387 OA
ATOM     41  H   LIG    1       30.224 -17.302   9.348  0.00  0.00    +0.210 HD
ENDBRANCH  30  40
BRANCH  29  42
ATOM     42  C   LIG    1       29.821 -18.011   5.419  0.00  0.00    +0.112 C 
BRANCH  42  43
ATOM     43  N   LIG    1       28.670 -17.647   4.581  0.00  0.00    -0.328 NA
ATOM     44  H   LIG    1       28.315 -18.470   4.096  0.00  0.00    +0.118 HD
ATOM     45  H   LIG    1       28.951 -16.967   3.879  0.00  0.00    +0.118 HD
ENDBRANCH  42  43
ENDBRANCH  29  42
ENDBRANCH  28  33
ENDBRANCH   1  28
TORSDOF 16
ENDMDL
MODEL 2
REMARK VINA RESULT:      -6.3      6.656     10.876
REMARK  Name = *****
REMARK                            x       y       z     vdW  Elec       q    Type
REMARK                         _______ _______ _______ _____ _____    ______ ____
ROOT
ATOM      1  C   LIG    1       23.354 -30.754   8.886  0.00  0.00    +0.169 C 
ATOM      2  C   LIG    1       23.619 -32.263   9.218  0.00  0.00    +0.084 C 
ATOM      3  C   LIG    1       25.021 -32.799   8.898  0.00  0.00    +0.042 C 
ATOM      4  C   LIG    1       26.046 -31.846   9.477  0.00  0.00    +0.084 C 
ATOM      5  C   LIG    1       25.967 -30.534   8.698  0.00  0.00    +0.163 C 
ATOM      6  C   LIG    1       24.610 -29.818   8.845  0.00  0.00    +0.182 C 
ENDROOT
BRANCH   2   7
ATOM      7  N   LIG    1       22.629 -33.149   8.565  0.00  0.00    -0.325 NA
ATOM      8  H   LIG    1       21.827 -32.592   8.246  0.00  0.00    +0.118 HD
ATOM      9  H   LIG    1       22.259 -33.828   9.227  0.00  0.00    +0.118 HD
ENDBRANCH   2   7
BRANCH   4  10
ATOM     10  N   LIG    1       27.417 -32.381   9.387  0.00  0.00    -0.325 NA
ATOM     11  H   LIG    1       27.796 -32.188   8.458  0.00  0.00    +0.118 HD
ATOM     12  H   LIG    1       28.028 -31.897  10.043  0.00  0.00    +0.118 HD
ENDBRANCH   4  10
BRANCH   5  13
ATOM     13  O   LIG    1       27.024 -29.693   9.192  0.00  0.00    -0.388 OA
ATOM     14  H   LIG    1       27.611 -29.543   8.421  0.00  0.00    +0.210 HD
ENDBRANCH   5  13
BRANCH   6  15
ATOM     15  O   LIG    1       24.385 -28.901   7.727  0.00  0.00    -0.340 OA
BRANCH  15  16
ATOM     16  C   LIG    1       25.572 -28.466   7.053  0.00  0.00    +0.282 C 
ATOM     17  C   LIG    1       25.355 -28.505   5.525  0.00  0.00    +0.201 C 
ATOM     18  C   LIG    1       26.022 -27.218   5.069  0.00  0.00    +0.179 C 
ATOM     19  C   LIG    1       25.841 -26.286   6.259  0.00  0.00    +0.178 C 
ATOM     20  O   LIG    1       25.863 -27.119   7.430  0.00  0.00    -0.341 OA
BRANCH  18  21
ATOM     21  O   LIG    1       27.423 -27.442   4.835  0.00  0.00    -0.386 OA
ATOM     22  H   LIG    1       27.772 -27.905   5.624  0.00  0.00    +0.210 HD
ENDBRANCH  18  21
BRANCH  17  23
ATOM     23  O   LIG    1       25.977 -29.634   4.895  0.00  0.00    -0.384 OA
ATOM     24  H   LIG    1       25.256 -30.220   4.605  0.00  0.00    +0.210 HD
ENDBRANCH  17  23
BRANCH  19  25
ATOM     25  C   LIG    1       24.509 -25.525   6.252  0.00  0.00    +0.190 C 
BRANCH  25  26
ATOM     26  O   LIG    1       24.314 -24.793   5.050  0.00  0.00    -0.392 OA
ATOM     27  H   LIG    1       24.613 -23.875   5.192  0.00  0.00    +0.209 HD
ENDBRANCH  25  26
ENDBRANCH  19  25
ENDBRANCH  15  16
ENDBRANCH   6  15
BRANCH   1  28
ATOM     28  O   LIG    1       22.394 -30.318   9.908  0.00  0.00    -0.342 OA
BRANCH  28  33
ATOM     29  C   LIG    1       22.379 -28.742  12.322  0.00  0.00    +0.166 C 
ATOM     30  C   LIG    1       20.973 -29.061  12.863  0.00  0.00    +0.175 C 
ATOM     31  C   LIG    1       20.302 -30.148  12.012  0.00  0.00    +0.167 C 
ATOM     32  C   LIG    1       21.243 -31.357  11.845  0.00  0.00    +0.139 C 
ATOM     33  C   LIG    1       22.580 -30.858  11.219  0.00  0.00    +0.270 C 
ATOM     34  O   LIG    1       23.171 -29.924  12.115  0.00  0.00    -0.343 OA
BRANCH  32  35
ATOM     35  N   LIG    1       20.580 -32.469  11.129  0.00  0.00    -0.321 NA
ATOM     36  H   LIG    1       21.263 -32.877  10.485  0.00  0.00    +0.119 HD
ATOM     37  H   LIG    1       20.374 -33.210  11.801  0.00  0.00    +0.119 HD
ENDBRANCH  32  35
BRANCH  31  38
ATOM     38  O   LIG    1       19.066 -30.542  12.648  0.00  0.00    -0.387 OA
ATOM     39  H   LIG    1       18.885 -31.465  12.404  0.00  0.00    +0.210 HD
ENDBRANCH  31  38
BRANCH  30  40
ATOM     40  O   LIG    1       20.151 -27.887  12.868  0.00  0.00    -0.387 OA
ATOM     41  H   LIG    1       19.409 -28.069  13.480  0.00  0.00    +0.210 HD
ENDBRANCH  30  40
BRANCH  29  42
ATOM     42  C   LIG    1       23.194 -27.811  13.251  0.00  0.00    +0.112 C 
BRANCH  42  43
ATOM     43  N   LIG    1       22.766 -26.405  13.278  0.00  0.00    -0.328 NA
ATOM     44  H   LIG    1       23.564 -25.793  13.114  0.00  0.00    +0.118 HD
ATOM     45  H   LIG    1       22.378 -26.176  14.190  0.00  0.00    +0.118 HD
ENDBRANCH  42  43
ENDBRANCH  29  42
ENDBRANCH  28  33
ENDBRANCH   1  28
TORSDOF 16
ENDMDL
MODEL 3
REMARK VINA RESULT:      -6.3      7.973     10.958
REMARK  Name = *****
REMARK                            x       y       z     vdW  Elec       q    Type
REMARK                         _______ _______ _______ _____ _____    ______ ____
ROOT
ATOM      1  C   LIG    1       25.182 -30.558   8.338  0.00  0.00    +0.169 C 
ATOM      2  C   LIG    1       25.757 -29.146   8.703  0.00  0.00    +0.084 C 
ATOM      3  C   LIG    1       25.847 -28.126   7.560  0.00  0.00    +0.042 C 
ATOM      4  C   LIG    1       24.514 -28.087   6.842  0.00  0.00    +0.084 C 
ATOM      5  C   LIG    1       24.321 -29.424   6.128  0.00  0.00    +0.163 C 
ATOM      6  C   LIG    1       24.235 -30.624   7.092  0.00  0.00    +0.182 C 
ENDROOT
BRANCH   2   7
ATOM      7  N   LIG    1       27.092 -29.244   9.336  0.00  0.00    -0.325 NA
ATOM      8  H   LIG    1       27.488 -30.176   9.158  0.00  0.00    +0.118 HD
ATOM      9  H   LIG    1       27.021 -29.154  10.346  0.00  0.00    +0.118 HD
ENDBRANCH   2   7
BRANCH   4  10
ATOM     10  N   LIG    1       24.446 -26.995   5.853  0.00  0.00    -0.325 NA
ATOM     11  H   LIG    1       24.674 -27.362   4.927  0.00  0.00    +0.118 HD
ATOM     12  H   LIG    1       23.493 -26.640   5.785  0.00  0.00    +0.118 HD
ENDBRANCH   4  10
BRANCH   5  13
ATOM     13  O   LIG    1       23.107 -29.317   5.365  0.00  0.00    -0.388 OA
ATOM     14  H   LIG    1       23.394 -29.045   4.467  0.00  0.00    +0.210 HD
ENDBRANCH   5  13
BRANCH   6  15
ATOM     15  O   LIG    1       24.574 -31.869   6.401  0.00  0.00    -0.340 OA
BRANCH  15  16
ATOM     16  C   LIG    1       25.968 -32.044   6.120  0.00  0.00    +0.282 C 
ATOM     17  C   LIG    1       26.389 -33.498   6.425  0.00  0.00    +0.201 C 
ATOM     18  C   LIG    1       27.302 -33.825   5.255  0.00  0.00    +0.179 C 
ATOM     19  C   LIG    1       26.740 -32.977   4.123  0.00  0.00    +0.178 C 
ATOM     20  O   LIG    1       26.205 -31.791   4.733  0.00  0.00    -0.341 OA
BRANCH  18  21
ATOM     21  O   LIG    1       28.649 -33.416   5.549  0.00  0.00    -0.386 OA
ATOM     22  H   LIG    1       29.228 -33.860   4.897  0.00  0.00    +0.210 HD
ENDBRANCH  18  21
BRANCH  17  23
ATOM     23  O   LIG    1       27.104 -33.629   7.662  0.00  0.00    -0.384 OA
ATOM     24  H   LIG    1       28.050 -33.557   7.444  0.00  0.00    +0.210 HD
ENDBRANCH  17  23
BRANCH  19  25
ATOM     25  C   LIG    1       25.605 -33.655   3.346  0.00  0.00    +0.190 C 
BRANCH  25  26
ATOM     26  O   LIG    1       24.327 -33.143   3.704  0.00  0.00    -0.392 OA
ATOM     27  H   LIG    1       23.842 -32.920   2.888  0.00  0.00    +0.209 HD
ENDBRANCH  25  26
ENDBRANCH  19  25
ENDBRANCH  15  16
ENDBRANCH   6  15
BRANCH   1  28
ATOM     28  O   LIG    1       24.495 -31.000   9.558  0.00  0.00    -0.342 OA
BRANCH  28  33
ATOM     29  C   LIG    1       21.870 -31.619  10.578  0.00  0.00    +0.166 C 
ATOM     30  C   LIG    1       22.158 -31.684  12.088  0.00  0.00    +0.175 C 
ATOM     31  C   LIG    1       23.601 -31.248  12.381  0.00  0.00    +0.167 C 
ATOM     32  C   LIG    1       23.903 -29.899  11.702  0.00  0.00    +0.139 C 
ATOM     33  C   LIG    1       23.628 -30.043  10.174  0.00  0.00    +0.270 C 
ATOM     34  O   LIG    1       22.252 -30.360   9.997  0.00  0.00    -0.343 OA
BRANCH  32  35
ATOM     35  N   LIG    1       25.246 -29.395  12.061  0.00  0.00    -0.321 NA
ATOM     36  H   LIG    1       25.372 -29.532  13.068  0.00  0.00    +0.119 HD
ATOM     37  H   LIG    1       25.946 -29.996  11.623  0.00  0.00    +0.119 HD
ENDBRANCH  32  35
BRANCH  31  38
ATOM     38  O   LIG    1       23.779 -31.154  13.812  0.00  0.00    -0.387 OA
ATOM     39  H   LIG    1       23.441 -31.973  14.209  0.00  0.00    +0.210 HD
ENDBRANCH  31  38
BRANCH  30  40
ATOM     40  O   LIG    1       21.952 -33.010  12.590  0.00  0.00    -0.387 OA
ATOM     41  H   LIG    1       22.505 -33.094  13.394  0.00  0.00    +0.210 HD
ENDBRANCH  30  40
BRANCH  29  42
ATOM     42  C   LIG    1       20.379 -31.841  10.230  0.00  0.00    +0.112 C 
BRANCH  42  43
ATOM     43  N   LIG    1       19.531 -30.642  10.261  0.00  0.00    -0.328 NA
ATOM     44  H   LIG    1       19.442 -30.299  11.217  0.00  0.00    +0.118 HD
ATOM     45  H   LIG    1       18.599 -30.864   9.920  0.00  0.00    +0.118 HD
ENDBRANCH  42  43
ENDBRANCH  29  42
ENDBRANCH  28  33
ENDBRANCH   1  28
TORSDOF 16
ENDMDL
MODEL 4
REMARK VINA RESULT:      -6.2      7.620     10.232
REMARK  Name = *****
REMARK                            x       y       z     vdW  Elec       q    Type
REMARK                         _______ _______ _______ _____ _____    ______ ____
ROOT
ATOM      1  C   LIG    1       25.132 -29.990   8.190  0.00  0.00    +0.169 C 
ATOM      2  C   LIG    1       25.749 -28.565   8.408  0.00  0.00    +0.084 C 
ATOM      3  C   LIG    1       25.896 -27.684   7.160  0.00  0.00    +0.042 C 
ATOM      4  C   LIG    1       24.579 -27.683   6.411  0.00  0.00    +0.084 C 
ATOM      5  C   LIG    1       24.354 -29.085   5.847  0.00  0.00    +0.163 C 
ATOM      6  C   LIG    1       24.208 -30.165   6.937  0.00  0.00    +0.182 C 
ENDROOT
BRANCH   2   7
ATOM      7  N   LIG    1       27.067 -28.635   9.078  0.00  0.00    -0.325 NA
ATOM      8  H   LIG    1       27.097 -27.955   9.849  0.00  0.00    +0.118 HD
ATOM      9  H   LIG    1       27.813 -28.372   8.438  0.00  0.00    +0.118 HD
ENDBRANCH   2   7
BRANCH   4  10
ATOM     10  N   LIG    1       24.569 -26.708   5.306  0.00  0.00    -0.325 NA
ATOM     11  H   LIG    1       23.602 -26.484   5.061  0.00  0.00    +0.118 HD
ATOM     12  H   LIG    1       24.990 -25.830   5.606  0.00  0.00    +0.118 HD
ENDBRANCH   4  10
BRANCH   5  13
ATOM     13  O   LIG    1       23.160 -29.025   5.049  0.00  0.00    -0.388 OA
ATOM     14  H   LIG    1       23.106 -29.897   4.603  0.00  0.00    +0.210 HD
ENDBRANCH   5  13
BRANCH   6  15
ATOM     15  O   LIG    1       24.517 -31.490   6.397  0.00  0.00    -0.340 OA
BRANCH  15  16
ATOM     16  C   LIG    1       25.911 -31.751   6.197  0.00  0.00    +0.282 C 
ATOM     17  C   LIG    1       26.276 -33.137   6.771  0.00  0.00    +0.201 C 
ATOM     18  C   LIG    1       27.208 -33.695   5.708  0.00  0.00    +0.179 C 
ATOM     19  C   LIG    1       26.705 -33.049   4.425  0.00  0.00    +0.178 C 
ATOM     20  O   LIG    1       26.193 -31.759   4.796  0.00  0.00    -0.341 OA
BRANCH  18  21
ATOM     21  O   LIG    1       28.559 -33.276   5.966  0.00  0.00    -0.386 OA
ATOM     22  H   LIG    1       28.661 -33.229   6.938  0.00  0.00    +0.210 HD
ENDBRANCH  18  21
BRANCH  17  23
ATOM     23  O   LIG    1       26.954 -33.063   8.034  0.00  0.00    -0.384 OA
ATOM     24  H   LIG    1       27.895 -33.229   7.852  0.00  0.00    +0.210 HD
ENDBRANCH  17  23
BRANCH  19  25
ATOM     25  C   LIG    1       25.568 -33.825   3.747  0.00  0.00    +0.190 C 
BRANCH  25  26
ATOM     26  O   LIG    1       24.347 -33.095   3.741  0.00  0.00    -0.392 OA
ATOM     27  H   LIG    1       23.889 -33.263   2.896  0.00  0.00    +0.209 HD
ENDBRANCH  25  26
ENDBRANCH  19  25
ENDBRANCH  15  16
ENDBRANCH   6  15
BRANCH   1  28
ATOM     28  O   LIG    1       24.406 -30.269   9.435  0.00  0.00    -0.342 OA
BRANCH  28  33
ATOM     29  C   LIG    1       25.840 -29.938  11.915  0.00  0.00    +0.166 C 
ATOM     30  C   LIG    1       24.734 -30.275  12.931  0.00  0.00    +0.175 C 
ATOM     31  C   LIG    1       23.474 -30.775  12.210  0.00  0.00    +0.167 C 
ATOM     32  C   LIG    1       23.832 -31.897  11.218  0.00  0.00    +0.139 C 
ATOM     33  C   LIG    1       24.904 -31.353  10.224  0.00  0.00    +0.270 C 
ATOM     34  O   LIG    1       26.063 -30.999  10.970  0.00  0.00    -0.343 OA
BRANCH  32  35
ATOM     35  N   LIG    1       22.624 -32.480  10.594  0.00  0.00    -0.321 NA
ATOM     36  H   LIG    1       21.810 -31.977  10.959  0.00  0.00    +0.119 HD
ATOM     37  H   LIG    1       22.640 -32.267   9.595  0.00  0.00    +0.119 HD
ENDBRANCH  32  35
BRANCH  31  38
ATOM     38  O   LIG    1       22.527 -31.245  13.197  0.00  0.00    -0.387 OA
ATOM     39  H   LIG    1       21.657 -30.874  12.975  0.00  0.00    +0.210 HD
ENDBRANCH  31  38
BRANCH  30  40
ATOM     40  O   LIG    1       24.404 -29.129  13.725  0.00  0.00    -0.387 OA
ATOM     41  H   LIG    1       25.155 -28.987  14.337  0.00  0.00    +0.210 HD
ENDBRANCH  30  40
BRANCH  29  42
ATOM     42  C   LIG    1       27.204 -29.630  12.576  0.00  0.00    +0.112 C 
BRANCH  42  43
ATOM     43  N   LIG    1       27.854 -28.384  12.147  0.00  0.00    -0.328 NA
ATOM     44  H   LIG    1       28.467 -28.037  12.883  0.00  0.00    +0.118 HD
ATOM     45  H   LIG    1       27.153 -27.670  11.962  0.00  0.00    +0.118 HD
ENDBRANCH  42  43
ENDBRANCH  29  42
ENDBRANCH  28  33
ENDBRANCH   1  28
TORSDOF 16
ENDMDL
MODEL 5
REMARK VINA RESULT:      -6.2      8.244     10.601
REMARK  Name = *****
REMARK                            x       y       z     vdW  Elec       q    Type
REMARK                         _______ _______ _______ _____ _____    ______ ____
ROOT
ATOM      1  C   LIG    1       22.727 -29.994  11.673  0.00  0.00    +0.169 C 
ATOM      2  C   LIG    1       21.228 -30.455  11.693  0.00  0.00    +0.084 C 
ATOM      3  C   LIG    1       20.362 -29.919  12.841  0.00  0.00    +0.042 C 
ATOM      4  C   LIG    1       20.552 -28.419  12.930  0.00  0.00    +0.084 C 
ATOM      5  C   LIG    1       21.983 -28.149  13.392  0.00  0.00    +0.163 C 
ATOM      6  C   LIG    1       23.049 -28.641  12.394  0.00  0.00    +0.182 C 
ENDROOT
BRANCH   2   7
ATOM      7  N   LIG    1       21.109 -31.930  11.679  0.00  0.00    -0.325 NA
ATOM      8  H   LIG    1       20.493 -32.233  12.445  0.00  0.00    +0.118 HD
ATOM      9  H   LIG    1       22.011 -32.368  11.850  0.00  0.00    +0.118 HD
ENDBRANCH   2   7
BRANCH   4  10
ATOM     10  N   LIG    1       19.611 -27.794  13.877  0.00  0.00    -0.325 NA
ATOM     11  H   LIG    1       20.077 -27.023  14.359  0.00  0.00    +0.118 HD
ATOM     12  H   LIG    1       18.829 -27.376  13.374  0.00  0.00    +0.118 HD
ENDBRANCH   4  10
BRANCH   5  13
ATOM     13  O   LIG    1       22.099 -26.727  13.577  0.00  0.00    -0.388 OA
ATOM     14  H   LIG    1       22.449 -26.616  14.486  0.00  0.00    +0.210 HD
ENDBRANCH   5  13
BRANCH   6  15
ATOM     15  O   LIG    1       24.333 -28.846  13.067  0.00  0.00    -0.340 OA
BRANCH  15  16
ATOM     16  C   LIG    1       25.333 -27.862  12.773  0.00  0.00    +0.282 C 
ATOM     17  C   LIG    1       25.603 -26.996  14.023  0.00  0.00    +0.201 C 
ATOM     18  C   LIG    1       27.115 -26.854  14.000  0.00  0.00    +0.179 C 
ATOM     19  C   LIG    1       27.580 -28.145  13.341  0.00  0.00    +0.178 C 
ATOM     20  O   LIG    1       26.550 -28.518  12.412  0.00  0.00    -0.341 OA
BRANCH  18  21
ATOM     21  O   LIG    1       27.495 -25.729  13.189  0.00  0.00    -0.386 OA
ATOM     22  H   LIG    1       28.230 -25.280  13.653  0.00  0.00    +0.210 HD
ENDBRANCH  18  21
BRANCH  17  23
ATOM     23  O   LIG    1       24.983 -25.703  13.958  0.00  0.00    -0.384 OA
ATOM     24  H   LIG    1       25.122 -25.287  14.827  0.00  0.00    +0.210 HD
ENDBRANCH  17  23
BRANCH  19  25
ATOM     25  C   LIG    1       27.766 -29.309  14.323  0.00  0.00    +0.190 C 
BRANCH  25  26
ATOM     26  O   LIG    1       27.688 -30.574  13.680  0.00  0.00    -0.392 OA
ATOM     27  H   LIG    1       26.786 -30.927  13.798  0.00  0.00    +0.209 HD
ENDBRANCH  25  26
ENDBRANCH  19  25
ENDBRANCH  15  16
ENDBRANCH   6  15
BRANCH   1  28
ATOM     28  O   LIG    1       23.073 -29.938  10.248  0.00  0.00    -0.342 OA
BRANCH  28  33
ATOM     29  C   LIG    1       24.102 -30.099   7.559  0.00  0.00    +0.166 C 
ATOM     30  C   LIG    1       25.596 -29.821   7.808  0.00  0.00    +0.175 C 
ATOM     31  C   LIG    1       25.888 -29.753   9.314  0.00  0.00    +0.167 C 
ATOM     32  C   LIG    1       25.311 -30.988  10.030  0.00  0.00    +0.139 C 
ATOM     33  C   LIG    1       23.783 -31.065   9.727  0.00  0.00    +0.270 C 
ATOM     34  O   LIG    1       23.615 -31.216   8.322  0.00  0.00    -0.343 OA
BRANCH  32  35
ATOM     35  N   LIG    1       25.678 -31.009  11.462  0.00  0.00    -0.321 NA
ATOM     36  H   LIG    1       26.060 -31.935  11.675  0.00  0.00    +0.119 HD
ATOM     37  H   LIG    1       26.454 -30.362  11.608  0.00  0.00    +0.119 HD
ENDBRANCH  32  35
BRANCH  31  38
ATOM     38  O   LIG    1       27.318 -29.666   9.509  0.00  0.00    -0.387 OA
ATOM     39  H   LIG    1       27.743 -29.756   8.640  0.00  0.00    +0.210 HD
ENDBRANCH  31  38
BRANCH  30  40
ATOM     40  O   LIG    1       25.996 -28.592   7.190  0.00  0.00    -0.387 OA
ATOM     41  H   LIG    1       25.367 -28.429   6.459  0.00  0.00    +0.210 HD
ENDBRANCH  30  40
BRANCH  29  42
ATOM     42  C   LIG    1       23.774 -30.390   6.075  0.00  0.00    +0.112 C 
BRANCH  42  43
ATOM     43  N   LIG    1       23.395 -29.223   5.266  0.00  0.00    -0.328 NA
ATOM     44  H   LIG    1       22.492 -28.864   5.571  0.00  0.00    +0.118 HD
ATOM     45  H   LIG    1       23.313 -29.489   4.288  0.00  0.00    +0.118 HD
ENDBRANCH  42  43
ENDBRANCH  29  42
ENDBRANCH  28  33
ENDBRANCH   1  28
TORSDOF 16
ENDMDL
MODEL 6
REMARK VINA RESULT:      -6.2      7.731     10.783
REMARK  Name = *****
REMARK                            x       y       z     vdW  Elec       q    Type
REMARK                         _______ _______ _______ _____ _____    ______ ____
ROOT
ATOM      1  C   LIG    1       23.376 -30.418  10.841  0.00  0.00    +0.169 C 
ATOM      2  C   LIG    1       22.065 -31.181  10.446  0.00  0.00    +0.084 C 
ATOM      3  C   LIG    1       20.977 -31.277  11.523  0.00  0.00    +0.042 C 
ATOM      4  C   LIG    1       20.742 -29.895  12.097  0.00  0.00    +0.084 C 
ATOM      5  C   LIG    1       21.992 -29.485  12.873  0.00  0.00    +0.163 C 
ATOM      6  C   LIG    1       23.245 -29.355  11.985  0.00  0.00    +0.182 C 
ENDROOT
BRANCH   2   7
ATOM      7  N   LIG    1       22.354 -32.550   9.962  0.00  0.00    -0.325 NA
ATOM      8  H   LIG    1       21.478 -33.003   9.669  0.00  0.00    +0.118 HD
ATOM      9  H   LIG    1       22.735 -33.126  10.709  0.00  0.00    +0.118 HD
ENDBRANCH   2   7
BRANCH   4  10
ATOM     10  N   LIG    1       19.577 -29.859  13.000  0.00  0.00    -0.325 NA
ATOM     11  H   LIG    1       18.813 -30.400  12.590  0.00  0.00    +0.118 HD
ATOM     12  H   LIG    1       19.800 -30.317  13.882  0.00  0.00    +0.118 HD
ENDBRANCH   4  10
BRANCH   5  13
ATOM     13  O   LIG    1       21.698 -28.224  13.498  0.00  0.00    -0.388 OA
ATOM     14  H   LIG    1       21.887 -28.362  14.451  0.00  0.00    +0.210 HD
ENDBRANCH   5  13
BRANCH   6  15
ATOM     15  O   LIG    1       24.463 -29.483  12.787  0.00  0.00    -0.340 OA
BRANCH  15  16
ATOM     16  C   LIG    1       25.241 -28.286  12.899  0.00  0.00    +0.282 C 
ATOM     17  C   LIG    1       26.056 -28.308  14.211  0.00  0.00    +0.201 C 
ATOM     18  C   LIG    1       27.400 -27.755  13.769  0.00  0.00    +0.179 C 
ATOM     19  C   LIG    1       27.500 -28.194  12.314  0.00  0.00    +0.178 C 
ATOM     20  O   LIG    1       26.157 -28.213  11.805  0.00  0.00    -0.341 OA
BRANCH  18  21
ATOM     21  O   LIG    1       27.394 -26.319  13.844  0.00  0.00    -0.386 OA
ATOM     22  H   LIG    1       26.751 -26.002  13.177  0.00  0.00    +0.210 HD
ENDBRANCH  18  21
BRANCH  17  23
ATOM     23  O   LIG    1       25.494 -27.478  15.238  0.00  0.00    -0.384 OA
ATOM     24  H   LIG    1       24.531 -27.480  15.098  0.00  0.00    +0.210 HD
ENDBRANCH  17  23
BRANCH  19  25
ATOM     25  C   LIG    1       28.088 -29.599  12.132  0.00  0.00    +0.190 C 
BRANCH  25  26
ATOM     26  O   LIG    1       28.147 -29.985  10.764  0.00  0.00    -0.392 OA
ATOM     27  H   LIG    1       27.730 -29.286  10.226  0.00  0.00    +0.209 HD
ENDBRANCH  25  26
ENDBRANCH  19  25
ENDBRANCH  15  16
ENDBRANCH   6  15
BRANCH   1  28
ATOM     28  O   LIG    1       23.833 -29.803   9.588  0.00  0.00    -0.342 OA
BRANCH  28  33
ATOM     29  C   LIG    1       23.746 -31.086   7.007  0.00  0.00    +0.166 C 
ATOM     30  C   LIG    1       24.395 -30.002   6.128  0.00  0.00    +0.175 C 
ATOM     31  C   LIG    1       24.926 -28.851   6.995  0.00  0.00    +0.167 C 
ATOM     32  C   LIG    1       25.804 -29.398   8.136  0.00  0.00    +0.139 C 
ATOM     33  C   LIG    1       24.961 -30.418   8.960  0.00  0.00    +0.270 C 
ATOM     34  O   LIG    1       24.591 -31.489   8.099  0.00  0.00    -0.343 OA
BRANCH  32  35
ATOM     35  N   LIG    1       26.425 -28.307   8.917  0.00  0.00    -0.321 NA
ATOM     36  H   LIG    1       25.887 -28.195   9.781  0.00  0.00    +0.119 HD
ATOM     37  H   LIG    1       27.352 -28.612   9.221  0.00  0.00    +0.119 HD
ENDBRANCH  32  35
BRANCH  31  38
ATOM     38  O   LIG    1       25.678 -27.944   6.157  0.00  0.00    -0.387 OA
ATOM     39  H   LIG    1       25.045 -27.426   5.634  0.00  0.00    +0.210 HD
ENDBRANCH  31  38
BRANCH  30  40
ATOM     40  O   LIG    1       23.456 -29.486   5.177  0.00  0.00    -0.387 OA
ATOM     41  H   LIG    1       23.740 -28.571   4.971  0.00  0.00    +0.210 HD
ENDBRANCH  30  40
BRANCH  29  42
ATOM     42  C   LIG    1       23.379 -32.368   6.224  0.00  0.00    +0.112 C 
BRANCH  42  43
ATOM     43  N   LIG    1       24.115 -32.583   4.971  0.00  0.00    -0.328 NA
ATOM     44  H   LIG    1       23.707 -33.361   4.454  0.00  0.00    +0.118 HD
ATOM     45  H   LIG    1       25.085 -32.815   5.172  0.00  0.00    +0.118 HD
ENDBRANCH  42  43
ENDBRANCH  29  42
ENDBRANCH  28  33
ENDBRANCH   1  28
TORSDOF 16
ENDMDL
MODEL 7
REMARK VINA RESULT:      -6.1      4.177      6.948
REMARK  Name = *****
REMARK                            x       y       z     vdW  Elec       q    Type
REMARK                         _______ _______ _______ _____ _____    ______ ____
ROOT
ATOM      1  C   LIG    1       26.588 -26.949   6.465  0.00  0.00    +0.169 C 
ATOM      2  C   LIG    1       26.241 -27.387   5.000  0.00  0.00    +0.084 C 
ATOM      3  C   LIG    1       25.517 -28.731   4.840  0.00  0.00    +0.042 C 
ATOM      4  C   LIG    1       24.340 -28.762   5.793  0.00  0.00    +0.084 C 
ATOM      5  C   LIG    1       24.886 -28.806   7.219  0.00  0.00    +0.163 C 
ATOM      6  C   LIG    1       25.693 -27.550   7.602  0.00  0.00    +0.182 C 
ENDROOT
BRANCH   2   7
ATOM      7  N   LIG    1       27.443 -27.408   4.136  0.00  0.00    -0.325 NA
ATOM      8  H   LIG    1       27.373 -28.187   3.469  0.00  0.00    +0.118 HD
ATOM      9  H   LIG    1       28.281 -27.579   4.686  0.00  0.00    +0.118 HD
ENDBRANCH   2   7
BRANCH   4  10
ATOM     10  N   LIG    1       23.474 -29.934   5.569  0.00  0.00    -0.325 NA
ATOM     11  H   LIG    1       22.540 -29.619   5.302  0.00  0.00    +0.118 HD
ATOM     12  H   LIG    1       23.818 -30.482   4.781  0.00  0.00    +0.118 HD
ENDBRANCH   4  10
BRANCH   5  13
ATOM     13  O   LIG    1       23.753 -28.950   8.093  0.00  0.00    -0.388 OA
ATOM     14  H   LIG    1       23.130 -28.242   7.821  0.00  0.00    +0.210 HD
ENDBRANCH   5  13
BRANCH   6  15
ATOM     15  O   LIG    1       26.602 -27.838   8.713  0.00  0.00    -0.340 OA
BRANCH  15  16
ATOM     16  C   LIG    1       26.183 -28.901   9.577  0.00  0.00    +0.282 C 
ATOM     17  C   LIG    1       27.417 -29.616  10.169  0.00  0.00    +0.201 C 
ATOM     18  C   LIG    1       27.002 -29.838  11.614  0.00  0.00    +0.179 C 
ATOM     19  C   LIG    1       26.073 -28.665  11.898  0.00  0.00    +0.178 C 
ATOM     20  O   LIG    1       25.419 -28.359  10.656  0.00  0.00    -0.341 OA
BRANCH  18  21
ATOM     21  O   LIG    1       26.277 -31.073  11.737  0.00  0.00    -0.386 OA
ATOM     22  H   LIG    1       26.553 -31.482  12.582  0.00  0.00    +0.210 HD
ENDBRANCH  18  21
BRANCH  17  23
ATOM     23  O   LIG    1       27.698 -30.873   9.537  0.00  0.00    -0.384 OA
ATOM     24  H   LIG    1       28.643 -30.860   9.306  0.00  0.00    +0.210 HD
ENDBRANCH  17  23
BRANCH  19  25
ATOM     25  C   LIG    1       26.801 -27.399  12.366  0.00  0.00    +0.190 C 
BRANCH  25  26
ATOM     26  O   LIG    1       27.848 -27.688  13.284  0.00  0.00    -0.392 OA
ATOM     27  H   LIG    1       28.018 -28.648  13.269  0.00  0.00    +0.209 HD
ENDBRANCH  25  26
ENDBRANCH  19  25
ENDBRANCH  15  16
ENDBRANCH   6  15
BRANCH   1  28
ATOM     28  O   LIG    1       26.507 -25.483   6.437  0.00  0.00    -0.342 OA
BRANCH  28  33
ATOM     29  C   LIG    1       26.484 -22.735   7.309  0.00  0.00    +0.166 C 
ATOM     30  C   LIG    1       25.496 -22.123   6.299  0.00  0.00    +0.175 C 
ATOM     31  C   LIG    1       24.866 -23.220   5.430  0.00  0.00    +0.167 C 
ATOM     32  C   LIG    1       24.303 -24.349   6.313  0.00  0.00    +0.139 C 
ATOM     33  C   LIG    1       25.456 -24.896   7.209  0.00  0.00    +0.270 C 
ATOM     34  O   LIG    1       25.915 -23.835   8.039  0.00  0.00    -0.343 OA
BRANCH  32  35
ATOM     35  N   LIG    1       23.586 -25.364   5.510  0.00  0.00    -0.321 NA
ATOM     36  H   LIG    1       24.040 -26.267   5.669  0.00  0.00    +0.119 HD
ATOM     37  H   LIG    1       22.643 -25.471   5.890  0.00  0.00    +0.119 HD
ENDBRANCH  32  35
BRANCH  31  38
ATOM     38  O   LIG    1       23.823 -22.632   4.619  0.00  0.00    -0.387 OA
ATOM     39  H   LIG    1       23.061 -23.235   4.630  0.00  0.00    +0.210 HD
ENDBRANCH  31  38
BRANCH  30  40
ATOM     40  O   LIG    1       26.153 -21.169   5.457  0.00  0.00    -0.387 OA
ATOM     41  H   LIG    1       25.451 -20.711   4.952  0.00  0.00    +0.210 HD
ENDBRANCH  30  40
BRANCH  29  42
ATOM     42  C   LIG    1       26.997 -21.717   8.355  0.00  0.00    +0.112 C 
BRANCH  42  43
ATOM     43  N   LIG    1       25.961 -21.039   9.146  0.00  0.00    -0.328 NA
ATOM     44  H   LIG    1       26.184 -20.049   9.240  0.00  0.00    +0.118 HD
ATOM     45  H   LIG    1       25.917 -21.440  10.080  0.00  0.00    +0.118 HD
ENDBRANCH  42  43
ENDBRANCH  29  42
ENDBRANCH  28  33
ENDBRANCH   1  28
TORSDOF 16
ENDMDL
MODEL 8
REMARK VINA RESULT:      -6.0      8.190     10.030
REMARK  Name = *****
REMARK                            x       y       z     vdW  Elec       q    Type
REMARK                         _______ _______ _______ _____ _____    ______ ____
ROOT
ATOM      1  C   LIG    1       23.647 -29.761  11.203  0.00  0.00    +0.169 C 
ATOM      2  C   LIG    1       22.865 -29.587  12.551  0.00  0.00    +0.084 C 
ATOM      3  C   LIG    1       21.501 -30.284  12.645  0.00  0.00    +0.042 C 
ATOM      4  C   LIG    1       21.661 -31.723  12.201  0.00  0.00    +0.084 C 
ATOM      5  C   LIG    1       21.972 -31.725  10.705  0.00  0.00    +0.163 C 
ATOM      6  C   LIG    1       23.306 -31.035  10.358  0.00  0.00    +0.182 C 
ENDROOT
BRANCH   2   7
ATOM      7  N   LIG    1       22.676 -28.160  12.894  0.00  0.00    -0.325 NA
ATOM      8  H   LIG    1       23.498 -27.819  13.409  0.00  0.00    +0.118 HD
ATOM      9  H   LIG    1       21.881 -28.040  13.518  0.00  0.00    +0.118 HD
ENDBRANCH   2   7
BRANCH   4  10
ATOM     10  N   LIG    1       20.444 -32.519  12.444  0.00  0.00    -0.325 NA
ATOM     11  H   LIG    1       20.256 -32.553  13.448  0.00  0.00    +0.118 HD
ATOM     12  H   LIG    1       19.634 -32.063  12.025  0.00  0.00    +0.118 HD
ENDBRANCH   4  10
BRANCH   5  13
ATOM     13  O   LIG    1       22.005 -33.101  10.289  0.00  0.00    -0.388 OA
ATOM     14  H   LIG    1       21.174 -33.492  10.633  0.00  0.00    +0.210 HD
ENDBRANCH   5  13
BRANCH   6  15
ATOM     15  O   LIG    1       23.316 -30.600   8.961  0.00  0.00    -0.340 OA
BRANCH  15  16
ATOM     16  C   LIG    1       24.545 -30.837   8.263  0.00  0.00    +0.282 C 
ATOM     17  C   LIG    1       24.268 -31.605   6.953  0.00  0.00    +0.201 C 
ATOM     18  C   LIG    1       25.191 -30.910   5.966  0.00  0.00    +0.179 C 
ATOM     19  C   LIG    1       25.270 -29.487   6.501  0.00  0.00    +0.178 C 
ATOM     20  O   LIG    1       25.146 -29.584   7.929  0.00  0.00    -0.341 OA
BRANCH  18  21
ATOM     21  O   LIG    1       26.495 -31.515   5.998  0.00  0.00    -0.386 OA
ATOM     22  H   LIG    1       26.724 -31.646   6.941  0.00  0.00    +0.210 HD
ENDBRANCH  18  21
BRANCH  17  23
ATOM     23  O   LIG    1       24.594 -33.000   7.038  0.00  0.00    -0.384 OA
ATOM     24  H   LIG    1       23.874 -33.422   7.536  0.00  0.00    +0.210 HD
ENDBRANCH  17  23
BRANCH  19  25
ATOM     25  C   LIG    1       24.145 -28.574   5.997  0.00  0.00    +0.190 C 
BRANCH  25  26
ATOM     26  O   LIG    1       23.186 -29.279   5.219  0.00  0.00    -0.392 OA
ATOM     27  H   LIG    1       22.373 -29.385   5.748  0.00  0.00    +0.209 HD
ENDBRANCH  25  26
ENDBRANCH  19  25
ENDBRANCH  15  16
ENDBRANCH   6  15
BRANCH   1  28
ATOM     28  O   LIG    1       25.061 -29.741  11.596  0.00  0.00    -0.342 OA
BRANCH  28  33
ATOM     29  C   LIG    1       26.414 -28.391  13.756  0.00  0.00    +0.166 C 
ATOM     30  C   LIG    1       27.880 -28.722  13.426  0.00  0.00    +0.175 C 
ATOM     31  C   LIG    1       27.979 -29.441  12.073  0.00  0.00    +0.167 C 
ATOM     32  C   LIG    1       27.211 -28.659  10.991  0.00  0.00    +0.139 C 
ATOM     33  C   LIG    1       25.735 -28.486  11.461  0.00  0.00    +0.270 C 
ATOM     34  O   LIG    1       25.738 -27.735  12.670  0.00  0.00    -0.343 OA
BRANCH  32  35
ATOM     35  N   LIG    1       27.386 -29.264   9.653  0.00  0.00    -0.321 NA
ATOM     36  H   LIG    1       26.569 -29.853   9.466  0.00  0.00    +0.119 HD
ATOM     37  H   LIG    1       27.342 -28.522   8.952  0.00  0.00    +0.119 HD
ENDBRANCH  32  35
BRANCH  31  38
ATOM     38  O   LIG    1       29.374 -29.577  11.717  0.00  0.00    -0.387 OA
ATOM     39  H   LIG    1       29.422 -30.071  10.882  0.00  0.00    +0.210 HD
ENDBRANCH  31  38
BRANCH  30  40
ATOM     40  O   LIG    1       28.460 -29.545  14.444  0.00  0.00    -0.387 OA
ATOM     41  H   LIG    1       27.965 -30.389  14.438  0.00  0.00    +0.210 HD
ENDBRANCH  30  40
BRANCH  29  42
ATOM     42  C   LIG    1       26.257 -27.484  14.999  0.00  0.00    +0.112 C 
BRANCH  42  43
ATOM     43  N   LIG    1       27.436 -26.682  15.356  0.00  0.00    -0.328 NA
ATOM     44  H   LIG    1       28.034 -27.204  15.994  0.00  0.00    +0.118 HD
ATOM     45  H   LIG    1       27.148 -25.827  15.825  0.00  0.00    +0.118 HD
ENDBRANCH  42  43
ENDBRANCH  29  42
ENDBRANCH  28  33
ENDBRANCH   1  28
TORSDOF 16
ENDMDL
MODEL 9
REMARK VINA RESULT:      -5.9      8.504     11.362
REMARK  Name = *****
REMARK                            x       y       z     vdW  Elec       q    Type
REMARK                         _______ _______ _______ _____ _____    ______ ____
ROOT
ATOM      1  C   LIG    1       25.352 -29.420  10.849  0.00  0.00    +0.169 C 
ATOM      2  C   LIG    1       26.863 -29.305  10.446  0.00  0.00    +0.084 C 
ATOM      3  C   LIG    1       27.777 -28.553  11.423  0.00  0.00    +0.042 C 
ATOM      4  C   LIG    1       27.545 -29.096  12.818  0.00  0.00    +0.084 C 
ATOM      5  C   LIG    1       26.135 -28.699  13.253  0.00  0.00    +0.163 C 
ATOM      6  C   LIG    1       25.029 -29.322  12.379  0.00  0.00    +0.182 C 
ENDROOT
BRANCH   2   7
ATOM      7  N   LIG    1       27.028 -28.701   9.105  0.00  0.00    -0.325 NA
ATOM      8  H   LIG    1       26.110 -28.414   8.742  0.00  0.00    +0.118 HD
ATOM      9  H   LIG    1       27.395 -29.382   8.444  0.00  0.00    +0.118 HD
ENDBRANCH   2   7
BRANCH   4  10
ATOM     10  N   LIG    1       28.519 -28.567  13.790  0.00  0.00    -0.325 NA
ATOM     11  H   LIG    1       29.085 -27.843  13.343  0.00  0.00    +0.118 HD
ATOM     12  H   LIG    1       28.035 -28.106  14.559  0.00  0.00    +0.118 HD
ENDBRANCH   4  10
BRANCH   5  13
ATOM     13  O   LIG    1       25.985 -29.127  14.617  0.00  0.00    -0.388 OA
ATOM     14  H   LIG    1       25.350 -29.873  14.582  0.00  0.00    +0.210 HD
ENDBRANCH   5  13
BRANCH   6  15
ATOM     15  O   LIG    1       23.793 -28.543  12.474  0.00  0.00    -0.340 OA
BRANCH  15  16
ATOM     16  C   LIG    1       22.688 -29.233  13.069  0.00  0.00    +0.282 C 
ATOM     17  C   LIG    1       22.573 -28.856  14.563  0.00  0.00    +0.201 C 
ATOM     18  C   LIG    1       21.073 -28.700  14.744  0.00  0.00    +0.179 C 
ATOM     19  C   LIG    1       20.599 -28.235  13.374  0.00  0.00    +0.178 C 
ATOM     20  O   LIG    1       21.480 -28.842  12.415  0.00  0.00    -0.341 OA
BRANCH  18  21
ATOM     21  O   LIG    1       20.477 -29.970  15.060  0.00  0.00    -0.386 OA
ATOM     22  H   LIG    1       20.102 -29.891  15.961  0.00  0.00    +0.210 HD
ENDBRANCH  18  21
BRANCH  17  23
ATOM     23  O   LIG    1       23.074 -29.874  15.441  0.00  0.00    -0.384 OA
ATOM     24  H   LIG    1       23.747 -29.448  16.000  0.00  0.00    +0.210 HD
ENDBRANCH  17  23
BRANCH  19  25
ATOM     25  C   LIG    1       20.671 -26.716  13.176  0.00  0.00    +0.190 C 
BRANCH  25  26
ATOM     26  O   LIG    1       19.537 -26.208  12.484  0.00  0.00    -0.392 OA
ATOM     27  H   LIG    1       19.845 -25.726  11.694  0.00  0.00    +0.209 HD
ENDBRANCH  25  26
ENDBRANCH  19  25
ENDBRANCH  15  16
ENDBRANCH   6  15
BRANCH   1  28
ATOM     28  O   LIG    1       24.922 -30.709  10.292  0.00  0.00    -0.342 OA
BRANCH  28  33
ATOM     29  C   LIG    1       24.388 -30.073   7.531  0.00  0.00    +0.166 C 
ATOM     30  C   LIG    1       24.210 -31.485   6.942  0.00  0.00    +0.175 C 
ATOM     31  C   LIG    1       24.228 -32.540   8.057  0.00  0.00    +0.167 C 
ATOM     32  C   LIG    1       23.243 -32.156   9.177  0.00  0.00    +0.139 C 
ATOM     33  C   LIG    1       23.620 -30.737   9.701  0.00  0.00    +0.270 C 
ATOM     34  O   LIG    1       23.490 -29.815   8.624  0.00  0.00    -0.343 OA
BRANCH  32  35
ATOM     35  N   LIG    1       23.151 -33.211  10.209  0.00  0.00    -0.321 NA
ATOM     36  H   LIG    1       22.680 -34.018   9.790  0.00  0.00    +0.119 HD
ATOM     37  H   LIG    1       24.094 -33.538  10.423  0.00  0.00    +0.119 HD
ENDBRANCH  32  35
BRANCH  31  38
ATOM     38  O   LIG    1       23.886 -33.825   7.490  0.00  0.00    -0.387 OA
ATOM     39  H   LIG    1       22.935 -33.966   7.622  0.00  0.00    +0.210 HD
ENDBRANCH  31  38
BRANCH  30  40
ATOM     40  O   LIG    1       25.246 -31.776   5.996  0.00  0.00    -0.387 OA
ATOM     41  H   LIG    1       26.060 -31.941   6.514  0.00  0.00    +0.210 HD
ENDBRANCH  30  40
BRANCH  29  42
ATOM     42  C   LIG    1       24.170 -28.947   6.493  0.00  0.00    +0.112 C 
BRANCH  42  43
ATOM     43  N   LIG    1       23.379 -29.314   5.311  0.00  0.00    -0.328 NA
ATOM     44  H   LIG    1       22.409 -29.479   5.575  0.00  0.00    +0.118 HD
ATOM     45  H   LIG    1       23.742 -30.170   4.899  0.00  0.00    +0.118 HD
ENDBRANCH  42  43
ENDBRANCH  29  42
ENDBRANCH  28  33
ENDBRANCH   1  28
TORSDOF 16
ENDMDL
