MODEL 1
REMARK VINA RESULT:      -9.2      0.000      0.000
REMARK  Name = *****
REMARK                            x       y       z     vdW  Elec       q    Type
REMARK                         _______ _______ _______ _____ _____    ______ ____
ROOT
ATOM      1  C   LIG    1       24.706 -20.138   4.676  0.00  0.00    +0.370 C 
ATOM      2  N   LIG    1       25.359 -20.589   5.794  0.00  0.00    -0.182 N 
ATOM      3  C   LIG    1       24.349 -21.217   6.643  0.00  0.00    +0.212 C 
ATOM      4  C   LIG    1       24.529 -22.726   6.612  0.00  0.00    -0.006 A 
ATOM      5  C   LIG    1       25.637 -23.254   7.310  0.00  0.00    -0.037 A 
ATOM      6  C   LIG    1       26.561 -22.318   8.049  0.00  0.00    +0.074 C 
ATOM      7  C   LIG    1       27.310 -21.322   7.179  0.00  0.00    -0.006 A 
ATOM      8  C   LIG    1       28.692 -21.191   7.468  0.00  0.00    +0.007 A 
ATOM      9  C   LIG    1       29.499 -20.285   6.792  0.00  0.00    +0.001 A 
ATOM     10  C   LIG    1       28.933 -19.467   5.833  0.00  0.00    +0.003 A 
ATOM     11  C   LIG    1       27.567 -19.573   5.547  0.00  0.00    +0.040 A 
ATOM     12  C   LIG    1       25.875 -24.636   7.316  0.00  0.00    +0.004 A 
ATOM     13  C   LIG    1       25.028 -25.499   6.628  0.00  0.00    +0.000 A 
ATOM     14  C   LIG    1       23.947 -24.986   5.918  0.00  0.00    +0.000 A 
ATOM     15  C   LIG    1       23.704 -23.609   5.902  0.00  0.00    +0.007 A 
ATOM     16  C   LIG    1       23.055 -20.633   6.030  0.00  0.00    +0.287 C 
ATOM     17  C   LIG    1       26.713 -20.509   6.173  0.00  0.00    +0.099 A 
ATOM     18  N   LIG    1       23.397 -20.162   4.660  0.00  0.00    -0.113 NA
ENDROOT
BRANCH   1  19
ATOM     19  N   LIG    1       25.376 -19.754   3.568  0.00  0.00    -0.251 N 
ATOM     20  H   LIG    1       26.068 -20.433   3.274  0.00  0.00    +0.241 HD
ATOM     21  H   LIG    1       24.728 -19.528   2.822  0.00  0.00    +0.241 HD
ENDBRANCH   1  19
TORSDOF 1
ENDMDL
MODEL 2
REMARK VINA RESULT:      -8.9      1.703      4.047
REMARK  Name = *****
REMARK                            x       y       z     vdW  Elec       q    Type
REMARK                         _______ _______ _______ _____ _____    ______ ____
ROOT
ATOM      1  C   LIG    1       25.179 -22.043   7.748  0.00  0.00    +0.370 C 
ATOM      2  N   LIG    1       25.755 -21.472   6.643  0.00  0.00    -0.182 N 
ATOM      3  C   LIG    1       24.950 -21.882   5.493  0.00  0.00    +0.212 C 
ATOM      4  C   LIG    1       24.141 -20.697   4.993  0.00  0.00    -0.006 A 
ATOM      5  C   LIG    1       24.845 -19.684   4.308  0.00  0.00    -0.037 A 
ATOM      6  C   LIG    1       26.332 -19.828   4.097  0.00  0.00    +0.074 C 
ATOM      7  C   LIG    1       27.170 -19.852   5.364  0.00  0.00    -0.006 A 
ATOM      8  C   LIG    1       28.330 -19.037   5.334  0.00  0.00    +0.007 A 
ATOM      9  C   LIG    1       29.221 -18.992   6.398  0.00  0.00    +0.001 A 
ATOM     10  C   LIG    1       28.987 -19.788   7.503  0.00  0.00    +0.003 A 
ATOM     11  C   LIG    1       27.856 -20.610   7.543  0.00  0.00    +0.040 A 
ATOM     12  C   LIG    1       24.168 -18.553   3.828  0.00  0.00    +0.004 A 
ATOM     13  C   LIG    1       22.798 -18.415   4.030  0.00  0.00    +0.000 A 
ATOM     14  C   LIG    1       22.099 -19.398   4.725  0.00  0.00    +0.000 A 
ATOM     15  C   LIG    1       22.767 -20.526   5.211  0.00  0.00    +0.007 A 
ATOM     16  C   LIG    1       24.178 -23.079   6.096  0.00  0.00    +0.287 C 
ATOM     17  C   LIG    1       26.895 -20.657   6.507  0.00  0.00    +0.099 A 
ATOM     18  N   LIG    1       24.231 -22.930   7.576  0.00  0.00    -0.113 NA
ENDROOT
BRANCH   1  19
ATOM     19  N   LIG    1       25.502 -21.652   9.000  0.00  0.00    -0.251 N 
ATOM     20  H   LIG    1       25.221 -20.699   9.197  0.00  0.00    +0.241 HD
ATOM     21  H   LIG    1       25.131 -22.304   9.682  0.00  0.00    +0.241 HD
ENDBRANCH   1  19
TORSDOF 1
ENDMDL
MODEL 3
REMARK VINA RESULT:      -8.5      2.268      4.827
REMARK  Name = *****
REMARK                            x       y       z     vdW  Elec       q    Type
REMARK                         _______ _______ _______ _____ _____    ______ ____
ROOT
ATOM      1  C   LIG    1       26.675 -21.777   7.396  0.00  0.00    +0.370 C 
ATOM      2  N   LIG    1       25.525 -22.521   7.334  0.00  0.00    -0.182 N 
ATOM      3  C   LIG    1       24.459 -21.692   7.894  0.00  0.00    +0.212 C 
ATOM      4  C   LIG    1       23.547 -21.215   6.775  0.00  0.00    -0.006 A 
ATOM      5  C   LIG    1       22.684 -22.172   6.201  0.00  0.00    -0.037 A 
ATOM      6  C   LIG    1       22.695 -23.588   6.723  0.00  0.00    +0.074 C 
ATOM      7  C   LIG    1       24.003 -24.339   6.536  0.00  0.00    -0.006 A 
ATOM      8  C   LIG    1       23.871 -25.662   6.042  0.00  0.00    +0.007 A 
ATOM      9  C   LIG    1       24.971 -26.491   5.865  0.00  0.00    +0.001 A 
ATOM     10  C   LIG    1       26.225 -26.024   6.209  0.00  0.00    +0.003 A 
ATOM     11  C   LIG    1       26.371 -24.727   6.713  0.00  0.00    +0.040 A 
ATOM     12  C   LIG    1       21.822 -21.809   5.155  0.00  0.00    +0.004 A 
ATOM     13  C   LIG    1       21.817 -20.506   4.668  0.00  0.00    +0.000 A 
ATOM     14  C   LIG    1       22.681 -19.561   5.213  0.00  0.00    +0.000 A 
ATOM     15  C   LIG    1       23.547 -19.915   6.252  0.00  0.00    +0.007 A 
ATOM     16  C   LIG    1       25.290 -20.628   8.649  0.00  0.00    +0.287 C 
ATOM     17  C   LIG    1       25.290 -23.829   6.868  0.00  0.00    +0.099 A 
ATOM     18  N   LIG    1       26.659 -20.651   8.065  0.00  0.00    -0.113 NA
ENDROOT
BRANCH   1  19
ATOM     19  N   LIG    1       27.788 -22.130   6.718  0.00  0.00    -0.251 N 
ATOM     20  H   LIG    1       28.307 -21.331   6.375  0.00  0.00    +0.241 HD
ATOM     21  H   LIG    1       28.367 -22.743   7.282  0.00  0.00    +0.241 HD
ENDBRANCH   1  19
TORSDOF 1
ENDMDL
MODEL 4
REMARK VINA RESULT:      -6.2      6.987      9.341
REMARK  Name = *****
REMARK                            x       y       z     vdW  Elec       q    Type
REMARK                         _______ _______ _______ _____ _____    ______ ____
ROOT
ATOM      1  C   LIG    1       23.068 -31.078   9.524  0.00  0.00    +0.370 C 
ATOM      2  N   LIG    1       24.271 -30.432   9.651  0.00  0.00    -0.182 N 
ATOM      3  C   LIG    1       25.015 -30.688   8.420  0.00  0.00    +0.212 C 
ATOM      4  C   LIG    1       25.058 -29.420   7.582  0.00  0.00    -0.006 A 
ATOM      5  C   LIG    1       25.900 -28.382   8.033  0.00  0.00    -0.037 A 
ATOM      6  C   LIG    1       26.710 -28.578   9.290  0.00  0.00    +0.074 C 
ATOM      7  C   LIG    1       25.902 -28.768  10.563  0.00  0.00    -0.006 A 
ATOM      8  C   LIG    1       26.348 -28.012  11.676  0.00  0.00    +0.007 A 
ATOM      9  C   LIG    1       25.741 -28.115  12.922  0.00  0.00    +0.001 A 
ATOM     10  C   LIG    1       24.695 -29.001  13.087  0.00  0.00    +0.003 A 
ATOM     11  C   LIG    1       24.252 -29.766  12.002  0.00  0.00    +0.040 A 
ATOM     12  C   LIG    1       25.981 -27.177   7.318  0.00  0.00    +0.004 A 
ATOM     13  C   LIG    1       25.228 -26.992   6.164  0.00  0.00    +0.000 A 
ATOM     14  C   LIG    1       24.377 -28.002   5.724  0.00  0.00    +0.000 A 
ATOM     15  C   LIG    1       24.285 -29.204   6.432  0.00  0.00    +0.007 A 
ATOM     16  C   LIG    1       24.233 -31.897   7.858  0.00  0.00    +0.287 C 
ATOM     17  C   LIG    1       24.805 -29.664  10.704  0.00  0.00    +0.099 A 
ATOM     18  N   LIG    1       22.898 -31.896   8.516  0.00  0.00    -0.113 NA
ENDROOT
BRANCH   1  19
ATOM     19  N   LIG    1       22.035 -30.827  10.357  0.00  0.00    -0.251 N 
ATOM     20  H   LIG    1       21.476 -30.036  10.061  0.00  0.00    +0.241 HD
ATOM     21  H   LIG    1       21.471 -31.661  10.483  0.00  0.00    +0.241 HD
ENDBRANCH   1  19
TORSDOF 1
ENDMDL
