MODEL 1
REMARK VINA RESULT:      -2.1      0.000      0.000
REMARK  Name = *****
REMARK                            x       y       z     vdW  Elec       q    Type
REMARK                         _______ _______ _______ _____ _____    ______ ____
ROOT
ATOM      1  C   LIG    1       28.304 -18.043   4.488  0.00  0.00    +0.220 A 
ATOM      2  N   LIG    1       28.192 -16.747   4.261  0.00  0.00    -0.193 NA
ATOM      3  C   LIG    1       27.050 -16.376   3.657  0.00  0.00    +0.185 A 
ATOM      4  N   LIG    1       26.098 -17.222   3.259  0.00  0.00    -0.193 NA
ATOM      5  C   LIG    1       26.285 -18.491   3.563  0.00  0.00    +0.224 A 
ATOM      6  N   LIG    1       27.380 -18.930   4.187  0.00  0.00    -0.181 NA
ENDROOT
BRANCH   3   7
ATOM      7  C   LIG    1       26.826 -14.921   3.438  0.00  0.00    +0.109 A 
ATOM      8  N   LIG    1       25.526 -14.498   3.392  0.00  0.00    -0.240 NA
ATOM      9  C   LIG    1       25.253 -13.173   3.204  0.00  0.00    +0.144 A 
ATOM     10  C   LIG    1       26.270 -12.233   3.051  0.00  0.00    +0.032 A 
ATOM     11  C   LIG    1       27.593 -12.660   3.099  0.00  0.00    +0.004 A 
ATOM     12  C   LIG    1       27.873 -14.010   3.299  0.00  0.00    +0.031 A 
BRANCH   9  13
ATOM     13  C   LIG    1       23.796 -12.729   3.169  0.00  0.00    +0.434 C 
ATOM     14  F   LIG    1       23.483 -12.006   2.055  0.00  0.00    -0.164 F 
ATOM     15  F   LIG    1       23.446 -11.953   4.234  0.00  0.00    -0.164 F 
ATOM     16  F   LIG    1       22.913 -13.774   3.178  0.00  0.00    -0.164 F 
ENDBRANCH   9  13
ENDBRANCH   3   7
BRANCH   1  17
ATOM     17  N   LIG    1       29.472 -18.459   5.118  0.00  0.00    -0.311 N 
ATOM     18  H   LIG    1       30.000 -19.030   4.470  0.00  0.00    +0.149 HD
BRANCH  17  19
ATOM     19  C   LIG    1       29.319 -19.055   6.461  0.00  0.00    +0.138 C 
BRANCH  19  21
ATOM     20  C   LIG    1       27.232 -20.404   7.028  0.00  0.00    +0.042 C 
ATOM     21  C   LIG    1       28.627 -20.447   6.386  0.00  0.00    +0.076 C 
ATOM     22  C   LIG    1       29.474 -21.527   7.061  0.00  0.00    +0.042 C 
BRANCH  21  23
ATOM     23  O   LIG    1       28.467 -20.808   5.005  0.00  0.00    -0.388 OA
ATOM     24  H   LIG    1       27.519 -20.742   4.788  0.00  0.00    +0.210 HD
ENDBRANCH  21  23
ENDBRANCH  19  21
ENDBRANCH  17  19
ENDBRANCH   1  17
BRANCH   5  25
ATOM     25  N   LIG    1       25.273 -19.386   3.220  0.00  0.00    -0.283 N 
ATOM     26  H   LIG    1       25.514 -19.877   2.370  0.00  0.00    +0.155 HD
BRANCH  25  27
ATOM     27  C   LIG    1       24.022 -19.622   3.801  0.00  0.00    +0.037 A 
ATOM     28  C   LIG    1       22.864 -18.948   3.407  0.00  0.00    +0.055 A 
ATOM     29  C   LIG    1       21.623 -19.277   3.953  0.00  0.00    +0.145 A 
ATOM     30  N   LIG    1       21.490 -20.266   4.875  0.00  0.00    -0.251 NA
ATOM     31  C   LIG    1       22.610 -20.926   5.238  0.00  0.00    +0.113 A 
ATOM     32  C   LIG    1       23.872 -20.647   4.733  0.00  0.00    +0.043 A 
BRANCH  29  33
ATOM     33  C   LIG    1       20.415 -18.482   3.485  0.00  0.00    +0.434 C 
ATOM     34  F   LIG    1       19.935 -17.634   4.444  0.00  0.00    -0.164 F 
ATOM     35  F   LIG    1       19.356 -19.287   3.163  0.00  0.00    -0.164 F 
ATOM     36  F   LIG    1       20.637 -17.708   2.385  0.00  0.00    -0.164 F 
ENDBRANCH  29  33
ENDBRANCH  25  27
ENDBRANCH   5  25
TORSDOF 9
ENDMDL
