MODEL 1
REMARK VINA RESULT:      -8.2      0.000      0.000
REMARK  Name = *****
REMARK                            x       y       z     vdW  Elec       q    Type
REMARK                         _______ _______ _______ _____ _____    ______ ____
ROOT
ATOM      1  C   LIG    1       28.970 -19.955   6.989  0.00  0.00    +0.053 C 
ATOM      2  C   LIG    1       27.487 -20.311   6.941  0.00  0.00    +0.187 C 
ENDROOT
BRANCH   2   3
ATOM      3  O   LIG    1       27.323 -21.615   7.534  0.00  0.00    -0.457 OA
BRANCH   3   4
ATOM      4  C   LIG    1       26.199 -21.827   8.264  0.00  0.00    +0.340 C 
ATOM      5  O   LIG    1       25.868 -21.259   9.286  0.00  0.00    -0.245 OA
BRANCH   4   6
ATOM      6  C   LIG    1       25.380 -22.863   7.587  0.00  0.00    +0.059 A 
ATOM      7  C   LIG    1       24.001 -22.664   7.443  0.00  0.00    +0.015 A 
ATOM      8  C   LIG    1       23.224 -23.632   6.803  0.00  0.00    +0.001 A 
ATOM      9  C   LIG    1       23.817 -24.800   6.320  0.00  0.00    +0.000 A 
ATOM     10  C   LIG    1       25.187 -25.008   6.478  0.00  0.00    +0.001 A 
ATOM     11  C   LIG    1       25.968 -24.042   7.111  0.00  0.00    +0.015 A 
ENDBRANCH   4   6
ENDBRANCH   3   4
ENDBRANCH   2   3
BRANCH   2  12
ATOM     12  C   LIG    1       26.932 -20.332   5.500  0.00  0.00    +0.125 C 
BRANCH  12  13
ATOM     13  N   LIG    1       25.497 -20.020   5.433  0.00  0.00    -0.310 NA
ATOM     14  H   LIG    1       25.368 -19.041   5.696  0.00  0.00    +0.122 HD
BRANCH  13  15
ATOM     15  C   LIG    1       24.892 -20.263   4.112  0.00  0.00    +0.054 C 
ATOM     16  C   LIG    1       23.606 -21.106   4.179  0.00  0.00    +0.019 C 
ATOM     17  C   LIG    1       22.505 -20.405   4.974  0.00  0.00    +0.002 C 
ATOM     18  C   LIG    1       22.174 -19.044   4.367  0.00  0.00    +0.000 C 
ATOM     19  C   LIG    1       23.414 -18.171   4.179  0.00  0.00    +0.002 C 
ATOM     20  C   LIG    1       24.544 -18.911   3.457  0.00  0.00    +0.019 C 
ENDBRANCH  13  15
ENDBRANCH  12  13
ENDBRANCH   2  12
TORSDOF 6
ENDMDL
MODEL 2
REMARK VINA RESULT:      -7.9      3.859      6.942
REMARK  Name = *****
REMARK                            x       y       z     vdW  Elec       q    Type
REMARK                         _______ _______ _______ _____ _____    ______ ____
ROOT
ATOM      1  C   LIG    1       30.758 -21.470   8.864  0.00  0.00    +0.053 C 
ATOM      2  C   LIG    1       30.306 -20.243   8.076  0.00  0.00    +0.187 C 
ENDROOT
BRANCH   2   3
ATOM      3  O   LIG    1       29.601 -20.700   6.905  0.00  0.00    -0.457 OA
BRANCH   3   4
ATOM      4  C   LIG    1       28.722 -19.838   6.334  0.00  0.00    +0.340 C 
ATOM      5  O   LIG    1       28.978 -18.913   5.589  0.00  0.00    -0.245 OA
BRANCH   4   6
ATOM      6  C   LIG    1       27.347 -20.227   6.735  0.00  0.00    +0.059 A 
ATOM      7  C   LIG    1       26.364 -20.386   5.750  0.00  0.00    +0.015 A 
ATOM      8  C   LIG    1       25.068 -20.756   6.118  0.00  0.00    +0.001 A 
ATOM      9  C   LIG    1       24.751 -20.954   7.463  0.00  0.00    +0.000 A 
ATOM     10  C   LIG    1       25.724 -20.779   8.446  0.00  0.00    +0.001 A 
ATOM     11  C   LIG    1       27.021 -20.415   8.084  0.00  0.00    +0.015 A 
ENDBRANCH   4   6
ENDBRANCH   3   4
ENDBRANCH   2   3
BRANCH   2  12
ATOM     12  C   LIG    1       31.489 -19.350   7.646  0.00  0.00    +0.125 C 
BRANCH  12  13
ATOM     13  N   LIG    1       32.088 -18.609   8.767  0.00  0.00    -0.310 NA
ATOM     14  H   LIG    1       33.104 -18.637   8.664  0.00  0.00    +0.122 HD
BRANCH  13  15
ATOM     15  C   LIG    1       31.637 -17.211   8.869  0.00  0.00    +0.054 C 
ATOM     16  C   LIG    1       30.305 -17.055   9.625  0.00  0.00    +0.019 C 
ATOM     17  C   LIG    1       30.414 -17.523  11.076  0.00  0.00    +0.002 C 
ATOM     18  C   LIG    1       31.499 -16.748  11.820  0.00  0.00    +0.000 C 
ATOM     19  C   LIG    1       32.840 -16.773  11.089  0.00  0.00    +0.002 C 
ATOM     20  C   LIG    1       32.707 -16.386   9.613  0.00  0.00    +0.019 C 
ENDBRANCH  13  15
ENDBRANCH  12  13
ENDBRANCH   2  12
TORSDOF 6
ENDMDL
MODEL 3
REMARK VINA RESULT:      -7.9      1.828      5.388
REMARK  Name = *****
REMARK                            x       y       z     vdW  Elec       q    Type
REMARK                         _______ _______ _______ _____ _____    ______ ____
ROOT
ATOM      1  C   LIG    1       25.868 -22.916   7.628  0.00  0.00    +0.053 C 
ATOM      2  C   LIG    1       25.524 -21.604   8.328  0.00  0.00    +0.187 C 
ENDROOT
BRANCH   2   3
ATOM      3  O   LIG    1       24.151 -21.286   8.028  0.00  0.00    -0.457 OA
BRANCH   3   4
ATOM      4  C   LIG    1       23.599 -21.884   6.942  0.00  0.00    +0.340 C 
ATOM      5  O   LIG    1       23.121 -22.999   6.882  0.00  0.00    -0.245 OA
BRANCH   4   6
ATOM      6  C   LIG    1       23.629 -20.930   5.806  0.00  0.00    +0.059 A 
ATOM      7  C   LIG    1       22.658 -19.923   5.728  0.00  0.00    +0.015 A 
ATOM      8  C   LIG    1       22.682 -19.018   4.665  0.00  0.00    +0.001 A 
ATOM      9  C   LIG    1       23.662 -19.124   3.676  0.00  0.00    +0.000 A 
ATOM     10  C   LIG    1       24.619 -20.136   3.744  0.00  0.00    +0.001 A 
ATOM     11  C   LIG    1       24.604 -21.039   4.806  0.00  0.00    +0.015 A 
ENDBRANCH   4   6
ENDBRANCH   3   4
ENDBRANCH   2   3
BRANCH   2  12
ATOM     12  C   LIG    1       26.431 -20.439   7.875  0.00  0.00    +0.125 C 
BRANCH  12  13
ATOM     13  N   LIG    1       27.793 -20.524   8.423  0.00  0.00    -0.310 NA
ATOM     14  H   LIG    1       27.755 -21.055   9.295  0.00  0.00    +0.122 HD
BRANCH  13  15
ATOM     15  C   LIG    1       28.769 -21.138   7.509  0.00  0.00    +0.054 C 
ATOM     16  C   LIG    1       28.979 -20.333   6.213  0.00  0.00    +0.019 C 
ATOM     17  C   LIG    1       29.546 -18.942   6.492  0.00  0.00    +0.002 C 
ATOM     18  C   LIG    1       30.875 -19.031   7.238  0.00  0.00    +0.000 C 
ATOM     19  C   LIG    1       30.781 -19.893   8.497  0.00  0.00    +0.002 C 
ATOM     20  C   LIG    1       30.131 -21.254   8.224  0.00  0.00    +0.019 C 
ENDBRANCH  13  15
ENDBRANCH  12  13
ENDBRANCH   2  12
TORSDOF 6
ENDMDL
MODEL 4
REMARK VINA RESULT:      -7.9      1.107      4.058
REMARK  Name = *****
REMARK                            x       y       z     vdW  Elec       q    Type
REMARK                         _______ _______ _______ _____ _____    ______ ____
ROOT
ATOM      1  C   LIG    1       25.826 -24.315   6.924  0.00  0.00    +0.053 C 
ATOM      2  C   LIG    1       25.811 -22.790   6.981  0.00  0.00    +0.187 C 
ENDROOT
BRANCH   2   3
ATOM      3  O   LIG    1       26.778 -22.372   7.966  0.00  0.00    -0.457 OA
BRANCH   3   4
ATOM      4  C   LIG    1       26.729 -21.078   8.372  0.00  0.00    +0.340 C 
ATOM      5  O   LIG    1       26.027 -20.607   9.244  0.00  0.00    -0.245 OA
BRANCH   4   6
ATOM      6  C   LIG    1       27.723 -20.297   7.594  0.00  0.00    +0.059 A 
ATOM      7  C   LIG    1       27.523 -20.103   6.221  0.00  0.00    +0.015 A 
ATOM      8  C   LIG    1       28.451 -19.365   5.482  0.00  0.00    +0.001 A 
ATOM      9  C   LIG    1       29.581 -18.835   6.108  0.00  0.00    +0.000 A 
ATOM     10  C   LIG    1       29.790 -19.041   7.470  0.00  0.00    +0.001 A 
ATOM     11  C   LIG    1       28.864 -19.772   8.214  0.00  0.00    +0.015 A 
ENDBRANCH   4   6
ENDBRANCH   3   4
ENDBRANCH   2   3
BRANCH   2  12
ATOM     12  C   LIG    1       24.423 -22.228   7.356  0.00  0.00    +0.125 C 
BRANCH  12  13
ATOM     13  N   LIG    1       24.037 -21.063   6.545  0.00  0.00    -0.310 NA
ATOM     14  H   LIG    1       24.868 -20.487   6.395  0.00  0.00    +0.122 HD
BRANCH  13  15
ATOM     15  C   LIG    1       23.432 -21.409   5.248  0.00  0.00    +0.054 C 
ATOM     16  C   LIG    1       22.146 -20.619   4.948  0.00  0.00    +0.019 C 
ATOM     17  C   LIG    1       22.409 -19.116   4.851  0.00  0.00    +0.002 C 
ATOM     18  C   LIG    1       23.443 -18.810   3.770  0.00  0.00    +0.000 C 
ATOM     19  C   LIG    1       24.725 -19.624   3.940  0.00  0.00    +0.002 C 
ATOM     20  C   LIG    1       24.446 -21.119   4.122  0.00  0.00    +0.019 C 
ENDBRANCH  13  15
ENDBRANCH  12  13
ENDBRANCH   2  12
TORSDOF 6
ENDMDL
MODEL 5
REMARK VINA RESULT:      -7.8      3.108      6.117
REMARK  Name = *****
REMARK                            x       y       z     vdW  Elec       q    Type
REMARK                         _______ _______ _______ _____ _____    ______ ____
ROOT
ATOM      1  C   LIG    1       28.746 -21.233   7.832  0.00  0.00    +0.053 C 
ATOM      2  C   LIG    1       28.939 -20.311   6.631  0.00  0.00    +0.187 C 
ENDROOT
BRANCH   2   3
ATOM      3  O   LIG    1       29.478 -19.063   7.111  0.00  0.00    -0.457 OA
BRANCH   3   4
ATOM      4  C   LIG    1       30.801 -19.034   7.413  0.00  0.00    +0.340 C 
ATOM      5  O   LIG    1       31.704 -19.580   6.811  0.00  0.00    -0.245 OA
BRANCH   4   6
ATOM      6  C   LIG    1       30.998 -18.174   8.606  0.00  0.00    +0.059 A 
ATOM      7  C   LIG    1       30.002 -18.122   9.589  0.00  0.00    +0.015 A 
ATOM      8  C   LIG    1       30.181 -17.319  10.718  0.00  0.00    +0.001 A 
ATOM      9  C   LIG    1       31.345 -16.560  10.859  0.00  0.00    +0.000 A 
ATOM     10  C   LIG    1       32.330 -16.597   9.873  0.00  0.00    +0.001 A 
ATOM     11  C   LIG    1       32.158 -17.401   8.747  0.00  0.00    +0.015 A 
ENDBRANCH   4   6
ENDBRANCH   3   4
ENDBRANCH   2   3
BRANCH   2  12
ATOM     12  C   LIG    1       27.620 -20.043   5.876  0.00  0.00    +0.125 C 
BRANCH  12  13
ATOM     13  N   LIG    1       26.426 -20.370   6.670  0.00  0.00    -0.310 NA
ATOM     14  H   LIG    1       25.852 -19.529   6.748  0.00  0.00    +0.122 HD
BRANCH  13  15
ATOM     15  C   LIG    1       25.622 -21.472   6.116  0.00  0.00    +0.054 C 
ATOM     16  C   LIG    1       24.445 -21.880   7.021  0.00  0.00    +0.019 C 
ATOM     17  C   LIG    1       23.445 -20.739   7.205  0.00  0.00    +0.002 C 
ATOM     18  C   LIG    1       22.896 -20.270   5.861  0.00  0.00    +0.000 C 
ATOM     19  C   LIG    1       24.003 -19.929   4.864  0.00  0.00    +0.002 C 
ATOM     20  C   LIG    1       25.048 -21.043   4.750  0.00  0.00    +0.019 C 
ENDBRANCH  13  15
ENDBRANCH  12  13
ENDBRANCH   2  12
TORSDOF 6
ENDMDL
MODEL 6
REMARK VINA RESULT:      -7.8      1.633      5.530
REMARK  Name = *****
REMARK                            x       y       z     vdW  Elec       q    Type
REMARK                         _______ _______ _______ _____ _____    ______ ____
ROOT
ATOM      1  C   LIG    1       25.096 -19.648   3.652  0.00  0.00    +0.053 C 
ATOM      2  C   LIG    1       24.951 -20.392   4.977  0.00  0.00    +0.187 C 
ENDROOT
BRANCH   2   3
ATOM      3  O   LIG    1       26.271 -20.748   5.434  0.00  0.00    -0.457 OA
BRANCH   3   4
ATOM      4  C   LIG    1       26.606 -20.388   6.699  0.00  0.00    +0.340 C 
ATOM      5  O   LIG    1       25.882 -20.369   7.674  0.00  0.00    -0.245 OA
BRANCH   4   6
ATOM      6  C   LIG    1       28.050 -20.045   6.730  0.00  0.00    +0.059 A 
ATOM      7  C   LIG    1       28.864 -20.587   7.733  0.00  0.00    +0.015 A 
ATOM      8  C   LIG    1       30.225 -20.274   7.767  0.00  0.00    +0.001 A 
ATOM      9  C   LIG    1       30.769 -19.413   6.812  0.00  0.00    +0.000 A 
ATOM     10  C   LIG    1       29.957 -18.860   5.823  0.00  0.00    +0.001 A 
ATOM     11  C   LIG    1       28.599 -19.174   5.781  0.00  0.00    +0.015 A 
ENDBRANCH   4   6
ENDBRANCH   3   4
ENDBRANCH   2   3
BRANCH   2  12
ATOM     12  C   LIG    1       24.094 -21.670   4.844  0.00  0.00    +0.125 C 
BRANCH  12  13
ATOM     13  N   LIG    1       24.833 -22.895   5.184  0.00  0.00    -0.310 NA
ATOM     14  H   LIG    1       25.833 -22.703   5.092  0.00  0.00    +0.122 HD
BRANCH  13  15
ATOM     15  C   LIG    1       24.548 -23.412   6.532  0.00  0.00    +0.054 C 
ATOM     16  C   LIG    1       23.474 -24.515   6.546  0.00  0.00    +0.019 C 
ATOM     17  C   LIG    1       23.912 -25.747   5.755  0.00  0.00    +0.002 C 
ATOM     18  C   LIG    1       25.215 -26.318   6.308  0.00  0.00    +0.000 C 
ATOM     19  C   LIG    1       26.316 -25.264   6.416  0.00  0.00    +0.002 C 
ATOM     20  C   LIG    1       25.842 -23.997   7.135  0.00  0.00    +0.019 C 
ENDBRANCH  13  15
ENDBRANCH  12  13
ENDBRANCH   2  12
TORSDOF 6
ENDMDL
MODEL 7
REMARK VINA RESULT:      -7.8      1.747      5.151
REMARK  Name = *****
REMARK                            x       y       z     vdW  Elec       q    Type
REMARK                         _______ _______ _______ _____ _____    ______ ____
ROOT
ATOM      1  C   LIG    1       25.270 -25.470   5.397  0.00  0.00    +0.053 C 
ATOM      2  C   LIG    1       24.834 -24.354   6.343  0.00  0.00    +0.187 C 
ENDROOT
BRANCH   2   3
ATOM      3  O   LIG    1       24.399 -23.237   5.541  0.00  0.00    -0.457 OA
BRANCH   3   4
ATOM      4  C   LIG    1       23.489 -22.395   6.093  0.00  0.00    +0.340 C 
ATOM      5  O   LIG    1       22.835 -22.579   7.101  0.00  0.00    -0.245 OA
BRANCH   4   6
ATOM      6  C   LIG    1       23.434 -21.155   5.281  0.00  0.00    +0.059 A 
ATOM      7  C   LIG    1       24.280 -21.020   4.173  0.00  0.00    +0.015 A 
ATOM      8  C   LIG    1       24.231 -19.857   3.400  0.00  0.00    +0.001 A 
ATOM      9  C   LIG    1       23.351 -18.828   3.739  0.00  0.00    +0.000 A 
ATOM     10  C   LIG    1       22.521 -18.953   4.852  0.00  0.00    +0.001 A 
ATOM     11  C   LIG    1       22.561 -20.114   5.623  0.00  0.00    +0.015 A 
ENDBRANCH   4   6
ENDBRANCH   3   4
ENDBRANCH   2   3
BRANCH   2  12
ATOM     12  C   LIG    1       25.971 -23.899   7.282  0.00  0.00    +0.125 C 
BRANCH  12  13
ATOM     13  N   LIG    1       26.752 -22.778   6.737  0.00  0.00    -0.310 NA
ATOM     14  H   LIG    1       26.286 -22.443   5.892  0.00  0.00    +0.122 HD
BRANCH  13  15
ATOM     15  C   LIG    1       26.934 -21.661   7.680  0.00  0.00    +0.054 C 
ATOM     16  C   LIG    1       28.406 -21.428   8.068  0.00  0.00    +0.019 C 
ATOM     17  C   LIG    1       29.260 -21.044   6.860  0.00  0.00    +0.002 C 
ATOM     18  C   LIG    1       28.721 -19.786   6.185  0.00  0.00    +0.000 C 
ATOM     19  C   LIG    1       27.234 -19.896   5.846  0.00  0.00    +0.002 C 
ATOM     20  C   LIG    1       26.397 -20.364   7.041  0.00  0.00    +0.019 C 
ENDBRANCH  13  15
ENDBRANCH  12  13
ENDBRANCH   2  12
TORSDOF 6
ENDMDL
MODEL 8
REMARK VINA RESULT:      -7.8      3.335      6.583
REMARK  Name = *****
REMARK                            x       y       z     vdW  Elec       q    Type
REMARK                         _______ _______ _______ _____ _____    ______ ____
ROOT
ATOM      1  C   LIG    1       29.027 -21.278   7.697  0.00  0.00    +0.053 C 
ATOM      2  C   LIG    1       29.304 -20.163   6.692  0.00  0.00    +0.187 C 
ENDROOT
BRANCH   2   3
ATOM      3  O   LIG    1       29.726 -18.996   7.427  0.00  0.00    -0.457 OA
BRANCH   3   4
ATOM      4  C   LIG    1       31.048 -18.891   7.715  0.00  0.00    +0.340 C 
ATOM      5  O   LIG    1       31.975 -19.391   7.109  0.00  0.00    -0.245 OA
BRANCH   4   6
ATOM      6  C   LIG    1       31.208 -18.009   8.898  0.00  0.00    +0.059 A 
ATOM      7  C   LIG    1       30.232 -18.023   9.903  0.00  0.00    +0.015 A 
ATOM      8  C   LIG    1       30.378 -17.200  11.022  0.00  0.00    +0.001 A 
ATOM      9  C   LIG    1       31.485 -16.357  11.133  0.00  0.00    +0.000 A 
ATOM     10  C   LIG    1       32.449 -16.330  10.126  0.00  0.00    +0.001 A 
ATOM     11  C   LIG    1       32.312 -17.154   9.009  0.00  0.00    +0.015 A 
ENDBRANCH   4   6
ENDBRANCH   3   4
ENDBRANCH   2   3
BRANCH   2  12
ATOM     12  C   LIG    1       28.063 -19.812   5.843  0.00  0.00    +0.125 C 
BRANCH  12  13
ATOM     13  N   LIG    1       27.090 -20.912   5.767  0.00  0.00    -0.310 NA
ATOM     14  H   LIG    1       27.371 -21.636   6.430  0.00  0.00    +0.122 HD
BRANCH  13  15
ATOM     15  C   LIG    1       25.701 -20.503   6.037  0.00  0.00    +0.054 C 
ATOM     16  C   LIG    1       24.665 -21.291   5.216  0.00  0.00    +0.019 C 
ATOM     17  C   LIG    1       24.689 -22.783   5.547  0.00  0.00    +0.002 C 
ATOM     18  C   LIG    1       24.427 -23.018   7.032  0.00  0.00    +0.000 C 
ATOM     19  C   LIG    1       25.356 -22.200   7.927  0.00  0.00    +0.002 C 
ATOM     20  C   LIG    1       25.391 -20.720   7.533  0.00  0.00    +0.019 C 
ENDBRANCH  13  15
ENDBRANCH  12  13
ENDBRANCH   2  12
TORSDOF 6
ENDMDL
MODEL 9
REMARK VINA RESULT:      -7.7      2.441      6.372
REMARK  Name = *****
REMARK                            x       y       z     vdW  Elec       q    Type
REMARK                         _______ _______ _______ _____ _____    ______ ____
ROOT
ATOM      1  C   LIG    1       22.910 -23.726   6.696  0.00  0.00    +0.053 C 
ATOM      2  C   LIG    1       24.436 -23.732   6.662  0.00  0.00    +0.187 C 
ENDROOT
BRANCH   2   3
ATOM      3  O   LIG    1       24.888 -22.367   6.771  0.00  0.00    -0.457 OA
BRANCH   3   4
ATOM      4  C   LIG    1       23.947 -21.419   7.012  0.00  0.00    +0.340 C 
ATOM      5  O   LIG    1       23.306 -21.264   8.032  0.00  0.00    -0.245 OA
BRANCH   4   6
ATOM      6  C   LIG    1       23.838 -20.543   5.820  0.00  0.00    +0.059 A 
ATOM      7  C   LIG    1       24.928 -20.428   4.948  0.00  0.00    +0.015 A 
ATOM      8  C   LIG    1       24.833 -19.609   3.821  0.00  0.00    +0.001 A 
ATOM      9  C   LIG    1       23.658 -18.896   3.571  0.00  0.00    +0.000 A 
ATOM     10  C   LIG    1       22.578 -18.996   4.447  0.00  0.00    +0.001 A 
ATOM     11  C   LIG    1       22.666 -19.817   5.570  0.00  0.00    +0.015 A 
ENDBRANCH   4   6
ENDBRANCH   3   4
ENDBRANCH   2   3
BRANCH   2  12
ATOM     12  C   LIG    1       24.994 -24.355   5.365  0.00  0.00    +0.125 C 
BRANCH  12  13
ATOM     13  N   LIG    1       24.445 -25.691   5.087  0.00  0.00    -0.310 NA
ATOM     14  H   LIG    1       23.837 -25.624   4.269  0.00  0.00    +0.122 HD
BRANCH  13  15
ATOM     15  C   LIG    1       25.470 -26.723   4.860  0.00  0.00    +0.054 C 
ATOM     16  C   LIG    1       26.581 -26.721   5.927  0.00  0.00    +0.019 C 
ATOM     17  C   LIG    1       26.034 -27.032   7.320  0.00  0.00    +0.002 C 
ATOM     18  C   LIG    1       25.329 -28.385   7.343  0.00  0.00    +0.000 C 
ATOM     19  C   LIG    1       24.267 -28.509   6.251  0.00  0.00    +0.002 C 
ATOM     20  C   LIG    1       24.801 -28.113   4.871  0.00  0.00    +0.019 C 
ENDBRANCH  13  15
ENDBRANCH  12  13
ENDBRANCH   2  12
TORSDOF 6
ENDMDL
