MODEL 1
REMARK VINA RESULT:      -5.1      0.000      0.000
REMARK  Name = *****
REMARK                            x       y       z     vdW  Elec       q    Type
REMARK                         _______ _______ _______ _____ _____    ______ ____
ROOT
ATOM      1  C   LIG    1       30.386 -20.860   8.252  0.00  0.00    +0.128 C 
ENDROOT
BRANCH   1   2
ATOM      2  C   LIG    1       31.105 -21.852   9.143  0.00  0.00    +0.305 C 
ATOM      3  O   LIG    1       30.779 -22.083  10.294  0.00  0.00    -0.251 OA
BRANCH   2   4
ATOM      4  O   LIG    1       32.145 -22.466   8.535  0.00  0.00    -0.481 OA
ATOM      5  H   LIG    1       32.331 -22.140   7.625  0.00  0.00    +0.295 HD
ENDBRANCH   2   4
ENDBRANCH   1   2
BRANCH   1   6
ATOM      6  C   LIG    1       31.221 -19.626   7.937  0.00  0.00    +0.085 C 
BRANCH   6   8
ATOM      7  C   LIG    1       30.070 -17.715   9.228  0.00  0.00    +0.086 C 
ATOM      8  C   LIG    1       31.269 -18.625   9.075  0.00  0.00    +0.131 C 
ATOM      9  O   LIG    1       32.250 -18.554   9.820  0.00  0.00    -0.298 OA
ENDBRANCH   6   8
ENDBRANCH   1   6
TORSDOF 4
ENDMDL
MODEL 2
REMARK VINA RESULT:      -5.0      1.793      2.070
REMARK  Name = *****
REMARK                            x       y       z     vdW  Elec       q    Type
REMARK                         _______ _______ _______ _____ _____    ______ ____
ROOT
ATOM      1  C   LIG    1       30.095 -21.300   8.147  0.00  0.00    +0.128 C 
ENDROOT
BRANCH   1   2
ATOM      2  C   LIG    1       31.043 -21.600   9.290  0.00  0.00    +0.305 C 
ATOM      3  O   LIG    1       30.808 -22.417  10.163  0.00  0.00    -0.251 OA
BRANCH   2   4
ATOM      4  O   LIG    1       32.185 -20.878   9.246  0.00  0.00    -0.481 OA
ATOM      5  H   LIG    1       32.068 -19.924   9.457  0.00  0.00    +0.295 HD
ENDBRANCH   2   4
ENDBRANCH   1   2
BRANCH   1   6
ATOM      6  C   LIG    1       29.779 -19.816   8.008  0.00  0.00    +0.085 C 
BRANCH   6   8
ATOM      7  C   LIG    1       29.600 -18.483   5.810  0.00  0.00    +0.086 C 
ATOM      8  C   LIG    1       30.482 -19.157   6.838  0.00  0.00    +0.131 C 
ATOM      9  O   LIG    1       31.710 -19.191   6.731  0.00  0.00    -0.298 OA
ENDBRANCH   6   8
ENDBRANCH   1   6
TORSDOF 4
ENDMDL
MODEL 3
REMARK VINA RESULT:      -5.0      2.440      3.897
REMARK  Name = *****
REMARK                            x       y       z     vdW  Elec       q    Type
REMARK                         _______ _______ _______ _____ _____    ______ ____
ROOT
ATOM      1  C   LIG    1       30.457 -17.328   9.107  0.00  0.00    +0.128 C 
ENDROOT
BRANCH   1   2
ATOM      2  C   LIG    1       31.923 -17.194   9.462  0.00  0.00    +0.305 C 
ATOM      3  O   LIG    1       32.468 -17.846  10.336  0.00  0.00    -0.251 OA
BRANCH   2   4
ATOM      4  O   LIG    1       32.578 -16.284   8.707  0.00  0.00    -0.481 OA
ATOM      5  H   LIG    1       32.119 -15.416   8.633  0.00  0.00    +0.295 HD
ENDBRANCH   2   4
ENDBRANCH   1   2
BRANCH   1   6
ATOM      6  C   LIG    1       30.085 -18.723   8.621  0.00  0.00    +0.085 C 
BRANCH   6   8
ATOM      7  C   LIG    1       29.706 -18.638   6.073  0.00  0.00    +0.086 C 
ATOM      8  C   LIG    1       30.599 -19.033   7.229  0.00  0.00    +0.131 C 
ATOM      9  O   LIG    1       31.685 -19.594   7.061  0.00  0.00    -0.298 OA
ENDBRANCH   6   8
ENDBRANCH   1   6
TORSDOF 4
ENDMDL
MODEL 4
REMARK VINA RESULT:      -4.9      1.766      3.799
REMARK  Name = *****
REMARK                            x       y       z     vdW  Elec       q    Type
REMARK                         _______ _______ _______ _____ _____    ______ ____
ROOT
ATOM      1  C   LIG    1       30.391 -17.363   9.280  0.00  0.00    +0.128 C 
ENDROOT
BRANCH   1   2
ATOM      2  C   LIG    1       30.486 -17.281  10.790  0.00  0.00    +0.305 C 
ATOM      3  O   LIG    1       30.378 -16.242  11.417  0.00  0.00    -0.251 OA
BRANCH   2   4
ATOM      4  O   LIG    1       30.695 -18.479  11.381  0.00  0.00    -0.481 OA
ATOM      5  H   LIG    1       31.109 -18.423  12.272  0.00  0.00    +0.295 HD
ENDBRANCH   2   4
ENDBRANCH   1   2
BRANCH   1   6
ATOM      6  C   LIG    1       31.584 -18.064   8.644  0.00  0.00    +0.085 C 
BRANCH   6   8
ATOM      7  C   LIG    1       30.412 -20.019   7.443  0.00  0.00    +0.086 C 
ATOM      8  C   LIG    1       31.396 -19.561   8.496  0.00  0.00    +0.131 C 
ATOM      9  O   LIG    1       32.007 -20.354   9.217  0.00  0.00    -0.298 OA
ENDBRANCH   6   8
ENDBRANCH   1   6
TORSDOF 4
ENDMDL
MODEL 5
REMARK VINA RESULT:      -4.8      1.978      2.951
REMARK  Name = *****
REMARK                            x       y       z     vdW  Elec       q    Type
REMARK                         _______ _______ _______ _____ _____    ______ ____
ROOT
ATOM      1  C   LIG    1       30.226 -18.450   8.660  0.00  0.00    +0.128 C 
ENDROOT
BRANCH   1   2
ATOM      2  C   LIG    1       31.432 -19.216   8.158  0.00  0.00    +0.305 C 
ATOM      3  O   LIG    1       31.816 -19.187   7.002  0.00  0.00    -0.251 OA
BRANCH   2   4
ATOM      4  O   LIG    1       32.053 -19.933   9.121  0.00  0.00    -0.481 OA
ATOM      5  H   LIG    1       31.554 -20.727   9.419  0.00  0.00    +0.295 HD
ENDBRANCH   2   4
ENDBRANCH   1   2
BRANCH   1   6
ATOM      6  C   LIG    1       30.597 -17.192   9.434  0.00  0.00    +0.085 C 
BRANCH   6   8
ATOM      7  C   LIG    1       31.413 -16.285  11.704  0.00  0.00    +0.086 C 
ATOM      8  C   LIG    1       30.858 -17.444  10.906  0.00  0.00    +0.131 C 
ATOM      9  O   LIG    1       30.640 -18.548  11.412  0.00  0.00    -0.298 OA
ENDBRANCH   6   8
ENDBRANCH   1   6
TORSDOF 4
ENDMDL
MODEL 6
REMARK VINA RESULT:      -4.8      2.035      3.615
REMARK  Name = *****
REMARK                            x       y       z     vdW  Elec       q    Type
REMARK                         _______ _______ _______ _____ _____    ______ ____
ROOT
ATOM      1  C   LIG    1       30.141 -18.335   8.382  0.00  0.00    +0.128 C 
ENDROOT
BRANCH   1   2
ATOM      2  C   LIG    1       31.621 -18.480   8.672  0.00  0.00    +0.305 C 
ATOM      3  O   LIG    1       32.111 -19.462   9.202  0.00  0.00    -0.251 OA
BRANCH   2   4
ATOM      4  O   LIG    1       32.353 -17.414   8.278  0.00  0.00    -0.481 OA
ATOM      5  H   LIG    1       33.240 -17.644   7.918  0.00  0.00    +0.295 HD
ENDBRANCH   2   4
ENDBRANCH   1   2
BRANCH   1   6
ATOM      6  C   LIG    1       29.669 -19.213   7.231  0.00  0.00    +0.085 C 
BRANCH   6   8
ATOM      7  C   LIG    1       27.375 -20.387   7.231  0.00  0.00    +0.086 C 
ATOM      8  C   LIG    1       28.820 -20.387   7.678  0.00  0.00    +0.131 C 
ATOM      9  O   LIG    1       29.292 -21.282   8.384  0.00  0.00    -0.298 OA
ENDBRANCH   6   8
ENDBRANCH   1   6
TORSDOF 4
ENDMDL
MODEL 7
REMARK VINA RESULT:      -4.7      1.840      2.229
REMARK  Name = *****
REMARK                            x       y       z     vdW  Elec       q    Type
REMARK                         _______ _______ _______ _____ _____    ______ ____
ROOT
ATOM      1  C   LIG    1       31.234 -18.851   8.271  0.00  0.00    +0.128 C 
ENDROOT
BRANCH   1   2
ATOM      2  C   LIG    1       31.105 -20.276   8.768  0.00  0.00    +0.305 C 
ATOM      3  O   LIG    1       30.089 -20.939   8.659  0.00  0.00    -0.251 OA
BRANCH   2   4
ATOM      4  O   LIG    1       32.235 -20.750   9.340  0.00  0.00    -0.481 OA
ATOM      5  H   LIG    1       33.037 -20.675   8.773  0.00  0.00    +0.295 HD
ENDBRANCH   2   4
ENDBRANCH   1   2
BRANCH   1   6
ATOM      6  C   LIG    1       30.205 -17.910   8.884  0.00  0.00    +0.085 C 
BRANCH   6   8
ATOM      7  C   LIG    1       32.176 -16.351   9.456  0.00  0.00    +0.086 C 
ATOM      8  C   LIG    1       30.811 -16.887   9.825  0.00  0.00    +0.131 C 
ATOM      9  O   LIG    1       30.217 -16.531  10.846  0.00  0.00    -0.298 OA
ENDBRANCH   6   8
ENDBRANCH   1   6
TORSDOF 4
ENDMDL
MODEL 8
REMARK VINA RESULT:      -4.6      5.990      6.852
REMARK  Name = *****
REMARK                            x       y       z     vdW  Elec       q    Type
REMARK                         _______ _______ _______ _____ _____    ______ ____
ROOT
ATOM      1  C   LIG    1       26.023 -21.521   7.266  0.00  0.00    +0.128 C 
ENDROOT
BRANCH   1   2
ATOM      2  C   LIG    1       26.633 -20.643   8.339  0.00  0.00    +0.305 C 
ATOM      3  O   LIG    1       27.722 -20.105   8.232  0.00  0.00    -0.251 OA
BRANCH   2   4
ATOM      4  O   LIG    1       25.848 -20.503   9.431  0.00  0.00    -0.481 OA
ATOM      5  H   LIG    1       26.330 -20.571  10.286  0.00  0.00    +0.295 HD
ENDBRANCH   2   4
ENDBRANCH   1   2
BRANCH   1   6
ATOM      6  C   LIG    1       25.165 -20.745   6.276  0.00  0.00    +0.085 C 
BRANCH   6   8
ATOM      7  C   LIG    1       22.762 -20.046   5.662  0.00  0.00    +0.086 C 
ATOM      8  C   LIG    1       23.697 -20.706   6.651  0.00  0.00    +0.131 C 
ATOM      9  O   LIG    1       23.300 -21.175   7.721  0.00  0.00    -0.298 OA
ENDBRANCH   6   8
ENDBRANCH   1   6
TORSDOF 4
ENDMDL
MODEL 9
REMARK VINA RESULT:      -4.6      7.784      8.405
REMARK  Name = *****
REMARK                            x       y       z     vdW  Elec       q    Type
REMARK                         _______ _______ _______ _____ _____    ______ ____
ROOT
ATOM      1  C   LIG    1       24.362 -23.096   6.989  0.00  0.00    +0.128 C 
ENDROOT
BRANCH   1   2
ATOM      2  C   LIG    1       23.366 -24.187   6.656  0.00  0.00    +0.305 C 
ATOM      3  O   LIG    1       23.680 -25.346   6.446  0.00  0.00    -0.251 OA
BRANCH   2   4
ATOM      4  O   LIG    1       22.086 -23.754   6.620  0.00  0.00    -0.481 OA
ATOM      5  H   LIG    1       21.416 -24.458   6.776  0.00  0.00    +0.295 HD
ENDBRANCH   2   4
ENDBRANCH   1   2
BRANCH   1   6
ATOM      6  C   LIG    1       23.704 -21.753   7.274  0.00  0.00    +0.085 C 
BRANCH   6   8
ATOM      7  C   LIG    1       22.783 -20.017   5.607  0.00  0.00    +0.086 C 
ATOM      8  C   LIG    1       23.985 -20.707   6.213  0.00  0.00    +0.131 C 
ATOM      9  O   LIG    1       25.139 -20.453   5.859  0.00  0.00    -0.298 OA
ENDBRANCH   6   8
ENDBRANCH   1   6
TORSDOF 4
ENDMDL
