MODEL 1
REMARK VINA RESULT:      -6.7      0.000      0.000
REMARK  Name = *****
REMARK                            x       y       z     vdW  Elec       q    Type
REMARK                         _______ _______ _______ _____ _____    ______ ____
ROOT
ATOM      1  C   LIG    1       24.064 -33.825   7.897  0.00  0.00    +0.073 C 
ATOM      2  C   LIG    1       24.009 -32.850   9.070  0.00  0.00    +0.166 C 
ATOM      3  O   LIG    1       25.279 -32.205   9.216  0.00  0.00    -0.332 OA
ATOM      4  C   LIG    1       25.160 -30.908   8.628  0.00  0.00    +0.164 C 
ATOM      5  C   LIG    1       23.648 -30.621   8.655  0.00  0.00    +0.162 C 
ATOM      6  C   LIG    1       23.379 -29.733   9.887  0.00  0.00    +0.039 C 
ATOM      7  C   LIG    1       24.690 -29.787  10.673  0.00  0.00    +0.006 C 
ATOM      8  C   LIG    1       24.954 -28.725  11.755  0.00  0.00    +0.019 C 
ATOM      9  C   LIG    1       26.347 -28.953  12.477  0.00  0.00    +0.077 C 
ATOM     10  C   LIG    1       27.467 -29.163  11.373  0.00  0.00    +0.103 C 
ATOM     11 CL   LIG    1       29.070 -29.699  11.992  0.00  0.00    -0.120 Cl
ATOM     12  C   LIG    1       27.096 -30.163  10.245  0.00  0.00    +0.031 C 
ATOM     13 CL   LIG    1       26.219 -30.536  13.424  0.00  0.00    -0.115 Cl
ATOM     14  C   LIG    1       26.602 -27.753  13.532  0.00  0.00    +0.031 C 
ATOM     15  C   LIG    1       25.350 -27.498  14.436  0.00  0.00    -0.021 C 
ATOM     16  C   LIG    1       25.432 -26.521  15.373  0.00  0.00    +0.054 C 
ATOM     17  C   LIG    1       25.846 -25.196  14.767  0.00  0.00    +0.179 C 
ATOM     18  C   LIG    1       26.536 -25.229  13.440  0.00  0.00    +0.047 C 
ATOM     19  O   LIG    1       25.699 -24.151  15.379  0.00  0.00    -0.288 OA
ATOM     20  C   LIG    1       23.991 -27.548  13.752  0.00  0.00    +0.194 C 
ATOM     21  F   LIG    1       23.783 -26.388  13.059  0.00  0.00    -0.241 F 
ATOM     22  C   LIG    1       27.839 -28.024  14.444  0.00  0.00    +0.022 C 
ATOM     23  C   LIG    1       26.900 -26.395  12.874  0.00  0.00    -0.010 C 
ATOM     24  C   LIG    1       23.797 -28.678  12.764  0.00  0.00    +0.047 C 
ATOM     25  C   LIG    1       25.765 -29.816   9.563  0.00  0.00    +0.011 C 
ATOM     26  C   LIG    1       25.903 -28.472   8.800  0.00  0.00    +0.015 C 
ATOM     27  O   LIG    1       22.997 -31.880   8.816  0.00  0.00    -0.343 OA
ATOM     28  C   LIG    1       23.681 -33.587  10.362  0.00  0.00    +0.073 C 
ENDROOT
BRANCH   4  29
ATOM     29  C   LIG    1       25.735 -30.918   7.204  0.00  0.00    +0.193 C 
ATOM     30  O   LIG    1       26.717 -31.600   6.890  0.00  0.00    -0.292 OA
BRANCH  29  31
ATOM     31  C   LIG    1       24.991 -30.114   6.138  0.00  0.00    +0.233 C 
BRANCH  31  32
ATOM     32  O   LIG    1       25.886 -29.315   5.384  0.00  0.00    -0.387 OA
ATOM     33  H   LIG    1       26.447 -29.931   4.874  0.00  0.00    +0.210 HD
ENDBRANCH  31  32
ENDBRANCH  29  31
ENDBRANCH   4  29
TORSDOF 3
ENDMDL
MODEL 2
REMARK VINA RESULT:      -5.8      2.121      3.198
REMARK  Name = *****
REMARK                            x       y       z     vdW  Elec       q    Type
REMARK                         _______ _______ _______ _____ _____    ______ ____
ROOT
ATOM      1  C   LIG    1       20.269 -33.825  11.623  0.00  0.00    +0.073 C 
ATOM      2  C   LIG    1       20.725 -32.522  12.275  0.00  0.00    +0.166 C 
ATOM      3  O   LIG    1       22.154 -32.447  12.244  0.00  0.00    -0.332 OA
ATOM      4  C   LIG    1       22.505 -31.582  11.161  0.00  0.00    +0.164 C 
ATOM      5  C   LIG    1       21.244 -30.728  10.940  0.00  0.00    +0.162 C 
ATOM      6  C   LIG    1       21.476 -29.385  11.663  0.00  0.00    +0.039 C 
ATOM      7  C   LIG    1       22.728 -29.632  12.506  0.00  0.00    +0.006 C 
ATOM      8  C   LIG    1       23.500 -28.424  13.064  0.00  0.00    +0.019 C 
ATOM      9  C   LIG    1       24.751 -28.873  13.929  0.00  0.00    +0.077 C 
ATOM     10  C   LIG    1       25.578 -29.952  13.110  0.00  0.00    +0.103 C 
ATOM     11 CL   LIG    1       26.887 -30.780  14.028  0.00  0.00    -0.120 Cl
ATOM     12  C   LIG    1       24.728 -31.085  12.475  0.00  0.00    +0.031 C 
ATOM     13 CL   LIG    1       24.098 -29.723  15.435  0.00  0.00    -0.115 Cl
ATOM     14  C   LIG    1       25.568 -27.560  14.406  0.00  0.00    +0.031 C 
ATOM     15  C   LIG    1       24.618 -26.474  15.013  0.00  0.00    -0.021 C 
ATOM     16  C   LIG    1       25.177 -25.322  15.461  0.00  0.00    +0.054 C 
ATOM     17  C   LIG    1       26.022 -24.657  14.394  0.00  0.00    +0.179 C 
ATOM     18  C   LIG    1       26.505 -25.510  13.264  0.00  0.00    +0.047 C 
ATOM     19  O   LIG    1       26.366 -23.491  14.500  0.00  0.00    -0.288 OA
ATOM     20  C   LIG    1       23.292 -26.250  14.302  0.00  0.00    +0.194 C 
ATOM     21  F   LIG    1       23.495 -25.505  13.174  0.00  0.00    -0.241 F 
ATOM     22  C   LIG    1       26.678 -27.903  15.446  0.00  0.00    +0.022 C 
ATOM     23  C   LIG    1       26.315 -26.843  13.268  0.00  0.00    -0.010 C 
ATOM     24  C   LIG    1       22.566 -27.503  13.862  0.00  0.00    +0.047 C 
ATOM     25  C   LIG    1       23.585 -30.547  11.603  0.00  0.00    +0.011 C 
ATOM     26  C   LIG    1       24.171 -29.821  10.363  0.00  0.00    +0.015 C 
ATOM     27  O   LIG    1       20.164 -31.427  11.556  0.00  0.00    -0.343 OA
ATOM     28  C   LIG    1       20.261 -32.458  13.724  0.00  0.00    +0.073 C 
ENDROOT
BRANCH   4  29
ATOM     29  C   LIG    1       22.883 -32.410   9.924  0.00  0.00    +0.193 C 
ATOM     30  O   LIG    1       22.378 -32.212   8.813  0.00  0.00    -0.292 OA
BRANCH  29  31
ATOM     31  C   LIG    1       23.994 -33.447  10.083  0.00  0.00    +0.233 C 
BRANCH  31  32
ATOM     32  O   LIG    1       25.100 -33.142   9.253  0.00  0.00    -0.387 OA
ATOM     33  H   LIG    1       24.743 -32.673   8.474  0.00  0.00    +0.210 HD
ENDBRANCH  31  32
ENDBRANCH  29  31
ENDBRANCH   4  29
TORSDOF 3
ENDMDL
MODEL 3
REMARK VINA RESULT:      -5.2      3.241      7.588
REMARK  Name = *****
REMARK                            x       y       z     vdW  Elec       q    Type
REMARK                         _______ _______ _______ _____ _____    ______ ____
ROOT
ATOM      1  C   LIG    1       23.660 -29.063  14.632  0.00  0.00    +0.073 C 
ATOM      2  C   LIG    1       23.940 -29.157  13.134  0.00  0.00    +0.166 C 
ATOM      3  O   LIG    1       24.490 -30.443  12.830  0.00  0.00    -0.332 OA
ATOM      4  C   LIG    1       23.430 -31.237  12.294  0.00  0.00    +0.164 C 
ATOM      5  C   LIG    1       22.413 -30.204  11.776  0.00  0.00    +0.162 C 
ATOM      6  C   LIG    1       22.644 -30.065  10.257  0.00  0.00    +0.039 C 
ATOM      7  C   LIG    1       23.964 -30.800  10.016  0.00  0.00    +0.006 C 
ATOM      8  C   LIG    1       24.332 -31.219   8.583  0.00  0.00    +0.019 C 
ATOM      9  C   LIG    1       25.741 -31.945   8.525  0.00  0.00    +0.077 C 
ATOM     10  C   LIG    1       25.784 -33.067   9.646  0.00  0.00    +0.103 C 
ATOM     11 CL   LIG    1       27.394 -33.825   9.916  0.00  0.00    -0.120 Cl
ATOM     12  C   LIG    1       25.292 -32.613  11.046  0.00  0.00    +0.031 C 
ATOM     13 CL   LIG    1       27.022 -30.688   8.969  0.00  0.00    -0.115 Cl
ATOM     14  C   LIG    1       26.023 -32.439   7.010  0.00  0.00    +0.031 C 
ATOM     15  C   LIG    1       25.748 -31.304   5.968  0.00  0.00    -0.021 C 
ATOM     16  C   LIG    1       25.954 -31.583   4.656  0.00  0.00    +0.054 C 
ATOM     17  C   LIG    1       25.185 -32.813   4.218  0.00  0.00    +0.179 C 
ATOM     18  C   LIG    1       24.744 -33.767   5.282  0.00  0.00    +0.047 C 
ATOM     19  O   LIG    1       25.011 -33.057   3.036  0.00  0.00    -0.288 OA
ATOM     20  C   LIG    1       24.515 -30.443   6.203  0.00  0.00    +0.194 C 
ATOM     21  F   LIG    1       23.397 -31.128   5.817  0.00  0.00    -0.241 F 
ATOM     22  C   LIG    1       27.481 -32.958   6.822  0.00  0.00    +0.022 C 
ATOM     23  C   LIG    1       25.136 -33.613   6.561  0.00  0.00    -0.010 C 
ATOM     24  C   LIG    1       24.281 -30.012   7.634  0.00  0.00    +0.047 C 
ATOM     25  C   LIG    1       23.892 -31.985  11.005  0.00  0.00    +0.011 C 
ATOM     26  C   LIG    1       22.848 -33.062  10.607  0.00  0.00    +0.015 C 
ATOM     27  O   LIG    1       22.718 -28.971  12.425  0.00  0.00    -0.343 OA
ATOM     28  C   LIG    1       24.933 -28.084  12.707  0.00  0.00    +0.073 C 
ENDROOT
BRANCH   4  29
ATOM     29  C   LIG    1       22.846 -32.147  13.385  0.00  0.00    +0.193 C 
ATOM     30  O   LIG    1       21.636 -32.194  13.631  0.00  0.00    -0.292 OA
BRANCH  29  31
ATOM     31  C   LIG    1       23.811 -33.082  14.113  0.00  0.00    +0.233 C 
BRANCH  31  32
ATOM     32  O   LIG    1       24.782 -32.349  14.838  0.00  0.00    -0.387 OA
ATOM     33  H   LIG    1       25.196 -31.732  14.204  0.00  0.00    +0.210 HD
ENDBRANCH  31  32
ENDBRANCH  29  31
ENDBRANCH   4  29
TORSDOF 3
ENDMDL
MODEL 4
REMARK VINA RESULT:      -5.0      4.366      6.960
REMARK  Name = *****
REMARK                            x       y       z     vdW  Elec       q    Type
REMARK                         _______ _______ _______ _____ _____    ______ ____
ROOT
ATOM      1  C   LIG    1       28.044 -29.633  13.883  0.00  0.00    +0.073 C 
ATOM      2  C   LIG    1       26.678 -30.303  14.012  0.00  0.00    +0.166 C 
ATOM      3  O   LIG    1       25.669 -29.439  13.479  0.00  0.00    -0.332 OA
ATOM      4  C   LIG    1       25.356 -29.919  12.169  0.00  0.00    +0.164 C 
ATOM      5  C   LIG    1       25.794 -31.394  12.196  0.00  0.00    +0.162 C 
ATOM      6  C   LIG    1       24.529 -32.236  12.456  0.00  0.00    +0.039 C 
ATOM      7  C   LIG    1       23.473 -31.203  12.855  0.00  0.00    +0.006 C 
ATOM      8  C   LIG    1       21.988 -31.601  12.814  0.00  0.00    +0.019 C 
ATOM      9  C   LIG    1       21.047 -30.414  13.281  0.00  0.00    +0.077 C 
ATOM     10  C   LIG    1       21.469 -29.093  12.510  0.00  0.00    +0.103 C 
ATOM     11 CL   LIG    1       20.695 -27.577  13.095  0.00  0.00    -0.120 Cl
ATOM     12  C   LIG    1       22.995 -28.805  12.490  0.00  0.00    +0.031 C 
ATOM     13 CL   LIG    1       21.384 -30.122  15.075  0.00  0.00    -0.115 Cl
ATOM     14  C   LIG    1       19.501 -30.867  13.125  0.00  0.00    +0.031 C 
ATOM     15  C   LIG    1       19.245 -32.281  13.744  0.00  0.00    -0.021 C 
ATOM     16  C   LIG    1       17.985 -32.780  13.689  0.00  0.00    +0.054 C 
ATOM     17  C   LIG    1       17.447 -32.787  12.272  0.00  0.00    +0.179 C 
ATOM     18  C   LIG    1       18.097 -31.874  11.282  0.00  0.00    +0.047 C 
ATOM     19  O   LIG    1       16.466 -33.449  11.976  0.00  0.00    -0.288 OA
ATOM     20  C   LIG    1       20.311 -33.339  13.496  0.00  0.00    +0.194 C 
ATOM     21  F   LIG    1       20.189 -33.825  12.224  0.00  0.00    -0.241 F 
ATOM     22  C   LIG    1       18.520 -29.843  13.775  0.00  0.00    +0.022 C 
ATOM     23  C   LIG    1       19.028 -30.980  11.666  0.00  0.00    -0.010 C 
ATOM     24  C   LIG    1       21.743 -32.872  13.640  0.00  0.00    +0.047 C 
ATOM     25  C   LIG    1       23.812 -29.991  11.958  0.00  0.00    +0.011 C 
ATOM     26  C   LIG    1       23.486 -30.220  10.458  0.00  0.00    +0.015 C 
ATOM     27  O   LIG    1       26.699 -31.531  13.290  0.00  0.00    -0.343 OA
ATOM     28  C   LIG    1       26.359 -30.588  15.474  0.00  0.00    +0.073 C 
ENDROOT
BRANCH   4  29
ATOM     29  C   LIG    1       26.106 -29.097  11.111  0.00  0.00    +0.193 C 
ATOM     30  O   LIG    1       26.223 -27.869  11.185  0.00  0.00    -0.292 OA
BRANCH  29  31
ATOM     31  C   LIG    1       26.800 -29.863   9.985  0.00  0.00    +0.233 C 
BRANCH  31  32
ATOM     32  O   LIG    1       27.162 -28.996   8.925  0.00  0.00    -0.387 OA
ATOM     33  H   LIG    1       27.903 -29.425   8.455  0.00  0.00    +0.210 HD
ENDBRANCH  31  32
ENDBRANCH  29  31
ENDBRANCH   4  29
TORSDOF 3
ENDMDL
MODEL 5
REMARK VINA RESULT:      -5.0      3.321      4.693
REMARK  Name = *****
REMARK                            x       y       z     vdW  Elec       q    Type
REMARK                         _______ _______ _______ _____ _____    ______ ____
ROOT
ATOM      1  C   LIG    1       18.311 -33.037  13.593  0.00  0.00    +0.073 C 
ATOM      2  C   LIG    1       19.289 -31.917  13.939  0.00  0.00    +0.166 C 
ATOM      3  O   LIG    1       20.582 -32.232  13.409  0.00  0.00    -0.332 OA
ATOM      4  C   LIG    1       20.737 -31.477  12.205  0.00  0.00    +0.164 C 
ATOM      5  C   LIG    1       19.747 -30.309  12.365  0.00  0.00    +0.162 C 
ATOM      6  C   LIG    1       20.560 -29.092  12.851  0.00  0.00    +0.039 C 
ATOM      7  C   LIG    1       21.920 -29.683  13.227  0.00  0.00    +0.006 C 
ATOM      8  C   LIG    1       23.125 -28.739  13.384  0.00  0.00    +0.019 C 
ATOM      9  C   LIG    1       24.439 -29.524  13.797  0.00  0.00    +0.077 C 
ATOM     10  C   LIG    1       24.612 -30.773  12.833  0.00  0.00    +0.103 C 
ATOM     11 CL   LIG    1       25.898 -31.940  13.306  0.00  0.00    -0.120 Cl
ATOM     12  C   LIG    1       23.329 -31.623  12.626  0.00  0.00    +0.031 C 
ATOM     13 CL   LIG    1       24.166 -30.190  15.500  0.00  0.00    -0.115 Cl
ATOM     14  C   LIG    1       25.682 -28.490  13.853  0.00  0.00    +0.031 C 
ATOM     15  C   LIG    1       25.326 -27.197  14.660  0.00  0.00    -0.021 C 
ATOM     16  C   LIG    1       26.285 -26.247  14.792  0.00  0.00    +0.054 C 
ATOM     17  C   LIG    1       26.838 -25.819  13.449  0.00  0.00    +0.179 C 
ATOM     18  C   LIG    1       26.650 -26.752  12.295  0.00  0.00    +0.047 C 
ATOM     19  O   LIG    1       27.487 -24.792  13.335  0.00  0.00    -0.288 OA
ATOM     20  C   LIG    1       23.939 -26.610  14.436  0.00  0.00    +0.194 C 
ATOM     21  F   LIG    1       23.915 -25.930  13.250  0.00  0.00    -0.241 F 
ATOM     22  C   LIG    1       26.959 -29.138  14.471  0.00  0.00    +0.022 C 
ATOM     23  C   LIG    1       26.136 -27.983  12.473  0.00  0.00    -0.010 C 
ATOM     24  C   LIG    1       22.806 -27.612  14.377  0.00  0.00    +0.047 C 
ATOM     25  C   LIG    1       22.133 -30.781  12.161  0.00  0.00    +0.011 C 
ATOM     26  C   LIG    1       22.408 -30.220  10.740  0.00  0.00    +0.015 C 
ATOM     27  O   LIG    1       18.814 -30.700  13.371  0.00  0.00    -0.343 OA
ATOM     28  C   LIG    1       19.403 -31.754  15.448  0.00  0.00    +0.073 C 
ENDROOT
BRANCH   4  29
ATOM     29  C   LIG    1       20.424 -32.356  10.986  0.00  0.00    +0.193 C 
ATOM     30  O   LIG    1       21.054 -33.389  10.733  0.00  0.00    -0.292 OA
BRANCH  29  31
ATOM     31  C   LIG    1       19.225 -31.963  10.123  0.00  0.00    +0.233 C 
BRANCH  31  32
ATOM     32  O   LIG    1       18.637 -33.100   9.518  0.00  0.00    -0.387 OA
ATOM     33  H   LIG    1       18.192 -33.597  10.231  0.00  0.00    +0.210 HD
ENDBRANCH  31  32
ENDBRANCH  29  31
ENDBRANCH   4  29
TORSDOF 3
ENDMDL
MODEL 6
REMARK VINA RESULT:      -4.8      4.060      6.058
REMARK  Name = *****
REMARK                            x       y       z     vdW  Elec       q    Type
REMARK                         _______ _______ _______ _____ _____    ______ ____
ROOT
ATOM      1  C   LIG    1       27.356 -32.262   8.811  0.00  0.00    +0.073 C 
ATOM      2  C   LIG    1       25.858 -32.310   9.104  0.00  0.00    +0.166 C 
ATOM      3  O   LIG    1       25.637 -32.094  10.502  0.00  0.00    -0.332 OA
ATOM      4  C   LIG    1       25.237 -30.731  10.658  0.00  0.00    +0.164 C 
ATOM      5  C   LIG    1       24.691 -30.340   9.273  0.00  0.00    +0.162 C 
ATOM      6  C   LIG    1       23.155 -30.461   9.343  0.00  0.00    +0.039 C 
ATOM      7  C   LIG    1       22.902 -31.191  10.663  0.00  0.00    +0.006 C 
ATOM      8  C   LIG    1       21.491 -31.154  11.276  0.00  0.00    +0.019 C 
ATOM      9  C   LIG    1       21.414 -31.982  12.627  0.00  0.00    +0.077 C 
ATOM     10  C   LIG    1       22.626 -31.554  13.558  0.00  0.00    +0.103 C 
ATOM     11 CL   LIG    1       22.867 -32.569  15.025  0.00  0.00    -0.120 Cl
ATOM     12  C   LIG    1       24.008 -31.501  12.852  0.00  0.00    +0.031 C 
ATOM     13 CL   LIG    1       21.669 -33.761  12.193  0.00  0.00    -0.115 Cl
ATOM     14  C   LIG    1       19.935 -31.825  13.264  0.00  0.00    +0.031 C 
ATOM     15  C   LIG    1       18.815 -32.069  12.198  0.00  0.00    -0.021 C 
ATOM     16  C   LIG    1       17.524 -31.976  12.602  0.00  0.00    +0.054 C 
ATOM     17  C   LIG    1       17.242 -30.650  13.278  0.00  0.00    +0.179 C 
ATOM     18  C   LIG    1       18.410 -29.888  13.819  0.00  0.00    +0.047 C 
ATOM     19  O   LIG    1       16.098 -30.262  13.450  0.00  0.00    -0.288 OA
ATOM     20  C   LIG    1       19.046 -31.477  10.815  0.00  0.00    +0.194 C 
ATOM     21  F   LIG    1       18.789 -30.135  10.842  0.00  0.00    -0.241 F 
ATOM     22  C   LIG    1       19.708 -32.789  14.469  0.00  0.00    +0.022 C 
ATOM     23  C   LIG    1       19.645 -30.425  13.830  0.00  0.00    -0.010 C 
ATOM     24  C   LIG    1       20.445 -31.635  10.261  0.00  0.00    +0.047 C 
ATOM     25  C   LIG    1       23.994 -30.620  11.595  0.00  0.00    +0.011 C 
ATOM     26  C   LIG    1       23.755 -29.140  11.995  0.00  0.00    +0.015 C 
ATOM     27  O   LIG    1       25.209 -31.292   8.346  0.00  0.00    -0.343 OA
ATOM     28  C   LIG    1       25.280 -33.665   8.718  0.00  0.00    +0.073 C 
ENDROOT
BRANCH   4  29
ATOM     29  C   LIG    1       26.436 -29.873  11.086  0.00  0.00    +0.193 C 
ATOM     30  O   LIG    1       27.202 -30.210  11.996  0.00  0.00    -0.292 OA
BRANCH  29  31
ATOM     31  C   LIG    1       26.721 -28.607  10.278  0.00  0.00    +0.233 C 
BRANCH  31  32
ATOM     32  O   LIG    1       27.314 -28.921   9.030  0.00  0.00    -0.387 OA
ATOM     33  H   LIG    1       26.793 -28.453   8.349  0.00  0.00    +0.210 HD
ENDBRANCH  31  32
ENDBRANCH  29  31
ENDBRANCH   4  29
TORSDOF 3
ENDMDL
MODEL 7
REMARK VINA RESULT:      -4.6      3.886      7.205
REMARK  Name = *****
REMARK                            x       y       z     vdW  Elec       q    Type
REMARK                         _______ _______ _______ _____ _____    ______ ____
ROOT
ATOM      1  C   LIG    1       27.442 -25.970  14.129  0.00  0.00    +0.073 C 
ATOM      2  C   LIG    1       26.063 -26.612  14.262  0.00  0.00    +0.166 C 
ATOM      3  O   LIG    1       25.848 -27.514  13.171  0.00  0.00    -0.332 OA
ATOM      4  C   LIG    1       26.088 -28.833  13.666  0.00  0.00    +0.164 C 
ATOM      5  C   LIG    1       25.890 -28.706  15.187  0.00  0.00    +0.162 C 
ATOM      6  C   LIG    1       24.461 -29.198  15.498  0.00  0.00    +0.039 C 
ATOM      7  C   LIG    1       23.802 -29.312  14.122  0.00  0.00    +0.006 C 
ATOM      8  C   LIG    1       22.512 -30.138  13.981  0.00  0.00    +0.019 C 
ATOM      9  C   LIG    1       21.963 -30.123  12.493  0.00  0.00    +0.077 C 
ATOM     10  C   LIG    1       23.158 -30.461  11.505  0.00  0.00    +0.103 C 
ATOM     11 CL   LIG    1       22.799 -30.234   9.756  0.00  0.00    -0.120 Cl
ATOM     12  C   LIG    1       24.470 -29.675  11.770  0.00  0.00    +0.031 C 
ATOM     13 CL   LIG    1       21.430 -28.392  12.124  0.00  0.00    -0.115 Cl
ATOM     14  C   LIG    1       20.664 -31.082  12.396  0.00  0.00    +0.031 C 
ATOM     15  C   LIG    1       19.644 -30.798  13.548  0.00  0.00    -0.021 C 
ATOM     16  C   LIG    1       18.502 -31.529  13.580  0.00  0.00    +0.054 C 
ATOM     17  C   LIG    1       18.789 -33.017  13.569  0.00  0.00    +0.179 C 
ATOM     18  C   LIG    1       20.126 -33.459  13.065  0.00  0.00    +0.047 C 
ATOM     19  O   LIG    1       17.929 -33.825  13.879  0.00  0.00    -0.288 OA
ATOM     20  C   LIG    1       20.226 -30.551  14.932  0.00  0.00    +0.194 C 
ATOM     21  F   LIG    1       20.596 -31.741  15.494  0.00  0.00    -0.241 F 
ATOM     22  C   LIG    1       19.933 -30.945  11.025  0.00  0.00    +0.022 C 
ATOM     23  C   LIG    1       20.985 -32.582  12.512  0.00  0.00    -0.010 C 
ATOM     24  C   LIG    1       21.448 -29.658  14.978  0.00  0.00    +0.047 C 
ATOM     25  C   LIG    1       24.954 -29.809  13.221  0.00  0.00    +0.011 C 
ATOM     26  C   LIG    1       25.370 -31.278  13.501  0.00  0.00    +0.015 C 
ATOM     27  O   LIG    1       26.001 -27.318  15.497  0.00  0.00    -0.343 OA
ATOM     28  C   LIG    1       24.974 -25.547  14.241  0.00  0.00    +0.073 C 
ENDROOT
BRANCH   4  29
ATOM     29  C   LIG    1       27.505 -29.290  13.290  0.00  0.00    +0.193 C 
ATOM     30  O   LIG    1       28.280 -29.794  14.111  0.00  0.00    -0.292 OA
BRANCH  29  31
ATOM     31  C   LIG    1       27.911 -29.188  11.820  0.00  0.00    +0.233 C 
BRANCH  31  32
ATOM     32  O   LIG    1       29.321 -29.144  11.682  0.00  0.00    -0.387 OA
ATOM     33  H   LIG    1       29.521 -28.377  11.111  0.00  0.00    +0.210 HD
ENDBRANCH  31  32
ENDBRANCH  29  31
ENDBRANCH   4  29
TORSDOF 3
ENDMDL
MODEL 8
REMARK VINA RESULT:      -4.5      2.437      3.522
REMARK  Name = *****
REMARK                            x       y       z     vdW  Elec       q    Type
REMARK                         _______ _______ _______ _____ _____    ______ ____
ROOT
ATOM      1  C   LIG    1       27.730 -33.384   5.764  0.00  0.00    +0.073 C 
ATOM      2  C   LIG    1       27.136 -33.190   7.156  0.00  0.00    +0.166 C 
ATOM      3  O   LIG    1       26.996 -31.791   7.426  0.00  0.00    -0.332 OA
ATOM      4  C   LIG    1       25.623 -31.458   7.210  0.00  0.00    +0.164 C 
ATOM      5  C   LIG    1       24.883 -32.799   7.365  0.00  0.00    +0.162 C 
ATOM      6  C   LIG    1       24.314 -32.838   8.798  0.00  0.00    +0.039 C 
ATOM      7  C   LIG    1       24.992 -31.658   9.496  0.00  0.00    +0.006 C 
ATOM      8  C   LIG    1       24.396 -31.129  10.813  0.00  0.00    +0.019 C 
ATOM      9  C   LIG    1       25.243 -29.924  11.400  0.00  0.00    +0.077 C 
ATOM     10  C   LIG    1       25.502 -28.870  10.242  0.00  0.00    +0.103 C 
ATOM     11 CL   LIG    1       26.669 -27.558  10.640  0.00  0.00    -0.120 Cl
ATOM     12  C   LIG    1       25.995 -29.478   8.901  0.00  0.00    +0.031 C 
ATOM     13 CL   LIG    1       26.891 -30.601  11.893  0.00  0.00    -0.115 Cl
ATOM     14  C   LIG    1       24.512 -29.358  12.728  0.00  0.00    +0.031 C 
ATOM     15  C   LIG    1       24.116 -30.511  13.709  0.00  0.00    -0.021 C 
ATOM     16  C   LIG    1       23.501 -30.174  14.870  0.00  0.00    +0.054 C 
ATOM     17  C   LIG    1       22.269 -29.327  14.626  0.00  0.00    +0.179 C 
ATOM     18  C   LIG    1       22.170 -28.612  13.316  0.00  0.00    +0.047 C 
ATOM     19  O   LIG    1       21.433 -29.166  15.500  0.00  0.00    -0.288 OA
ATOM     20  C   LIG    1       23.544 -31.775  13.083  0.00  0.00    +0.194 C 
ATOM     21  F   LIG    1       22.239 -31.565  12.733  0.00  0.00    -0.241 F 
ATOM     22  C   LIG    1       25.397 -28.324  13.491  0.00  0.00    +0.022 C 
ATOM     23  C   LIG    1       23.199 -28.607  12.447  0.00  0.00    -0.010 C 
ATOM     24  C   LIG    1       24.248 -32.264  11.836  0.00  0.00    +0.047 C 
ATOM     25  C   LIG    1       25.071 -30.589   8.383  0.00  0.00    +0.011 C 
ATOM     26  C   LIG    1       23.692 -29.988   8.002  0.00  0.00    +0.015 C 
ATOM     27  O   LIG    1       25.861 -33.825   7.205  0.00  0.00    -0.343 OA
ATOM     28  C   LIG    1       28.042 -33.806   8.215  0.00  0.00    +0.073 C 
ENDROOT
BRANCH   4  29
ATOM     29  C   LIG    1       25.441 -30.838   5.817  0.00  0.00    +0.193 C 
ATOM     30  O   LIG    1       26.024 -29.805   5.469  0.00  0.00    -0.292 OA
BRANCH  29  31
ATOM     31  C   LIG    1       24.572 -31.598   4.816  0.00  0.00    +0.233 C 
BRANCH  31  32
ATOM     32  O   LIG    1       25.302 -31.917   3.645  0.00  0.00    -0.387 OA
ATOM     33  H   LIG    1       25.572 -31.068   3.244  0.00  0.00    +0.210 HD
ENDBRANCH  31  32
ENDBRANCH  29  31
ENDBRANCH   4  29
TORSDOF 3
ENDMDL
MODEL 9
REMARK VINA RESULT:      -4.3      3.308      7.411
REMARK  Name = *****
REMARK                            x       y       z     vdW  Elec       q    Type
REMARK                         _______ _______ _______ _____ _____    ______ ____
ROOT
ATOM      1  C   LIG    1       24.576 -28.787  15.080  0.00  0.00    +0.073 C 
ATOM      2  C   LIG    1       24.296 -29.499  13.759  0.00  0.00    +0.166 C 
ATOM      3  O   LIG    1       25.050 -28.878  12.712  0.00  0.00    -0.332 OA
ATOM      4  C   LIG    1       26.194 -29.701  12.474  0.00  0.00    +0.164 C 
ATOM      5  C   LIG    1       25.779 -31.083  13.008  0.00  0.00    +0.162 C 
ATOM      6  C   LIG    1       25.327 -31.919  11.794  0.00  0.00    +0.039 C 
ATOM      7  C   LIG    1       25.224 -30.897  10.660  0.00  0.00    +0.006 C 
ATOM      8  C   LIG    1       25.181 -31.399   9.207  0.00  0.00    +0.019 C 
ATOM      9  C   LIG    1       25.051 -30.203   8.174  0.00  0.00    +0.077 C 
ATOM     10  C   LIG    1       26.133 -29.099   8.532  0.00  0.00    +0.103 C 
ATOM     11 CL   LIG    1       25.973 -27.544   7.640  0.00  0.00    -0.120 Cl
ATOM     12  C   LIG    1       26.206 -28.716  10.035  0.00  0.00    +0.031 C 
ATOM     13 CL   LIG    1       23.390 -29.435   8.433  0.00  0.00    -0.115 Cl
ATOM     14  C   LIG    1       25.106 -30.792   6.668  0.00  0.00    +0.031 C 
ATOM     15  C   LIG    1       24.145 -32.014   6.487  0.00  0.00    -0.021 C 
ATOM     16  C   LIG    1       24.086 -32.600   5.265  0.00  0.00    +0.054 C 
ATOM     17  C   LIG    1       25.459 -33.011   4.775  0.00  0.00    +0.179 C 
ATOM     18  C   LIG    1       26.644 -32.340   5.394  0.00  0.00    +0.047 C 
ATOM     19  O   LIG    1       25.587 -33.796   3.850  0.00  0.00    -0.288 OA
ATOM     20  C   LIG    1       24.095 -33.020   7.628  0.00  0.00    +0.194 C 
ATOM     21  F   LIG    1       25.199 -33.825   7.579  0.00  0.00    -0.241 F 
ATOM     22  C   LIG    1       24.757 -29.710   5.600  0.00  0.00    +0.022 C 
ATOM     23  C   LIG    1       26.492 -31.312   6.250  0.00  0.00    -0.010 C 
ATOM     24  C   LIG    1       24.057 -32.428   9.020  0.00  0.00    +0.047 C 
ATOM     25  C   LIG    1       26.400 -29.937  10.946  0.00  0.00    +0.011 C 
ATOM     26  C   LIG    1       27.793 -30.568  10.684  0.00  0.00    +0.015 C 
ATOM     27  O   LIG    1       24.675 -30.867  13.885  0.00  0.00    -0.343 OA
ATOM     28  C   LIG    1       22.815 -29.420  13.412  0.00  0.00    +0.073 C 
ENDROOT
BRANCH   4  29
ATOM     29  C   LIG    1       27.419 -29.127  13.202  0.00  0.00    +0.193 C 
ATOM     30  O   LIG    1       27.769 -27.948  13.083  0.00  0.00    -0.292 OA
BRANCH  29  31
ATOM     31  C   LIG    1       28.157 -30.049  14.172  0.00  0.00    +0.233 C 
BRANCH  31  32
ATOM     32  O   LIG    1       29.513 -30.209  13.792  0.00  0.00    -0.387 OA
ATOM     33  H   LIG    1       30.045 -29.719  14.448  0.00  0.00    +0.210 HD
ENDBRANCH  31  32
ENDBRANCH  29  31
ENDBRANCH   4  29
TORSDOF 3
ENDMDL
