MODEL 1
REMARK VINA RESULT:      38.8      0.000      0.000
REMARK  Name = *****
REMARK                            x       y       z     vdW  Elec       q    Type
REMARK                         _______ _______ _______ _____ _____    ______ ____
ROOT
ATOM      1  CA  LIG    1       26.810 -17.463   3.762  0.00  0.00    +0.191 C 
ENDROOT
BRANCH   1   9
ATOM      2  N   LIG    1       21.387 -20.936   4.116  0.00  0.00    -0.292 N 
ATOM      3  C   LIG    1       21.774 -19.950   3.210  0.00  0.00    +0.302 C 
ATOM      4  O   LIG    1       21.003 -19.315   2.504  0.00  0.00    -0.265 OA
ATOM      5  C   LIG    1       23.288 -19.658   3.138  0.00  0.00    +0.309 C 
ATOM      6  O   LIG    1       23.798 -19.367   2.060  0.00  0.00    -0.265 OA
ATOM      7  N   LIG    1       24.005 -19.851   4.319  0.00  0.00    -0.217 N 
ATOM      8  C   LIG    1       25.220 -19.246   4.563  0.00  0.00    +0.310 C 
ATOM      9  N   LIG    1       25.673 -18.379   3.616  0.00  0.00    -0.284 N 
ATOM     10  H   LIG    1       25.491 -18.687   2.661  0.00  0.00    +0.151 HD
ATOM     11  O   LIG    1       25.743 -19.317   5.675  0.00  0.00    -0.252 OA
ATOM     12  C   LIG    1       23.340 -20.471   5.466  0.00  0.00    +0.137 C 
ATOM     13  C   LIG    1       22.381 -21.546   4.987  0.00  0.00    +0.127 C 
BRANCH   2  15
ATOM     14  C   LIG    1       19.496 -21.475   5.621  0.00  0.00    +0.024 C 
ATOM     15  C   LIG    1       19.993 -21.347   4.189  0.00  0.00    +0.105 C 
ENDBRANCH   2  15
ENDBRANCH   1   9
BRANCH   1  16
ATOM     16  C   LIG    1       27.774 -17.917   4.854  0.00  0.00    -0.018 A 
ATOM     17  C   LIG    1       27.826 -19.262   5.238  0.00  0.00    +0.006 A 
ATOM     18  C   LIG    1       28.655 -19.677   6.282  0.00  0.00    +0.000 A 
ATOM     19  C   LIG    1       29.469 -18.760   6.942  0.00  0.00    +0.000 A 
ATOM     20  C   LIG    1       29.455 -17.422   6.557  0.00  0.00    +0.000 A 
ATOM     21  C   LIG    1       28.615 -17.000   5.517  0.00  0.00    +0.006 A 
ENDBRANCH   1  16
BRANCH   1  22
ATOM     22  C   LIG    1       26.540 -15.906   3.758  0.00  0.00    +0.239 C 
ATOM     23  N   LIG    1       25.226 -15.488   3.862  0.00  0.00    -0.300 N 
ATOM     24  H   LIG    1       24.604 -16.132   4.336  0.00  0.00    +0.150 HD
ATOM     25  O   LIG    1       27.441 -15.075   3.621  0.00  0.00    -0.273 OA
BRANCH  23  26
ATOM     26  CA  LIG    1       24.863 -14.060   3.967  0.00  0.00    +0.190 C 
ATOM     27  C   LIG    1       23.355 -13.769   3.904  0.00  0.00    +0.165 C 
ATOM     28  S   LIG    1       22.193 -15.106   4.346  0.00  0.00    -0.127 S 
ATOM     29  C   LIG    1       21.873 -14.512   6.074  0.00  0.00    +0.042 C 
ATOM     30  CA  LIG    1       22.481 -13.091   6.179  0.00  0.00    +0.201 C 
ATOM     31  C   LIG    1       22.560 -15.480   7.051  0.00  0.00    +0.025 C 
ATOM     32  C   LIG    1       20.356 -14.593   6.292  0.00  0.00    +0.025 C 
ATOM     33  N   LIG    1       23.492 -12.958   5.124  0.00  0.00    -0.271 N 
ATOM     34  C   LIG    1       24.764 -13.416   5.370  0.00  0.00    +0.240 C 
ATOM     35  O   LIG    1       25.418 -13.396   6.401  0.00  0.00    -0.273 OA
BRANCH  30  36
ATOM     36  C   LIG    1       21.430 -11.979   6.102  0.00  0.00    +0.327 C 
ATOM     37  O   LIG    1       20.718 -11.664   7.047  0.00  0.00    -0.249 OA
BRANCH  36  38
ATOM     38  OXT LIG    1       21.247 -11.448   4.873  0.00  0.00    -0.479 OA
ATOM     39  HXT LIG    1       21.284 -10.475   4.875  0.00  0.00    +0.295 HD
ENDBRANCH  36  38
ENDBRANCH  30  36
ENDBRANCH  23  26
ENDBRANCH   1  22
TORSDOF 7
ENDMDL
