MODEL 1
REMARK VINA RESULT:      38.1      0.000      0.000
REMARK  Name = *****
REMARK                            x       y       z     vdW  Elec       q    Type
REMARK                         _______ _______ _______ _____ _____    ______ ____
ROOT
ATOM      1  C   LIG    1       21.590 -19.854   3.334  0.00  0.00    +0.033 A 
ATOM      2  C   LIG    1       22.246 -18.589   3.346  0.00  0.00    -0.011 A 
ATOM      3  C   LIG    1       23.750 -18.455   3.454  0.00  0.00    +0.046 C 
ATOM      4  C   LIG    1       24.207 -17.174   4.166  0.00  0.00    +0.031 C 
ATOM      5  C   LIG    1       23.587 -15.955   3.558  0.00  0.00    +0.044 C 
ATOM      6  C   LIG    1       22.183 -16.078   3.064  0.00  0.00    +0.197 C 
ATOM      7  O   LIG    1       21.656 -15.128   2.489  0.00  0.00    -0.287 OA
ATOM      8  C   LIG    1       24.226 -14.768   3.495  0.00  0.00    +0.141 C 
ATOM      9  C   LIG    1       25.611 -14.542   4.059  0.00  0.00    +0.190 C 
ATOM     10  C   LIG    1       26.266 -15.774   4.745  0.00  0.00    +0.061 C 
ATOM     11  C   LIG    1       27.839 -15.742   4.646  0.00  0.00    +0.129 C 
ATOM     12  C   LIG    1       28.392 -14.311   4.546  0.00  0.00    +0.127 C 
ATOM     13  C   LIG    1       27.846 -13.441   3.667  0.00  0.00    +0.121 C 
ATOM     14  C   LIG    1       26.625 -14.006   3.022  0.00  0.00    +0.210 C 
ATOM     15  O   LIG    1       26.564 -14.199   1.812  0.00  0.00    -0.288 OA
ATOM     16  C   LIG    1       25.742 -17.094   4.143  0.00  0.00    +0.018 C 
ATOM     17  C   LIG    1       21.490 -17.386   3.251  0.00  0.00    +0.068 A 
ATOM     18  C   LIG    1       20.092 -17.424   3.283  0.00  0.00    +0.128 A 
ATOM     19  C   LIG    1       19.436 -18.640   3.344  0.00  0.00    +0.048 A 
ATOM     20  C   LIG    1       20.176 -19.824   3.352  0.00  0.00    +0.027 A 
ENDROOT
BRANCH  13  21
ATOM     21  C   LIG    1       28.262 -12.046   3.404  0.00  0.00    +0.248 C 
ATOM     22  O   LIG    1       29.069 -11.447   4.111  0.00  0.00    -0.270 OA
ATOM     23  N   LIG    1       27.739 -11.452   2.299  0.00  0.00    -0.325 N 
ATOM     24  H   LIG    1       27.078 -11.947   1.708  0.00  0.00    +0.145 HD
ATOM     25  H   LIG    1       28.008 -10.506   2.075  0.00  0.00    +0.145 HD
ENDBRANCH  13  21
BRANCH   1  27
ATOM     26  C   LIG    1       22.889 -21.567   4.579  0.00  0.00    +0.129 C 
ATOM     27  N   LIG    1       22.259 -21.091   3.345  0.00  0.00    -0.336 N 
ATOM     28  C   LIG    1       22.931 -21.563   2.130  0.00  0.00    +0.129 C 
ENDBRANCH   1  27
BRANCH  11  29
ATOM     29  N   LIG    1       28.486 -16.674   5.588  0.00  0.00    -0.298 NA
ATOM     30  C   LIG    1       29.191 -17.801   4.992  0.00  0.00    +0.105 C 
ATOM     31  C   LIG    1       29.092 -16.124   6.790  0.00  0.00    +0.105 C 
ENDBRANCH  11  29
BRANCH   8  32
ATOM     32  O   LIG    1       23.621 -13.604   3.036  0.00  0.00    -0.507 OA
ATOM     33  H   LIG    1       22.819 -13.861   2.520  0.00  0.00    +0.292 HD
ENDBRANCH   8  32
BRANCH   9  34
ATOM     34  O   LIG    1       25.437 -13.531   5.076  0.00  0.00    -0.373 OA
ATOM     35  H   LIG    1       25.417 -14.027   5.922  0.00  0.00    +0.211 HD
ENDBRANCH   9  34
BRANCH  12  36
ATOM     36  O   LIG    1       29.475 -13.964   5.336  0.00  0.00    -0.509 OA
ATOM     37  H   LIG    1       29.934 -13.237   4.882  0.00  0.00    +0.292 HD
ENDBRANCH  12  36
BRANCH  18  38
ATOM     38  O   LIG    1       19.353 -16.277   3.308  0.00  0.00    -0.506 OA
ATOM     39  H   LIG    1       18.491 -16.444   3.721  0.00  0.00    +0.292 HD
ENDBRANCH  18  38
TORSDOF 7
ENDMDL
