MODEL 1
REMARK VINA RESULT:      -6.2      0.000      0.000
REMARK  Name = *****
REMARK                            x       y       z     vdW  Elec       q    Type
REMARK                         _______ _______ _______ _____ _____    ______ ____
ROOT
ATOM      1  C   LIG    1       24.578 -30.888  12.506  0.00  0.00    +0.035 C 
ATOM      2  N   LIG    1       24.416 -30.569  11.168  0.00  0.00    -0.342 NA
ATOM      3  C   LIG    1       23.586 -31.563  10.641  0.00  0.00    +0.058 C 
ATOM      4  C   LIG    1       22.616 -31.749  11.689  0.00  0.00    +0.020 C 
ATOM      5  C   LIG    1       23.317 -31.302  12.930  0.00  0.00    +0.066 C 
ENDROOT
BRANCH   3   6
ATOM      6  C   LIG    1       23.962 -32.273   9.389  0.00  0.00    -0.001 C 
ATOM      7  C   LIG    1       25.170 -32.843   9.112  0.00  0.00    +0.013 C 
ATOM      8  C   LIG    1       25.867 -33.407   8.084  0.00  0.00    +0.039 C 
ATOM      9  C   LIG    1       25.155 -33.355   6.980  0.00  0.00    +0.123 C 
ATOM     10  F   LIG    1       25.734 -33.824   5.885  0.00  0.00    -0.205 F 
ATOM     11  C   LIG    1       23.871 -32.784   7.033  0.00  0.00    +0.039 C 
ATOM     12  C   LIG    1       23.275 -32.246   8.219  0.00  0.00    +0.013 C 
ENDBRANCH   3   6
BRANCH   4  13
ATOM     13  C   LIG    1       21.085 -32.530  11.587  0.00  0.00    -0.015 C 
ATOM     14  C   LIG    1       20.283 -31.510  10.326  0.00  0.00    +0.008 C 
ATOM     15  C   LIG    1       18.571 -31.245  10.267  0.00  0.00    +0.001 C 
ATOM     16  C   LIG    1       17.536 -31.706  11.626  0.00  0.00    +0.000 C 
ATOM     17  C   LIG    1       18.079 -32.566  13.023  0.00  0.00    +0.001 C 
ATOM     18  C   LIG    1       19.747 -32.950  13.047  0.00  0.00    +0.008 C 
ENDBRANCH   4  13
BRANCH   5  19
ATOM     19  C   LIG    1       22.971 -31.487  14.375  0.00  0.00    +0.251 C 
ATOM     20  N   LIG    1       22.365 -30.517  15.095  0.00  0.00    -0.281 N 
ATOM     21  H   LIG    1       21.577 -30.809  15.667  0.00  0.00    +0.155 HD
ATOM     22  O   LIG    1       23.146 -32.520  15.008  0.00  0.00    -0.270 OA
BRANCH  20  23
ATOM     23  C   LIG    1       22.194 -29.406  14.394  0.00  0.00    +0.034 C 
ATOM     24  C   LIG    1       20.683 -29.145  13.334  0.00  0.00    +0.023 C 
ATOM     25  C   LIG    1       20.557 -27.383  12.817  0.00  0.00    +0.002 C 
ATOM     26  C   LIG    1       21.968 -26.223  13.537  0.00  0.00    +0.000 C 
ATOM     27  C   LIG    1       23.377 -26.673  14.345  0.00  0.00    +0.002 C 
ATOM     28  C   LIG    1       23.484 -28.224  14.750  0.00  0.00    +0.023 C 
ENDBRANCH  20  23
ENDBRANCH   5  19
BRANCH   1  30
ATOM     29  C   LIG    1       26.308 -29.752  13.997  0.00  0.00    +0.014 C 
ATOM     30  C   LIG    1       25.919 -30.973  13.195  0.00  0.00    +0.030 C 
ATOM     31  C   LIG    1       26.178 -32.261  13.982  0.00  0.00    +0.014 C 
ENDBRANCH   1  30
BRANCH   2  32
ATOM     32  C   LIG    1       24.854 -29.348  10.455  0.00  0.00    +0.124 C 
BRANCH  32  33
ATOM     33  C   LIG    1       26.100 -29.567   9.564  0.00  0.00    +0.053 C 
BRANCH  33  34
ATOM     34  C   LIG    1       25.973 -29.145   8.089  0.00  0.00    +0.119 C 
BRANCH  34  35
ATOM     35  O   LIG    1       26.628 -27.887   7.968  0.00  0.00    -0.392 OA
ATOM     36  H   LIG    1       26.213 -27.385   7.225  0.00  0.00    +0.210 HD
ENDBRANCH  34  35
BRANCH  34  37
ATOM     37  C   LIG    1       24.529 -29.023   7.566  0.00  0.00    +0.063 C 
BRANCH  37  38
ATOM     38  C   LIG    1       24.415 -28.579   6.091  0.00  0.00    +0.128 C 
BRANCH  38  39
ATOM     39  O   LIG    1       23.366 -29.358   5.504  0.00  0.00    -0.391 OA
ATOM     40  H   LIG    1       23.674 -29.767   4.682  0.00  0.00    +0.210 HD
ENDBRANCH  38  39
BRANCH  38  41
ATOM     41  C   LIG    1       24.227 -27.077   5.806  0.00  0.00    +0.151 C 
BRANCH  41  42
ATOM     42  C   LIG    1       25.351 -26.325   5.120  0.00  0.00    +0.307 C 
ATOM     43  O   LIG    1       26.503 -26.728   5.038  0.00  0.00    -0.251 OA
BRANCH  42  44
ATOM     44  O   LIG    1       24.961 -25.177   4.515  0.00  0.00    -0.481 OA
ATOM     45  H   LIG    1       25.486 -24.849   3.759  0.00  0.00    +0.295 HD
ENDBRANCH  42  44
ENDBRANCH  41  42
ENDBRANCH  38  41
ENDBRANCH  37  38
ENDBRANCH  34  37
ENDBRANCH  33  34
ENDBRANCH  32  33
ENDBRANCH   2  32
TORSDOF 15
ENDMDL
MODEL 2
REMARK VINA RESULT:      -6.1      2.271      3.929
REMARK  Name = *****
REMARK                            x       y       z     vdW  Elec       q    Type
REMARK                         _______ _______ _______ _____ _____    ______ ____
ROOT
ATOM      1  C   LIG    1       24.938 -31.385  10.960  0.00  0.00    +0.035 C 
ATOM      2  N   LIG    1       23.837 -30.750  10.407  0.00  0.00    -0.342 NA
ATOM      3  C   LIG    1       22.743 -31.152  11.179  0.00  0.00    +0.058 C 
ATOM      4  C   LIG    1       23.275 -31.121  12.517  0.00  0.00    +0.020 C 
ATOM      5  C   LIG    1       24.748 -31.296  12.336  0.00  0.00    +0.066 C 
ENDROOT
BRANCH   3   6
ATOM      6  C   LIG    1       21.510 -31.670  10.526  0.00  0.00    -0.001 C 
ATOM      7  C   LIG    1       20.263 -31.123  10.603  0.00  0.00    +0.013 C 
ATOM      8  C   LIG    1       18.964 -31.391  10.279  0.00  0.00    +0.039 C 
ATOM      9  C   LIG    1       18.875 -32.590   9.747  0.00  0.00    +0.123 C 
ATOM     10  F   LIG    1       17.657 -33.003   9.430  0.00  0.00    -0.205 F 
ATOM     11  C   LIG    1       20.051 -33.346   9.589  0.00  0.00    +0.039 C 
ATOM     12  C   LIG    1       21.356 -32.898   9.973  0.00  0.00    +0.013 C 
ENDBRANCH   3   6
BRANCH   4  13
ATOM     13  C   LIG    1       22.404 -31.125  14.002  0.00  0.00    -0.015 C 
ATOM     14  C   LIG    1       21.795 -32.829  14.017  0.00  0.00    +0.008 C 
ATOM     15  C   LIG    1       20.308 -33.298  14.773  0.00  0.00    +0.001 C 
ATOM     16  C   LIG    1       19.140 -32.081  15.308  0.00  0.00    +0.000 C 
ATOM     17  C   LIG    1       19.417 -30.375  15.270  0.00  0.00    +0.001 C 
ATOM     18  C   LIG    1       20.933 -29.891  14.642  0.00  0.00    +0.008 C 
ENDBRANCH   4  13
BRANCH   5  19
ATOM     19  C   LIG    1       25.827 -31.616  13.324  0.00  0.00    +0.251 C 
ATOM     20  N   LIG    1       26.440 -30.657  14.051  0.00  0.00    -0.281 N 
ATOM     21  H   LIG    1       26.544 -30.844  15.044  0.00  0.00    +0.155 HD
ATOM     22  O   LIG    1       26.207 -32.747  13.599  0.00  0.00    -0.270 OA
BRANCH  20  23
ATOM     23  C   LIG    1       26.020 -29.441  13.730  0.00  0.00    +0.034 C 
ATOM     24  C   LIG    1       24.718 -28.563  14.733  0.00  0.00    +0.023 C 
ATOM     25  C   LIG    1       24.645 -26.782  14.274  0.00  0.00    +0.002 C 
ATOM     26  C   LIG    1       25.961 -26.238  12.924  0.00  0.00    +0.000 C 
ATOM     27  C   LIG    1       26.955 -27.219  11.981  0.00  0.00    +0.002 C 
ATOM     28  C   LIG    1       26.972 -28.777  12.373  0.00  0.00    +0.023 C 
ENDBRANCH  20  23
ENDBRANCH   5  19
BRANCH   1  30
ATOM     29  C   LIG    1       25.345 -33.259   9.279  0.00  0.00    +0.014 C 
ATOM     30  C   LIG    1       25.938 -32.183  10.158  0.00  0.00    +0.030 C 
ATOM     31  C   LIG    1       26.985 -31.361   9.401  0.00  0.00    +0.014 C 
ENDBRANCH   1  30
BRANCH   2  32
ATOM     32  C   LIG    1       23.808 -29.716   9.348  0.00  0.00    +0.124 C 
BRANCH  32  33
ATOM     33  C   LIG    1       23.928 -30.294   7.918  0.00  0.00    +0.053 C 
BRANCH  33  34
ATOM     34  C   LIG    1       24.693 -29.439   6.892  0.00  0.00    +0.119 C 
BRANCH  34  35
ATOM     35  O   LIG    1       25.655 -30.296   6.286  0.00  0.00    -0.392 OA
ATOM     36  H   LIG    1       26.425 -30.390   6.899  0.00  0.00    +0.210 HD
ENDBRANCH  34  35
BRANCH  34  37
ATOM     37  C   LIG    1       25.404 -28.202   7.474  0.00  0.00    +0.063 C 
BRANCH  37  38
ATOM     38  C   LIG    1       25.607 -27.046   6.470  0.00  0.00    +0.128 C 
BRANCH  38  39
ATOM     39  O   LIG    1       26.321 -27.590   5.353  0.00  0.00    -0.391 OA
ATOM     40  H   LIG    1       26.839 -26.897   4.918  0.00  0.00    +0.210 HD
ENDBRANCH  38  39
BRANCH  38  41
ATOM     41  C   LIG    1       24.363 -26.263   6.014  0.00  0.00    +0.151 C 
BRANCH  41  42
ATOM     42  C   LIG    1       24.197 -24.830   6.483  0.00  0.00    +0.307 C 
ATOM     43  O   LIG    1       25.125 -24.089   6.777  0.00  0.00    -0.251 OA
BRANCH  42  44
ATOM     44  O   LIG    1       22.917 -24.389   6.475  0.00  0.00    -0.481 OA
ATOM     45  H   LIG    1       22.278 -24.805   7.084  0.00  0.00    +0.295 HD
ENDBRANCH  42  44
ENDBRANCH  41  42
ENDBRANCH  38  41
ENDBRANCH  37  38
ENDBRANCH  34  37
ENDBRANCH  33  34
ENDBRANCH  32  33
ENDBRANCH   2  32
TORSDOF 15
ENDMDL
MODEL 3
REMARK VINA RESULT:      -5.8      1.740      2.593
REMARK  Name = *****
REMARK                            x       y       z     vdW  Elec       q    Type
REMARK                         _______ _______ _______ _____ _____    ______ ____
ROOT
ATOM      1  C   LIG    1       25.730 -29.828  10.837  0.00  0.00    +0.035 C 
ATOM      2  N   LIG    1       24.922 -30.000   9.725  0.00  0.00    -0.342 NA
ATOM      3  C   LIG    1       24.576 -31.354   9.716  0.00  0.00    +0.058 C 
ATOM      4  C   LIG    1       24.331 -31.624  11.109  0.00  0.00    +0.020 C 
ATOM      5  C   LIG    1       25.132 -30.593  11.835  0.00  0.00    +0.066 C 
ENDROOT
BRANCH   3   6
ATOM      6  C   LIG    1       24.735 -32.164   8.477  0.00  0.00    -0.001 C 
ATOM      7  C   LIG    1       25.831 -32.197   7.666  0.00  0.00    +0.013 C 
ATOM      8  C   LIG    1       26.241 -32.675   6.455  0.00  0.00    +0.039 C 
ATOM      9  C   LIG    1       25.241 -33.274   5.849  0.00  0.00    +0.123 C 
ATOM     10  F   LIG    1       25.486 -33.743   4.635  0.00  0.00    -0.205 F 
ATOM     11  C   LIG    1       23.998 -33.341   6.504  0.00  0.00    +0.039 C 
ATOM     12  C   LIG    1       23.740 -32.793   7.803  0.00  0.00    +0.013 C 
ENDBRANCH   3   6
BRANCH   4  13
ATOM     13  C   LIG    1       23.504 -32.969  11.796  0.00  0.00    -0.015 C 
ATOM     14  C   LIG    1       21.919 -32.853  10.930  0.00  0.00    +0.008 C 
ATOM     15  C   LIG    1       20.419 -33.376  11.622  0.00  0.00    +0.001 C 
ATOM     16  C   LIG    1       20.303 -33.768  13.343  0.00  0.00    +0.000 C 
ATOM     17  C   LIG    1       21.647 -33.815  14.429  0.00  0.00    +0.001 C 
ATOM     18  C   LIG    1       23.163 -33.423  13.739  0.00  0.00    +0.008 C 
ENDBRANCH   4  13
BRANCH   5  19
ATOM     19  C   LIG    1       25.521 -30.489  13.277  0.00  0.00    +0.251 C 
ATOM     20  N   LIG    1       24.804 -29.761  14.161  0.00  0.00    -0.281 N 
ATOM     21  H   LIG    1       24.598 -30.210  15.049  0.00  0.00    +0.155 HD
ATOM     22  O   LIG    1       26.464 -31.077  13.790  0.00  0.00    -0.270 OA
BRANCH  20  23
ATOM     23  C   LIG    1       23.795 -29.124  13.583  0.00  0.00    +0.034 C 
ATOM     24  C   LIG    1       22.246 -30.022  13.066  0.00  0.00    +0.023 C 
ATOM     25  C   LIG    1       20.910 -28.820  12.667  0.00  0.00    +0.002 C 
ATOM     26  C   LIG    1       21.403 -26.940  12.937  0.00  0.00    +0.000 C 
ATOM     27  C   LIG    1       22.930 -26.295  13.242  0.00  0.00    +0.002 C 
ATOM     28  C   LIG    1       24.090 -27.364  13.547  0.00  0.00    +0.023 C 
ENDBRANCH  20  23
ENDBRANCH   5  19
BRANCH   1  30
ATOM     29  C   LIG    1       27.119 -27.776  11.445  0.00  0.00    +0.014 C 
ATOM     30  C   LIG    1       27.076 -29.143  10.802  0.00  0.00    +0.030 C 
ATOM     31  C   LIG    1       28.265 -30.002  11.243  0.00  0.00    +0.014 C 
ENDBRANCH   1  30
BRANCH   2  32
ATOM     32  C   LIG    1       24.368 -28.965   8.823  0.00  0.00    +0.124 C 
BRANCH  32  33
ATOM     33  C   LIG    1       24.442 -29.347   7.326  0.00  0.00    +0.053 C 
BRANCH  33  34
ATOM     34  C   LIG    1       25.045 -28.297   6.377  0.00  0.00    +0.119 C 
BRANCH  34  35
ATOM     35  O   LIG    1       25.926 -28.995   5.504  0.00  0.00    -0.392 OA
ATOM     36  H   LIG    1       26.850 -28.689   5.677  0.00  0.00    +0.210 HD
ENDBRANCH  34  35
BRANCH  34  37
ATOM     37  C   LIG    1       25.810 -27.153   7.070  0.00  0.00    +0.063 C 
BRANCH  37  38
ATOM     38  C   LIG    1       26.184 -25.976   6.143  0.00  0.00    +0.128 C 
BRANCH  38  39
ATOM     39  O   LIG    1       25.725 -26.320   4.831  0.00  0.00    -0.391 OA
ATOM     40  H   LIG    1       25.521 -25.519   4.327  0.00  0.00    +0.210 HD
ENDBRANCH  38  39
BRANCH  38  41
ATOM     41  C   LIG    1       25.718 -24.565   6.549  0.00  0.00    +0.151 C 
BRANCH  41  42
ATOM     42  C   LIG    1       24.231 -24.271   6.563  0.00  0.00    +0.307 C 
ATOM     43  O   LIG    1       23.729 -23.272   7.061  0.00  0.00    -0.251 OA
BRANCH  42  44
ATOM     44  O   LIG    1       23.479 -25.178   5.895  0.00  0.00    -0.481 OA
ATOM     45  H   LIG    1       22.592 -25.392   6.240  0.00  0.00    +0.295 HD
ENDBRANCH  42  44
ENDBRANCH  41  42
ENDBRANCH  38  41
ENDBRANCH  37  38
ENDBRANCH  34  37
ENDBRANCH  33  34
ENDBRANCH  32  33
ENDBRANCH   2  32
TORSDOF 15
ENDMDL
MODEL 4
REMARK VINA RESULT:      -5.7      2.790      6.419
REMARK  Name = *****
REMARK                            x       y       z     vdW  Elec       q    Type
REMARK                         _______ _______ _______ _____ _____    ______ ____
ROOT
ATOM      1  C   LIG    1       22.947 -31.372  12.811  0.00  0.00    +0.035 C 
ATOM      2  N   LIG    1       22.408 -30.337  12.064  0.00  0.00    -0.342 NA
ATOM      3  C   LIG    1       22.372 -29.233  12.921  0.00  0.00    +0.058 C 
ATOM      4  C   LIG    1       23.627 -29.337  13.619  0.00  0.00    +0.020 C 
ATOM      5  C   LIG    1       23.978 -30.786  13.541  0.00  0.00    +0.066 C 
ENDROOT
BRANCH   3   6
ATOM      6  C   LIG    1       21.125 -28.434  13.068  0.00  0.00    -0.001 C 
ATOM      7  C   LIG    1       20.985 -27.099  12.826  0.00  0.00    +0.013 C 
ATOM      8  C   LIG    1       20.093 -26.079  12.985  0.00  0.00    +0.039 C 
ATOM      9  C   LIG    1       19.023 -26.515  13.611  0.00  0.00    +0.123 C 
ATOM     10  F   LIG    1       18.090 -25.614  13.879  0.00  0.00    -0.205 F 
ATOM     11  C   LIG    1       18.962 -27.872  13.976  0.00  0.00    +0.039 C 
ATOM     12  C   LIG    1       19.998 -28.826  13.712  0.00  0.00    +0.013 C 
ENDBRANCH   3   6
BRANCH   4  13
ATOM     13  C   LIG    1       24.428 -28.123  14.541  0.00  0.00    -0.015 C 
ATOM     14  C   LIG    1       24.454 -26.767  13.342  0.00  0.00    +0.008 C 
ATOM     15  C   LIG    1       25.698 -25.562  13.300  0.00  0.00    +0.001 C 
ATOM     16  C   LIG    1       27.188 -25.765  14.231  0.00  0.00    +0.000 C 
ATOM     17  C   LIG    1       27.479 -27.053  15.346  0.00  0.00    +0.001 C 
ATOM     18  C   LIG    1       26.210 -28.191  15.499  0.00  0.00    +0.008 C 
ENDBRANCH   4  13
BRANCH   5  19
ATOM     19  C   LIG    1       25.002 -31.590  14.282  0.00  0.00    +0.251 C 
ATOM     20  N   LIG    1       26.186 -31.928  13.726  0.00  0.00    -0.281 N 
ATOM     21  H   LIG    1       27.010 -31.781  14.302  0.00  0.00    +0.155 HD
ATOM     22  O   LIG    1       24.892 -31.959  15.444  0.00  0.00    -0.270 OA
BRANCH  20  23
ATOM     23  C   LIG    1       26.280 -31.527  12.466  0.00  0.00    +0.034 C 
ATOM     24  C   LIG    1       26.907 -29.827  12.028  0.00  0.00    +0.023 C 
ATOM     25  C   LIG    1       27.283 -29.725  10.229  0.00  0.00    +0.002 C 
ATOM     26  C   LIG    1       27.002 -31.399   9.245  0.00  0.00    +0.000 C 
ATOM     27  C   LIG    1       26.248 -32.809   9.778  0.00  0.00    +0.002 C 
ATOM     28  C   LIG    1       25.891 -32.860  11.344  0.00  0.00    +0.023 C 
ENDBRANCH  20  23
ENDBRANCH   5  19
BRANCH   1  30
ATOM     29  C   LIG    1       20.827 -32.749  13.152  0.00  0.00    +0.014 C 
ATOM     30  C   LIG    1       22.322 -32.742  12.925  0.00  0.00    +0.030 C 
ATOM     31  C   LIG    1       22.723 -33.744  11.839  0.00  0.00    +0.014 C 
ENDBRANCH   1  30
BRANCH   2  32
ATOM     32  C   LIG    1       22.100 -30.312  10.617  0.00  0.00    +0.124 C 
BRANCH  32  33
ATOM     33  C   LIG    1       23.220 -30.914   9.736  0.00  0.00    +0.053 C 
BRANCH  33  34
ATOM     34  C   LIG    1       23.223 -30.505   8.252  0.00  0.00    +0.119 C 
BRANCH  34  35
ATOM     35  O   LIG    1       23.317 -31.708   7.498  0.00  0.00    -0.392 OA
ATOM     36  H   LIG    1       24.232 -31.782   7.132  0.00  0.00    +0.210 HD
ENDBRANCH  34  35
BRANCH  34  37
ATOM     37  C   LIG    1       24.362 -29.552   7.841  0.00  0.00    +0.063 C 
BRANCH  37  38
ATOM     38  C   LIG    1       24.367 -29.166   6.345  0.00  0.00    +0.128 C 
BRANCH  38  39
ATOM     39  O   LIG    1       23.217 -29.782   5.755  0.00  0.00    -0.391 OA
ATOM     40  H   LIG    1       23.354 -30.737   5.674  0.00  0.00    +0.210 HD
ENDBRANCH  38  39
BRANCH  38  41
ATOM     41  C   LIG    1       24.448 -27.669   5.990  0.00  0.00    +0.151 C 
BRANCH  41  42
ATOM     42  C   LIG    1       25.811 -27.061   5.725  0.00  0.00    +0.307 C 
ATOM     43  O   LIG    1       26.143 -26.543   4.668  0.00  0.00    -0.251 OA
BRANCH  42  44
ATOM     44  O   LIG    1       26.635 -27.057   6.801  0.00  0.00    -0.481 OA
ATOM     45  H   LIG    1       26.701 -27.869   7.338  0.00  0.00    +0.295 HD
ENDBRANCH  42  44
ENDBRANCH  41  42
ENDBRANCH  38  41
ENDBRANCH  37  38
ENDBRANCH  34  37
ENDBRANCH  33  34
ENDBRANCH  32  33
ENDBRANCH   2  32
TORSDOF 15
ENDMDL
MODEL 5
REMARK VINA RESULT:      -5.6      1.291      2.073
REMARK  Name = *****
REMARK                            x       y       z     vdW  Elec       q    Type
REMARK                         _______ _______ _______ _____ _____    ______ ____
ROOT
ATOM      1  C   LIG    1       25.021 -31.863  13.334  0.00  0.00    +0.035 C 
ATOM      2  N   LIG    1       25.164 -31.314  12.070  0.00  0.00    -0.342 NA
ATOM      3  C   LIG    1       24.340 -32.072  11.233  0.00  0.00    +0.058 C 
ATOM      4  C   LIG    1       23.168 -32.273  12.047  0.00  0.00    +0.020 C 
ATOM      5  C   LIG    1       23.662 -32.142  13.450  0.00  0.00    +0.066 C 
ENDROOT
BRANCH   3   6
ATOM      6  C   LIG    1       24.865 -32.622   9.955  0.00  0.00    -0.001 C 
ATOM      7  C   LIG    1       26.115 -33.125   9.742  0.00  0.00    +0.013 C 
ATOM      8  C   LIG    1       26.933 -33.547   8.734  0.00  0.00    +0.039 C 
ATOM      9  C   LIG    1       26.332 -33.387   7.576  0.00  0.00    +0.123 C 
ATOM     10  F   LIG    1       27.035 -33.710   6.501  0.00  0.00    -0.205 F 
ATOM     11  C   LIG    1       25.029 -32.860   7.560  0.00  0.00    +0.039 C 
ATOM     12  C   LIG    1       24.297 -32.479   8.731  0.00  0.00    +0.013 C 
ENDBRANCH   3   6
BRANCH   4  13
ATOM     13  C   LIG    1       21.604 -32.784  11.541  0.00  0.00    -0.015 C 
ATOM     14  C   LIG    1       21.118 -31.376  10.513  0.00  0.00    +0.008 C 
ATOM     15  C   LIG    1       19.472 -30.873  10.309  0.00  0.00    +0.001 C 
ATOM     16  C   LIG    1       18.193 -31.519  11.347  0.00  0.00    +0.000 C 
ATOM     17  C   LIG    1       18.419 -32.772  12.515  0.00  0.00    +0.001 C 
ATOM     18  C   LIG    1       20.015 -33.375  12.647  0.00  0.00    +0.008 C 
ENDBRANCH   4  13
BRANCH   5  19
ATOM     19  C   LIG    1       23.019 -32.500  14.755  0.00  0.00    +0.251 C 
ATOM     20  N   LIG    1       22.356 -31.588  15.500  0.00  0.00    -0.281 N 
ATOM     21  H   LIG    1       21.450 -31.876  15.858  0.00  0.00    +0.155 HD
ATOM     22  O   LIG    1       22.986 -33.627  15.230  0.00  0.00    -0.270 OA
BRANCH  20  23
ATOM     23  C   LIG    1       22.414 -30.374  14.972  0.00  0.00    +0.034 C 
ATOM     24  C   LIG    1       23.927 -29.302  15.157  0.00  0.00    +0.023 C 
ATOM     25  C   LIG    1       23.845 -27.870  14.003  0.00  0.00    +0.002 C 
ATOM     26  C   LIG    1       22.261 -27.852  12.844  0.00  0.00    +0.000 C 
ATOM     27  C   LIG    1       20.885 -28.820  12.942  0.00  0.00    +0.002 C 
ATOM     28  C   LIG    1       20.964 -30.040  13.986  0.00  0.00    +0.023 C 
ENDBRANCH  20  23
ENDBRANCH   5  19
BRANCH   1  30
ATOM     29  C   LIG    1       26.312 -31.476  15.500  0.00  0.00    +0.014 C 
ATOM     30  C   LIG    1       26.182 -32.261  14.214  0.00  0.00    +0.030 C 
ATOM     31  C   LIG    1       26.338 -33.764  14.463  0.00  0.00    +0.014 C 
ENDBRANCH   1  30
BRANCH   2  32
ATOM     32  C   LIG    1       25.878 -30.076  11.681  0.00  0.00    +0.124 C 
BRANCH  32  33
ATOM     33  C   LIG    1       25.337 -29.434  10.382  0.00  0.00    +0.053 C 
BRANCH  33  34
ATOM     34  C   LIG    1       26.295 -29.406   9.178  0.00  0.00    +0.119 C 
BRANCH  34  35
ATOM     35  O   LIG    1       27.540 -29.921   9.637  0.00  0.00    -0.392 OA
ATOM     36  H   LIG    1       27.473 -30.091  10.608  0.00  0.00    +0.210 HD
ENDBRANCH  34  35
BRANCH  34  37
ATOM     37  C   LIG    1       26.516 -28.016   8.550  0.00  0.00    +0.063 C 
BRANCH  37  38
ATOM     38  C   LIG    1       25.581 -27.691   7.364  0.00  0.00    +0.128 C 
BRANCH  38  39
ATOM     39  O   LIG    1       26.410 -27.585   6.201  0.00  0.00    -0.391 OA
ATOM     40  H   LIG    1       25.912 -27.191   5.470  0.00  0.00    +0.210 HD
ENDBRANCH  38  39
BRANCH  38  41
ATOM     41  C   LIG    1       24.383 -28.626   7.116  0.00  0.00    +0.151 C 
BRANCH  41  42
ATOM     42  C   LIG    1       24.345 -29.429   5.830  0.00  0.00    +0.307 C 
ATOM     43  O   LIG    1       25.321 -29.961   5.320  0.00  0.00    -0.251 OA
BRANCH  42  44
ATOM     44  O   LIG    1       23.103 -29.589   5.313  0.00  0.00    -0.481 OA
ATOM     45  H   LIG    1       22.457 -28.866   5.424  0.00  0.00    +0.295 HD
ENDBRANCH  42  44
ENDBRANCH  41  42
ENDBRANCH  38  41
ENDBRANCH  37  38
ENDBRANCH  34  37
ENDBRANCH  33  34
ENDBRANCH  32  33
ENDBRANCH   2  32
TORSDOF 15
ENDMDL
MODEL 6
REMARK VINA RESULT:      -5.5      4.319      8.121
REMARK  Name = *****
REMARK                            x       y       z     vdW  Elec       q    Type
REMARK                         _______ _______ _______ _____ _____    ______ ____
ROOT
ATOM      1  C   LIG    1       23.011 -30.801  13.156  0.00  0.00    +0.035 C 
ATOM      2  N   LIG    1       22.416 -29.753  12.473  0.00  0.00    -0.342 NA
ATOM      3  C   LIG    1       22.508 -28.648  13.324  0.00  0.00    +0.058 C 
ATOM      4  C   LIG    1       23.833 -28.784  13.872  0.00  0.00    +0.020 C 
ATOM      5  C   LIG    1       24.135 -30.242  13.759  0.00  0.00    +0.066 C 
ENDROOT
BRANCH   3   6
ATOM      6  C   LIG    1       21.308 -27.817  13.613  0.00  0.00    -0.001 C 
ATOM      7  C   LIG    1       20.300 -28.123  14.480  0.00  0.00    +0.013 C 
ATOM      8  C   LIG    1       19.060 -27.698  14.859  0.00  0.00    +0.039 C 
ATOM      9  C   LIG    1       18.694 -26.673  14.122  0.00  0.00    +0.123 C 
ATOM     10  F   LIG    1       17.483 -26.189  14.348  0.00  0.00    -0.205 F 
ATOM     11  C   LIG    1       19.583 -26.198  13.141  0.00  0.00    +0.039 C 
ATOM     12  C   LIG    1       20.876 -26.759  12.883  0.00  0.00    +0.013 C 
ENDBRANCH   3   6
BRANCH   4  13
ATOM     13  C   LIG    1       24.767 -27.591  14.690  0.00  0.00    -0.015 C 
ATOM     14  C   LIG    1       24.750 -26.264  13.459  0.00  0.00    +0.008 C 
ATOM     15  C   LIG    1       26.039 -25.121  13.278  0.00  0.00    +0.001 C 
ATOM     16  C   LIG    1       27.595 -25.376  14.082  0.00  0.00    +0.000 C 
ATOM     17  C   LIG    1       27.922 -26.653  15.200  0.00  0.00    +0.001 C 
ATOM     18  C   LIG    1       26.620 -27.724  15.492  0.00  0.00    +0.008 C 
ENDBRANCH   4  13
BRANCH   5  19
ATOM     19  C   LIG    1       25.217 -31.072  14.378  0.00  0.00    +0.251 C 
ATOM     20  N   LIG    1       26.397 -31.288  13.757  0.00  0.00    -0.281 N 
ATOM     21  H   LIG    1       27.232 -31.166  14.324  0.00  0.00    +0.155 HD
ATOM     22  O   LIG    1       25.161 -31.571  15.494  0.00  0.00    -0.270 OA
BRANCH  20  23
ATOM     23  C   LIG    1       26.433 -30.748  12.548  0.00  0.00    +0.034 C 
ATOM     24  C   LIG    1       25.516 -31.507  11.113  0.00  0.00    +0.023 C 
ATOM     25  C   LIG    1       25.444 -30.330   9.701  0.00  0.00    +0.002 C 
ATOM     26  C   LIG    1       26.268 -28.585  10.056  0.00  0.00    +0.000 C 
ATOM     27  C   LIG    1       27.224 -28.130  11.368  0.00  0.00    +0.002 C 
ATOM     28  C   LIG    1       27.306 -29.191  12.572  0.00  0.00    +0.023 C 
ENDBRANCH  20  23
ENDBRANCH   5  19
BRANCH   1  30
ATOM     29  C   LIG    1       23.181 -33.328  12.850  0.00  0.00    +0.014 C 
ATOM     30  C   LIG    1       22.368 -32.155  13.347  0.00  0.00    +0.030 C 
ATOM     31  C   LIG    1       21.800 -32.425  14.744  0.00  0.00    +0.014 C 
ENDBRANCH   1  30
BRANCH   2  32
ATOM     32  C   LIG    1       21.941 -29.722  11.071  0.00  0.00    +0.124 C 
BRANCH  32  33
ATOM     33  C   LIG    1       21.176 -30.998  10.649  0.00  0.00    +0.053 C 
BRANCH  33  34
ATOM     34  C   LIG    1       19.666 -31.025  10.946  0.00  0.00    +0.119 C 
BRANCH  34  35
ATOM     35  O   LIG    1       19.458 -30.179  12.072  0.00  0.00    -0.392 OA
ATOM     36  H   LIG    1       18.821 -29.467  11.819  0.00  0.00    +0.210 HD
ENDBRANCH  34  35
BRANCH  34  37
ATOM     37  C   LIG    1       19.082 -32.420  11.238  0.00  0.00    +0.063 C 
BRANCH  37  38
ATOM     38  C   LIG    1       17.942 -32.435  12.280  0.00  0.00    +0.128 C 
BRANCH  38  39
ATOM     39  O   LIG    1       18.557 -32.303  13.567  0.00  0.00    -0.391 OA
ATOM     40  H   LIG    1       19.482 -32.034  13.469  0.00  0.00    +0.210 HD
ENDBRANCH  38  39
BRANCH  38  41
ATOM     41  C   LIG    1       16.791 -31.427  12.101  0.00  0.00    +0.151 C 
BRANCH  41  42
ATOM     42  C   LIG    1       16.225 -30.749  13.334  0.00  0.00    +0.307 C 
ATOM     43  O   LIG    1       15.852 -31.341  14.337  0.00  0.00    -0.251 OA
BRANCH  42  44
ATOM     44  O   LIG    1       16.236 -29.396  13.277  0.00  0.00    -0.481 OA
ATOM     45  H   LIG    1       16.766 -28.907  13.935  0.00  0.00    +0.295 HD
ENDBRANCH  42  44
ENDBRANCH  41  42
ENDBRANCH  38  41
ENDBRANCH  37  38
ENDBRANCH  34  37
ENDBRANCH  33  34
ENDBRANCH  32  33
ENDBRANCH   2  32
TORSDOF 15
ENDMDL
MODEL 7
REMARK VINA RESULT:      -4.6      2.925      6.919
REMARK  Name = *****
REMARK                            x       y       z     vdW  Elec       q    Type
REMARK                         _______ _______ _______ _____ _____    ______ ____
ROOT
ATOM      1  C   LIG    1       23.869 -30.766  11.379  0.00  0.00    +0.035 C 
ATOM      2  N   LIG    1       24.321 -29.541  10.915  0.00  0.00    -0.342 NA
ATOM      3  C   LIG    1       25.268 -29.111  11.848  0.00  0.00    +0.058 C 
ATOM      4  C   LIG    1       25.982 -30.324  12.152  0.00  0.00    +0.020 C 
ATOM      5  C   LIG    1       25.011 -31.415  11.842  0.00  0.00    +0.066 C 
ENDROOT
BRANCH   3   6
ATOM      6  C   LIG    1       25.198 -27.737  12.415  0.00  0.00    -0.001 C 
ATOM      7  C   LIG    1       26.227 -26.847  12.512  0.00  0.00    +0.013 C 
ATOM      8  C   LIG    1       26.539 -25.641  13.070  0.00  0.00    +0.039 C 
ATOM      9  C   LIG    1       25.524 -25.202  13.781  0.00  0.00    +0.123 C 
ATOM     10  F   LIG    1       25.708 -24.059  14.424  0.00  0.00    -0.205 F 
ATOM     11  C   LIG    1       24.353 -25.979  13.836  0.00  0.00    +0.039 C 
ATOM     12  C   LIG    1       24.185 -27.233  13.164  0.00  0.00    +0.013 C 
ENDBRANCH   3   6
BRANCH   4  13
ATOM     13  C   LIG    1       27.513 -30.486  12.923  0.00  0.00    -0.015 C 
ATOM     14  C   LIG    1       27.144 -29.756  14.537  0.00  0.00    +0.008 C 
ATOM     15  C   LIG    1       28.327 -28.933  15.500  0.00  0.00    +0.001 C 
ATOM     16  C   LIG    1       29.897 -28.485  14.818  0.00  0.00    +0.000 C 
ATOM     17  C   LIG    1       30.444 -28.935  13.242  0.00  0.00    +0.001 C 
ATOM     18  C   LIG    1       29.339 -29.858  12.316  0.00  0.00    +0.008 C 
ENDBRANCH   4  13
BRANCH   5  19
ATOM     19  C   LIG    1       25.029 -32.873  12.186  0.00  0.00    +0.251 C 
ATOM     20  N   LIG    1       25.258 -33.825  11.255  0.00  0.00    -0.281 N 
ATOM     21  H   LIG    1       25.926 -34.548  11.508  0.00  0.00    +0.155 HD
ATOM     22  O   LIG    1       24.897 -33.325  13.315  0.00  0.00    -0.270 OA
BRANCH  20  23
ATOM     23  C   LIG    1       25.388 -33.315  10.038  0.00  0.00    +0.034 C 
ATOM     24  C   LIG    1       26.998 -32.576   9.459  0.00  0.00    +0.023 C 
ATOM     25  C   LIG    1       26.970 -32.321   7.636  0.00  0.00    +0.002 C 
ATOM     26  C   LIG    1       25.324 -32.931   6.758  0.00  0.00    +0.000 C 
ATOM     27  C   LIG    1       23.877 -33.417   7.474  0.00  0.00    +0.002 C 
ATOM     28  C   LIG    1       23.914 -33.593   9.071  0.00  0.00    +0.023 C 
ENDBRANCH  20  23
ENDBRANCH   5  19
BRANCH   1  30
ATOM     29  C   LIG    1       21.661 -30.324  12.576  0.00  0.00    +0.014 C 
ATOM     30  C   LIG    1       22.410 -31.121  11.534  0.00  0.00    +0.030 C 
ATOM     31  C   LIG    1       21.611 -31.219  10.230  0.00  0.00    +0.014 C 
ENDBRANCH   1  30
BRANCH   2  32
ATOM     32  C   LIG    1       24.027 -28.883   9.622  0.00  0.00    +0.124 C 
BRANCH  32  33
ATOM     33  C   LIG    1       24.372 -29.757   8.393  0.00  0.00    +0.053 C 
BRANCH  33  34
ATOM     34  C   LIG    1       25.256 -29.107   7.313  0.00  0.00    +0.119 C 
BRANCH  34  35
ATOM     35  O   LIG    1       26.328 -28.467   7.997  0.00  0.00    -0.392 OA
ATOM     36  H   LIG    1       25.970 -27.683   8.482  0.00  0.00    +0.210 HD
ENDBRANCH  34  35
BRANCH  34  37
ATOM     37  C   LIG    1       24.540 -28.084   6.411  0.00  0.00    +0.063 C 
BRANCH  37  38
ATOM     38  C   LIG    1       25.065 -26.637   6.538  0.00  0.00    +0.128 C 
BRANCH  38  39
ATOM     39  O   LIG    1       26.261 -26.561   5.755  0.00  0.00    -0.391 OA
ATOM     40  H   LIG    1       26.148 -25.926   5.032  0.00  0.00    +0.210 HD
ENDBRANCH  38  39
BRANCH  38  41
ATOM     41  C   LIG    1       24.097 -25.489   6.198  0.00  0.00    +0.151 C 
BRANCH  41  42
ATOM     42  C   LIG    1       24.508 -24.070   6.541  0.00  0.00    +0.307 C 
ATOM     43  O   LIG    1       23.736 -23.202   6.927  0.00  0.00    -0.251 OA
BRANCH  42  44
ATOM     44  O   LIG    1       25.841 -23.846   6.468  0.00  0.00    -0.481 OA
ATOM     45  H   LIG    1       26.352 -23.807   7.299  0.00  0.00    +0.295 HD
ENDBRANCH  42  44
ENDBRANCH  41  42
ENDBRANCH  38  41
ENDBRANCH  37  38
ENDBRANCH  34  37
ENDBRANCH  33  34
ENDBRANCH  32  33
ENDBRANCH   2  32
TORSDOF 15
ENDMDL
MODEL 8
REMARK VINA RESULT:      -4.0      1.929      4.791
REMARK  Name = *****
REMARK                            x       y       z     vdW  Elec       q    Type
REMARK                         _______ _______ _______ _____ _____    ______ ____
ROOT
ATOM      1  C   LIG    1       22.266 -32.397  12.339  0.00  0.00    +0.035 C 
ATOM      2  N   LIG    1       23.344 -32.546  11.481  0.00  0.00    -0.342 NA
ATOM      3  C   LIG    1       24.227 -31.511  11.802  0.00  0.00    +0.058 C 
ATOM      4  C   LIG    1       24.165 -31.481  13.241  0.00  0.00    +0.020 C 
ATOM      5  C   LIG    1       22.831 -32.067  13.568  0.00  0.00    +0.066 C 
ENDROOT
BRANCH   3   6
ATOM      6  C   LIG    1       24.787 -30.639  10.734  0.00  0.00    -0.001 C 
ATOM      7  C   LIG    1       26.049 -30.124  10.687  0.00  0.00    +0.013 C 
ATOM      8  C   LIG    1       26.805 -29.230   9.987  0.00  0.00    +0.039 C 
ATOM      9  C   LIG    1       26.067 -28.639   9.074  0.00  0.00    +0.123 C 
ATOM     10  F   LIG    1       26.665 -27.704   8.350  0.00  0.00    -0.205 F 
ATOM     11  C   LIG    1       24.715 -29.008   8.958  0.00  0.00    +0.039 C 
ATOM     12  C   LIG    1       24.075 -29.995   9.775  0.00  0.00    +0.013 C 
ENDBRANCH   3   6
BRANCH   4  13
ATOM     13  C   LIG    1       25.263 -30.727  14.332  0.00  0.00    -0.015 C 
ATOM     14  C   LIG    1       25.393 -29.086  13.580  0.00  0.00    +0.008 C 
ATOM     15  C   LIG    1       26.817 -28.103  13.686  0.00  0.00    +0.001 C 
ATOM     16  C   LIG    1       28.342 -28.780  14.273  0.00  0.00    +0.000 C 
ATOM     17  C   LIG    1       28.524 -30.374  14.915  0.00  0.00    +0.001 C 
ATOM     18  C   LIG    1       27.100 -31.324  14.937  0.00  0.00    +0.008 C 
ENDBRANCH   4  13
BRANCH   5  19
ATOM     19  C   LIG    1       22.049 -32.076  14.845  0.00  0.00    +0.251 C 
ATOM     20  N   LIG    1       21.498 -30.952  15.355  0.00  0.00    -0.281 N 
ATOM     21  H   LIG    1       20.534 -31.027  15.667  0.00  0.00    +0.155 HD
ATOM     22  O   LIG    1       21.793 -33.078  15.500  0.00  0.00    -0.270 OA
BRANCH  20  23
ATOM     23  C   LIG    1       21.796 -29.879  14.637  0.00  0.00    +0.034 C 
ATOM     24  C   LIG    1       20.929 -29.513  13.028  0.00  0.00    +0.023 C 
ATOM     25  C   LIG    1       21.278 -27.788  12.488  0.00  0.00    +0.002 C 
ATOM     26  C   LIG    1       22.394 -26.759  13.731  0.00  0.00    +0.000 C 
ATOM     27  C   LIG    1       23.251 -27.317  15.071  0.00  0.00    +0.002 C 
ATOM     28  C   LIG    1       22.961 -28.838  15.500  0.00  0.00    +0.023 C 
ENDBRANCH  20  23
ENDBRANCH   5  19
BRANCH   1  30
ATOM     29  C   LIG    1       20.573 -31.629  10.592  0.00  0.00    +0.014 C 
ATOM     30  C   LIG    1       20.826 -32.371  11.884  0.00  0.00    +0.030 C 
ATOM     31  C   LIG    1       20.105 -33.723  11.898  0.00  0.00    +0.014 C 
ENDBRANCH   1  30
BRANCH   2  32
ATOM     32  C   LIG    1       23.625 -33.656  10.543  0.00  0.00    +0.124 C 
BRANCH  32  33
ATOM     33  C   LIG    1       23.022 -33.441   9.134  0.00  0.00    +0.053 C 
BRANCH  33  34
ATOM     34  C   LIG    1       24.022 -33.311   7.971  0.00  0.00    +0.119 C 
BRANCH  34  35
ATOM     35  O   LIG    1       25.294 -33.052   8.555  0.00  0.00    -0.392 OA
ATOM     36  H   LIG    1       25.913 -32.755   7.844  0.00  0.00    +0.210 HD
ENDBRANCH  34  35
BRANCH  34  37
ATOM     37  C   LIG    1       23.693 -32.207   6.948  0.00  0.00    +0.063 C 
BRANCH  37  38
ATOM     38  C   LIG    1       24.707 -32.084   5.789  0.00  0.00    +0.128 C 
BRANCH  38  39
ATOM     39  O   LIG    1       24.016 -32.463   4.593  0.00  0.00    -0.391 OA
ATOM     40  H   LIG    1       23.384 -31.774   4.338  0.00  0.00    +0.210 HD
ENDBRANCH  38  39
BRANCH  38  41
ATOM     41  C   LIG    1       25.437 -30.739   5.613  0.00  0.00    +0.151 C 
BRANCH  41  42
ATOM     42  C   LIG    1       24.611 -29.468   5.561  0.00  0.00    +0.307 C 
ATOM     43  O   LIG    1       25.077 -28.339   5.631  0.00  0.00    -0.251 OA
BRANCH  42  44
ATOM     44  O   LIG    1       23.291 -29.674   5.342  0.00  0.00    -0.481 OA
ATOM     45  H   LIG    1       22.994 -29.864   4.432  0.00  0.00    +0.295 HD
ENDBRANCH  42  44
ENDBRANCH  41  42
ENDBRANCH  38  41
ENDBRANCH  37  38
ENDBRANCH  34  37
ENDBRANCH  33  34
ENDBRANCH  32  33
ENDBRANCH   2  32
TORSDOF 15
ENDMDL
MODEL 9
REMARK VINA RESULT:      -4.0      2.618      5.318
REMARK  Name = *****
REMARK                            x       y       z     vdW  Elec       q    Type
REMARK                         _______ _______ _______ _____ _____    ______ ____
ROOT
ATOM      1  C   LIG    1       24.964 -31.096  10.713  0.00  0.00    +0.035 C 
ATOM      2  N   LIG    1       23.835 -30.452  10.233  0.00  0.00    -0.342 NA
ATOM      3  C   LIG    1       23.102 -30.083  11.365  0.00  0.00    +0.058 C 
ATOM      4  C   LIG    1       24.128 -29.637  12.272  0.00  0.00    +0.020 C 
ATOM      5  C   LIG    1       25.361 -30.346  11.817  0.00  0.00    +0.066 C 
ENDROOT
BRANCH   3   6
ATOM      6  C   LIG    1       21.651 -30.400  11.459  0.00  0.00    -0.001 C 
ATOM      7  C   LIG    1       20.834 -30.150  12.522  0.00  0.00    +0.013 C 
ATOM      8  C   LIG    1       19.578 -30.419  12.983  0.00  0.00    +0.039 C 
ATOM      9  C   LIG    1       18.954 -31.212  12.140  0.00  0.00    +0.123 C 
ATOM     10  F   LIG    1       17.736 -31.597  12.489  0.00  0.00    -0.205 F 
ATOM     11  C   LIG    1       19.624 -31.614  10.971  0.00  0.00    +0.039 C 
ATOM     12  C   LIG    1       20.957 -31.218  10.628  0.00  0.00    +0.013 C 
ENDBRANCH   3   6
BRANCH   4  13
ATOM     13  C   LIG    1       23.940 -28.693  13.699  0.00  0.00    -0.015 C 
ATOM     14  C   LIG    1       22.975 -27.307  13.048  0.00  0.00    +0.008 C 
ATOM     15  C   LIG    1       23.066 -25.701  13.693  0.00  0.00    +0.001 C 
ATOM     16  C   LIG    1       24.346 -25.253  14.830  0.00  0.00    +0.000 C 
ATOM     17  C   LIG    1       25.492 -26.359  15.499  0.00  0.00    +0.001 C 
ATOM     18  C   LIG    1       25.343 -27.980  14.972  0.00  0.00    +0.008 C 
ENDBRANCH   4  13
BRANCH   5  19
ATOM     19  C   LIG    1       26.691 -30.529  12.482  0.00  0.00    +0.251 C 
ATOM     20  N   LIG    1       26.840 -31.292  13.587  0.00  0.00    -0.281 N 
ATOM     21  H   LIG    1       27.621 -31.942  13.580  0.00  0.00    +0.155 HD
ATOM     22  O   LIG    1       27.746 -30.065  12.070  0.00  0.00    -0.270 OA
BRANCH  20  23
ATOM     23  C   LIG    1       25.685 -31.776  14.020  0.00  0.00    +0.034 C 
ATOM     24  C   LIG    1       24.687 -30.894  15.325  0.00  0.00    +0.023 C 
ATOM     25  C   LIG    1       22.988 -31.597  15.418  0.00  0.00    +0.002 C 
ATOM     26  C   LIG    1       22.626 -33.020  14.116  0.00  0.00    +0.000 C 
ATOM     27  C   LIG    1       23.720 -33.825  13.119  0.00  0.00    +0.002 C 
ATOM     28  C   LIG    1       25.208 -33.219  13.084  0.00  0.00    +0.023 C 
ENDBRANCH  20  23
ENDBRANCH   5  19
BRANCH   1  30
ATOM     29  C   LIG    1       24.354 -33.328   9.639  0.00  0.00    +0.014 C 
ATOM     30  C   LIG    1       25.432 -32.447  10.226  0.00  0.00    +0.030 C 
ATOM     31  C   LIG    1       26.681 -32.433   9.340  0.00  0.00    +0.014 C 
ENDBRANCH   1  30
BRANCH   2  32
ATOM     32  C   LIG    1       23.526 -30.053   8.842  0.00  0.00    +0.124 C 
BRANCH  32  33
ATOM     33  C   LIG    1       24.519 -30.623   7.801  0.00  0.00    +0.053 C 
BRANCH  33  34
ATOM     34  C   LIG    1       25.489 -29.619   7.154  0.00  0.00    +0.119 C 
BRANCH  34  35
ATOM     35  O   LIG    1       26.132 -28.929   8.221  0.00  0.00    -0.392 OA
ATOM     36  H   LIG    1       26.837 -29.513   8.594  0.00  0.00    +0.210 HD
ENDBRANCH  34  35
BRANCH  34  37
ATOM     37  C   LIG    1       24.835 -28.597   6.205  0.00  0.00    +0.063 C 
BRANCH  37  38
ATOM     38  C   LIG    1       25.166 -27.122   6.520  0.00  0.00    +0.128 C 
BRANCH  38  39
ATOM     39  O   LIG    1       26.543 -26.925   6.175  0.00  0.00    -0.391 OA
ATOM     40  H   LIG    1       26.839 -26.051   6.470  0.00  0.00    +0.210 HD
ENDBRANCH  38  39
BRANCH  38  41
ATOM     41  C   LIG    1       24.270 -26.035   5.899  0.00  0.00    +0.151 C 
BRANCH  41  42
ATOM     42  C   LIG    1       24.545 -24.585   6.246  0.00  0.00    +0.307 C 
ATOM     43  O   LIG    1       25.652 -24.137   6.515  0.00  0.00    -0.251 OA
BRANCH  42  44
ATOM     44  O   LIG    1       23.462 -23.777   6.156  0.00  0.00    -0.481 OA
ATOM     45  H   LIG    1       23.163 -23.309   6.959  0.00  0.00    +0.295 HD
ENDBRANCH  42  44
ENDBRANCH  41  42
ENDBRANCH  38  41
ENDBRANCH  37  38
ENDBRANCH  34  37
ENDBRANCH  33  34
ENDBRANCH  32  33
ENDBRANCH   2  32
TORSDOF 15
ENDMDL
