MODEL 1
REMARK VINA RESULT:      -2.2      0.000      0.000
REMARK  Name = *****
REMARK                            x       y       z     vdW  Elec       q    Type
REMARK                         _______ _______ _______ _____ _____    ______ ____
ROOT
ATOM      1  C   LIG    1       24.367 -17.956   4.023  0.00  0.00    +0.042 A 
ATOM      2  C   LIG    1       23.817 -16.682   4.147  0.00  0.00    +0.063 A 
ATOM      3  C   LIG    1       24.576 -15.541   3.850  0.00  0.00    +0.146 A 
ATOM      4  F   LIG    1       23.947 -14.365   4.009  0.00  0.00    -0.203 F 
ATOM      5  C   LIG    1       25.923 -15.601   3.433  0.00  0.00    +0.066 A 
ATOM      6  C   LIG    1       26.449 -16.893   3.307  0.00  0.00    +0.028 A 
ATOM      7  C   LIG    1       25.696 -18.036   3.607  0.00  0.00    +0.026 A 
ENDROOT
BRANCH   1  12
ATOM      8  C   LIG    1       22.103 -20.637   5.199  0.00  0.00    +0.213 C 
ATOM      9  O   LIG    1       22.496 -21.055   3.883  0.00  0.00    -0.444 OA
ATOM     10  C   LIG    1       23.457 -20.205   3.415  0.00  0.00    +0.408 C 
ATOM     11  O   LIG    1       24.052 -20.445   2.371  0.00  0.00    -0.226 OA
ATOM     12  N   LIG    1       23.597 -19.125   4.270  0.00  0.00    -0.234 N 
ATOM     13  C   LIG    1       22.611 -19.211   5.308  0.00  0.00    +0.163 C 
BRANCH   8  14
ATOM     14  C   LIG    1       22.740 -21.571   6.234  0.00  0.00    +0.150 C 
BRANCH  14  17
ATOM     15  C   LIG    1       26.289 -20.486   7.062  0.00  0.00    +0.109 C 
ATOM     16  C   LIG    1       25.166 -21.061   6.238  0.00  0.00    +0.210 C 
ATOM     17  N   LIG    1       23.937 -21.012   6.850  0.00  0.00    -0.312 N 
ATOM     18  H   LIG    1       23.838 -20.514   7.727  0.00  0.00    +0.149 HD
ATOM     19  O   LIG    1       25.348 -21.571   5.137  0.00  0.00    -0.276 OA
ENDBRANCH  14  17
ENDBRANCH   8  14
ENDBRANCH   1  12
BRANCH   5  20
ATOM     20  N   LIG    1       26.723 -14.478   3.107  0.00  0.00    -0.323 N 
ATOM     21  C   LIG    1       27.894 -14.287   4.006  0.00  0.00    +0.133 C 
ATOM     22  C   LIG    1       28.753 -13.093   3.562  0.00  0.00    +0.178 C 
ATOM     23  O   LIG    1       27.979 -11.893   3.443  0.00  0.00    -0.377 OA
ATOM     24  C   LIG    1       26.959 -12.081   2.455  0.00  0.00    +0.178 C 
ATOM     25  C   LIG    1       25.999 -13.210   2.850  0.00  0.00    +0.133 C 
ENDBRANCH   5  20
TORSDOF 4
ENDMDL
MODEL 2
REMARK VINA RESULT:      -2.1      1.355      2.066
REMARK  Name = *****
REMARK                            x       y       z     vdW  Elec       q    Type
REMARK                         _______ _______ _______ _____ _____    ______ ____
ROOT
ATOM      1  C   LIG    1       23.669 -17.791   4.281  0.00  0.00    +0.042 A 
ATOM      2  C   LIG    1       24.896 -17.514   3.682  0.00  0.00    +0.063 A 
ATOM      3  C   LIG    1       25.268 -16.195   3.387  0.00  0.00    +0.146 A 
ATOM      4  F   LIG    1       26.470 -16.045   2.806  0.00  0.00    -0.203 F 
ATOM      5  C   LIG    1       24.439 -15.084   3.651  0.00  0.00    +0.066 A 
ATOM      6  C   LIG    1       23.215 -15.388   4.261  0.00  0.00    +0.028 A 
ATOM      7  C   LIG    1       22.836 -16.705   4.555  0.00  0.00    +0.026 A 
ENDROOT
BRANCH   1  12
ATOM      8  C   LIG    1       22.371 -20.937   5.735  0.00  0.00    +0.213 C 
ATOM      9  O   LIG    1       22.802 -21.306   4.416  0.00  0.00    -0.444 OA
ATOM     10  C   LIG    1       23.441 -20.243   3.844  0.00  0.00    +0.408 C 
ATOM     11  O   LIG    1       24.026 -20.364   2.774  0.00  0.00    -0.226 OA
ATOM     12  N   LIG    1       23.296 -19.116   4.635  0.00  0.00    -0.234 N 
ATOM     13  C   LIG    1       22.436 -19.420   5.741  0.00  0.00    +0.163 C 
BRANCH   8  14
ATOM     14  C   LIG    1       23.310 -21.571   6.767  0.00  0.00    +0.150 C 
BRANCH  14  17
ATOM     15  C   LIG    1       26.757 -19.967   6.745  0.00  0.00    +0.109 C 
ATOM     16  C   LIG    1       25.622 -20.833   6.263  0.00  0.00    +0.210 C 
ATOM     17  N   LIG    1       24.490 -20.763   7.041  0.00  0.00    -0.312 N 
ATOM     18  H   LIG    1       24.443 -20.082   7.789  0.00  0.00    +0.149 HD
ATOM     19  O   LIG    1       25.722 -21.571   5.288  0.00  0.00    -0.276 OA
ENDBRANCH  14  17
ENDBRANCH   8  14
ENDBRANCH   1  12
BRANCH   5  20
ATOM     20  N   LIG    1       24.778 -13.735   3.384  0.00  0.00    -0.323 N 
ATOM     21  C   LIG    1       23.902 -13.077   2.378  0.00  0.00    +0.133 C 
ATOM     22  C   LIG    1       24.284 -11.602   2.181  0.00  0.00    +0.178 C 
ATOM     23  O   LIG    1       25.670 -11.447   1.853  0.00  0.00    -0.377 OA
ATOM     24  C   LIG    1       26.471 -11.960   2.925  0.00  0.00    +0.178 C 
ATOM     25  C   LIG    1       26.215 -13.455   3.148  0.00  0.00    +0.133 C 
ENDBRANCH   5  20
TORSDOF 4
ENDMDL
MODEL 3
REMARK VINA RESULT:      -1.7      2.135      7.725
REMARK  Name = *****
REMARK                            x       y       z     vdW  Elec       q    Type
REMARK                         _______ _______ _______ _____ _____    ______ ____
ROOT
ATOM      1  C   LIG    1       24.038 -15.171   3.700  0.00  0.00    +0.042 A 
ATOM      2  C   LIG    1       24.998 -16.133   3.392  0.00  0.00    +0.063 A 
ATOM      3  C   LIG    1       24.776 -17.486   3.685  0.00  0.00    +0.146 A 
ATOM      4  F   LIG    1       25.770 -18.326   3.349  0.00  0.00    -0.203 F 
ATOM      5  C   LIG    1       23.603 -17.955   4.314  0.00  0.00    +0.066 A 
ATOM      6  C   LIG    1       22.651 -16.969   4.605  0.00  0.00    +0.028 A 
ATOM      7  C   LIG    1       22.869 -15.615   4.318  0.00  0.00    +0.026 A 
ENDROOT
BRANCH   1  12
ATOM      8  C   LIG    1       24.444 -11.826   2.169  0.00  0.00    +0.213 C 
ATOM      9  O   LIG    1       24.224 -11.555   3.561  0.00  0.00    -0.444 OA
ATOM     10  C   LIG    1       24.212 -12.736   4.247  0.00  0.00    +0.408 C 
ATOM     11  O   LIG    1       24.187 -12.750   5.472  0.00  0.00    -0.226 OA
ATOM     12  N   LIG    1       24.223 -13.803   3.364  0.00  0.00    -0.234 N 
ATOM     13  C   LIG    1       24.140 -13.306   2.021  0.00  0.00    +0.163 C 
BRANCH   8  14
ATOM     14  C   LIG    1       25.895 -11.484   1.812  0.00  0.00    +0.150 C 
BRANCH  14  17
ATOM     15  C   LIG    1       28.309 -13.600   3.849  0.00  0.00    +0.109 C 
ATOM     16  C   LIG    1       27.379 -13.251   2.716  0.00  0.00    +0.210 C 
ATOM     17  N   LIG    1       26.857 -11.982   2.786  0.00  0.00    -0.312 N 
ATOM     18  H   LIG    1       27.197 -11.343   3.495  0.00  0.00    +0.149 HD
ATOM     19  O   LIG    1       27.081 -14.053   1.836  0.00  0.00    -0.276 OA
ENDBRANCH  14  17
ENDBRANCH   8  14
ENDBRANCH   1  12
BRANCH   5  20
ATOM     20  N   LIG    1       23.329 -19.312   4.616  0.00  0.00    -0.323 N 
ATOM     21  C   LIG    1       21.885 -19.664   4.565  0.00  0.00    +0.133 C 
ATOM     22  C   LIG    1       21.663 -21.160   4.840  0.00  0.00    +0.178 C 
ATOM     23  O   LIG    1       22.262 -21.572   6.075  0.00  0.00    -0.377 OA
ATOM     24  C   LIG    1       23.676 -21.350   6.013  0.00  0.00    +0.178 C 
ATOM     25  C   LIG    1       24.002 -19.864   5.816  0.00  0.00    +0.133 C 
ENDBRANCH   5  20
TORSDOF 4
ENDMDL
MODEL 4
REMARK VINA RESULT:      -0.5      1.819      7.464
REMARK  Name = *****
REMARK                            x       y       z     vdW  Elec       q    Type
REMARK                         _______ _______ _______ _____ _____    ______ ____
ROOT
ATOM      1  C   LIG    1       25.418 -15.761   3.321  0.00  0.00    +0.042 A 
ATOM      2  C   LIG    1       24.150 -15.788   3.898  0.00  0.00    +0.063 A 
ATOM      3  C   LIG    1       23.540 -17.005   4.233  0.00  0.00    +0.146 A 
ATOM      4  F   LIG    1       22.316 -16.913   4.779  0.00  0.00    -0.203 F 
ATOM      5  C   LIG    1       24.145 -18.259   3.997  0.00  0.00    +0.066 A 
ATOM      6  C   LIG    1       25.422 -18.204   3.425  0.00  0.00    +0.028 A 
ATOM      7  C   LIG    1       26.034 -16.991   3.085  0.00  0.00    +0.026 A 
ENDROOT
BRANCH   1  12
ATOM      8  C   LIG    1       27.708 -12.945   2.598  0.00  0.00    +0.213 C 
ATOM      9  O   LIG    1       26.415 -12.464   2.200  0.00  0.00    -0.444 OA
ATOM     10  C   LIG    1       25.468 -13.377   2.568  0.00  0.00    +0.408 C 
ATOM     11  O   LIG    1       24.275 -13.119   2.465  0.00  0.00    -0.226 OA
ATOM     12  N   LIG    1       26.073 -14.536   3.024  0.00  0.00    -0.234 N 
ATOM     13  C   LIG    1       27.494 -14.425   2.859  0.00  0.00    +0.163 C 
BRANCH   8  14
ATOM     14  C   LIG    1       28.164 -12.186   3.850  0.00  0.00    +0.150 C 
BRANCH  14  17
ATOM     15  C   LIG    1       26.846 -13.736   7.061  0.00  0.00    +0.109 C 
ATOM     16  C   LIG    1       26.809 -12.935   5.785  0.00  0.00    +0.210 C 
ATOM     17  N   LIG    1       27.988 -12.948   5.078  0.00  0.00    -0.312 N 
ATOM     18  H   LIG    1       28.740 -13.557   5.378  0.00  0.00    +0.149 HD
ATOM     19  O   LIG    1       25.825 -12.290   5.438  0.00  0.00    -0.276 OA
ENDBRANCH  14  17
ENDBRANCH   8  14
ENDBRANCH   1  12
BRANCH   5  20
ATOM     20  N   LIG    1       23.574 -19.512   4.331  0.00  0.00    -0.323 N 
ATOM     21  C   LIG    1       22.087 -19.513   4.357  0.00  0.00    +0.133 C 
ATOM     22  C   LIG    1       21.532 -20.913   4.663  0.00  0.00    +0.178 C 
ATOM     23  O   LIG    1       22.080 -21.452   5.873  0.00  0.00    -0.377 OA
ATOM     24  C   LIG    1       23.501 -21.571   5.738  0.00  0.00    +0.178 C 
ATOM     25  C   LIG    1       24.158 -20.205   5.505  0.00  0.00    +0.133 C 
ENDBRANCH   5  20
TORSDOF 4
ENDMDL
MODEL 5
REMARK VINA RESULT:       0.1      1.697      2.186
REMARK  Name = *****
REMARK                            x       y       z     vdW  Elec       q    Type
REMARK                         _______ _______ _______ _____ _____    ______ ____
ROOT
ATOM      1  C   LIG    1       23.394 -17.243   4.187  0.00  0.00    +0.042 A 
ATOM      2  C   LIG    1       24.704 -17.400   3.739  0.00  0.00    +0.063 A 
ATOM      3  C   LIG    1       25.569 -16.300   3.655  0.00  0.00    +0.146 A 
ATOM      4  F   LIG    1       26.807 -16.565   3.206  0.00  0.00    -0.203 F 
ATOM      5  C   LIG    1       25.178 -14.985   3.990  0.00  0.00    +0.066 A 
ATOM      6  C   LIG    1       23.860 -14.856   4.445  0.00  0.00    +0.028 A 
ATOM      7  C   LIG    1       22.990 -15.952   4.528  0.00  0.00    +0.026 A 
ENDROOT
BRANCH   1  12
ATOM      8  C   LIG    1       21.435 -20.226   5.167  0.00  0.00    +0.213 C 
ATOM      9  O   LIG    1       20.699 -19.662   4.071  0.00  0.00    -0.444 OA
ATOM     10  C   LIG    1       21.421 -18.634   3.534  0.00  0.00    +0.408 C 
ATOM     11  O   LIG    1       21.063 -18.093   2.494  0.00  0.00    -0.226 OA
ATOM     12  N   LIG    1       22.519 -18.354   4.329  0.00  0.00    -0.234 N 
ATOM     13  C   LIG    1       22.472 -19.171   5.507  0.00  0.00    +0.163 C 
BRANCH   8  14
ATOM     14  C   LIG    1       22.065 -21.550   4.721  0.00  0.00    +0.150 C 
BRANCH  14  17
ATOM     15  C   LIG    1       25.713 -21.465   5.791  0.00  0.00    +0.109 C 
ATOM     16  C   LIG    1       24.217 -21.547   5.952  0.00  0.00    +0.210 C 
ATOM     17  N   LIG    1       23.521 -21.536   4.767  0.00  0.00    -0.312 N 
ATOM     18  H   LIG    1       24.030 -21.588   3.892  0.00  0.00    +0.149 HD
ATOM     19  O   LIG    1       23.671 -21.572   7.051  0.00  0.00    -0.276 OA
ENDBRANCH  14  17
ENDBRANCH   8  14
ENDBRANCH   1  12
BRANCH   5  20
ATOM     20  N   LIG    1       26.020 -13.848   3.934  0.00  0.00    -0.323 N 
ATOM     21  C   LIG    1       26.359 -13.411   2.553  0.00  0.00    +0.133 C 
ATOM     22  C   LIG    1       27.221 -12.139   2.562  0.00  0.00    +0.178 C 
ATOM     23  O   LIG    1       28.396 -12.295   3.368  0.00  0.00    -0.377 OA
ATOM     24  C   LIG    1       28.010 -12.565   4.722  0.00  0.00    +0.178 C 
ATOM     25  C   LIG    1       27.205 -13.866   4.826  0.00  0.00    +0.133 C 
ENDBRANCH   5  20
TORSDOF 4
ENDMDL
MODEL 6
REMARK VINA RESULT:       0.2      1.953      7.608
REMARK  Name = *****
REMARK                            x       y       z     vdW  Elec       q    Type
REMARK                         _______ _______ _______ _____ _____    ______ ____
ROOT
ATOM      1  C   LIG    1       24.222 -15.149   3.553  0.00  0.00    +0.042 A 
ATOM      2  C   LIG    1       23.029 -15.542   4.155  0.00  0.00    +0.063 A 
ATOM      3  C   LIG    1       22.804 -16.884   4.491  0.00  0.00    +0.146 A 
ATOM      4  F   LIG    1       21.617 -17.151   5.063  0.00  0.00    -0.203 F 
ATOM      5  C   LIG    1       23.738 -17.910   4.232  0.00  0.00    +0.066 A 
ATOM      6  C   LIG    1       24.933 -17.488   3.635  0.00  0.00    +0.028 A 
ATOM      7  C   LIG    1       25.162 -16.148   3.294  0.00  0.00    +0.026 A 
ENDROOT
BRANCH   1  12
ATOM      8  C   LIG    1       25.115 -11.843   2.151  0.00  0.00    +0.213 C 
ATOM      9  O   LIG    1       24.353 -11.536   3.328  0.00  0.00    -0.444 OA
ATOM     10  C   LIG    1       24.101 -12.693   4.008  0.00  0.00    +0.408 C 
ATOM     11  O   LIG    1       23.591 -12.667   5.123  0.00  0.00    -0.226 OA
ATOM     12  N   LIG    1       24.490 -13.786   3.253  0.00  0.00    -0.234 N 
ATOM     13  C   LIG    1       24.934 -13.338   1.965  0.00  0.00    +0.163 C 
BRANCH   8  14
ATOM     14  C   LIG    1       26.579 -11.451   2.382  0.00  0.00    +0.150 C 
BRANCH  14  17
ATOM     15  C   LIG    1       28.689 -14.194   3.956  0.00  0.00    +0.109 C 
ATOM     16  C   LIG    1       27.723 -13.039   3.903  0.00  0.00    +0.210 C 
ATOM     17  N   LIG    1       27.446 -12.594   2.632  0.00  0.00    -0.312 N 
ATOM     18  H   LIG    1       27.797 -13.114   1.837  0.00  0.00    +0.149 HD
ATOM     19  O   LIG    1       27.264 -12.514   4.913  0.00  0.00    -0.276 OA
ENDBRANCH  14  17
ENDBRANCH   8  14
ENDBRANCH   1  12
BRANCH   5  20
ATOM     20  N   LIG    1       23.561 -19.275   4.567  0.00  0.00    -0.323 N 
ATOM     21  C   LIG    1       22.149 -19.651   4.848  0.00  0.00    +0.133 C 
ATOM     22  C   LIG    1       22.017 -21.154   5.141  0.00  0.00    +0.178 C 
ATOM     23  O   LIG    1       22.894 -21.572   6.196  0.00  0.00    -0.377 OA
ATOM     24  C   LIG    1       24.251 -21.325   5.809  0.00  0.00    +0.178 C 
ATOM     25  C   LIG    1       24.502 -19.832   5.568  0.00  0.00    +0.133 C 
ENDBRANCH   5  20
TORSDOF 4
ENDMDL
MODEL 7
REMARK VINA RESULT:       0.6      2.480      3.733
REMARK  Name = *****
REMARK                            x       y       z     vdW  Elec       q    Type
REMARK                         _______ _______ _______ _____ _____    ______ ____
ROOT
ATOM      1  C   LIG    1       26.924 -17.336   4.458  0.00  0.00    +0.042 A 
ATOM      2  C   LIG    1       27.782 -16.240   4.526  0.00  0.00    +0.063 A 
ATOM      3  C   LIG    1       27.338 -14.959   4.168  0.00  0.00    +0.146 A 
ATOM      4  F   LIG    1       28.250 -13.978   4.268  0.00  0.00    -0.203 F 
ATOM      5  C   LIG    1       26.030 -14.699   3.707  0.00  0.00    +0.066 A 
ATOM      6  C   LIG    1       25.185 -15.815   3.656  0.00  0.00    +0.028 A 
ATOM      7  C   LIG    1       25.624 -17.098   4.009  0.00  0.00    +0.026 A 
ENDROOT
BRANCH   1  12
ATOM      8  C   LIG    1       27.445 -20.929   5.173  0.00  0.00    +0.213 C 
ATOM      9  O   LIG    1       28.697 -20.314   5.513  0.00  0.00    -0.444 OA
ATOM     10  C   LIG    1       28.562 -18.957   5.429  0.00  0.00    +0.408 C 
ATOM     11  O   LIG    1       29.456 -18.213   5.815  0.00  0.00    -0.226 OA
ATOM     12  N   LIG    1       27.340 -18.632   4.865  0.00  0.00    -0.234 N 
ATOM     13  C   LIG    1       26.668 -19.834   4.465  0.00  0.00    +0.163 C 
BRANCH   8  14
ATOM     14  C   LIG    1       26.755 -21.409   6.455  0.00  0.00    +0.150 C 
BRANCH  14  17
ATOM     15  C   LIG    1       23.211 -20.044   6.267  0.00  0.00    +0.109 C 
ATOM     16  C   LIG    1       24.409 -20.866   5.867  0.00  0.00    +0.210 C 
ATOM     17  N   LIG    1       25.488 -20.737   6.708  0.00  0.00    -0.312 N 
ATOM     18  H   LIG    1       25.386 -20.213   7.570  0.00  0.00    +0.149 HD
ATOM     19  O   LIG    1       24.429 -21.553   4.850  0.00  0.00    -0.276 OA
ENDBRANCH  14  17
ENDBRANCH   8  14
ENDBRANCH   1  12
BRANCH   5  20
ATOM     20  N   LIG    1       25.534 -13.421   3.349  0.00  0.00    -0.323 N 
ATOM     21  C   LIG    1       24.058 -13.286   3.476  0.00  0.00    +0.133 C 
ATOM     22  C   LIG    1       23.593 -11.862   3.134  0.00  0.00    +0.178 C 
ATOM     23  O   LIG    1       24.050 -11.447   1.840  0.00  0.00    -0.377 OA
ATOM     24  C   LIG    1       25.483 -11.450   1.820  0.00  0.00    +0.178 C 
ATOM     25  C   LIG    1       26.044 -12.853   2.077  0.00  0.00    +0.133 C 
ENDBRANCH   5  20
TORSDOF 4
ENDMDL
MODEL 8
REMARK VINA RESULT:       0.7      1.826      3.007
REMARK  Name = *****
REMARK                            x       y       z     vdW  Elec       q    Type
REMARK                         _______ _______ _______ _____ _____    ______ ____
ROOT
ATOM      1  C   LIG    1       25.775 -18.345   4.179  0.00  0.00    +0.042 A 
ATOM      2  C   LIG    1       27.117 -18.064   4.426  0.00  0.00    +0.063 A 
ATOM      3  C   LIG    1       27.659 -16.812   4.099  0.00  0.00    +0.146 A 
ATOM      4  F   LIG    1       28.964 -16.652   4.377  0.00  0.00    -0.203 F 
ATOM      5  C   LIG    1       26.907 -15.782   3.494  0.00  0.00    +0.066 A 
ATOM      6  C   LIG    1       25.560 -16.088   3.264  0.00  0.00    +0.028 A 
ATOM      7  C   LIG    1       25.014 -17.337   3.585  0.00  0.00    +0.026 A 
ENDROOT
BRANCH   1  12
ATOM      8  C   LIG    1       23.978 -21.563   4.515  0.00  0.00    +0.213 C 
ATOM      9  O   LIG    1       24.925 -21.570   5.594  0.00  0.00    -0.444 OA
ATOM     10  C   LIG    1       25.542 -20.352   5.653  0.00  0.00    +0.408 C 
ATOM     11  O   LIG    1       26.285 -20.070   6.584  0.00  0.00    -0.226 OA
ATOM     12  N   LIG    1       25.196 -19.588   4.551  0.00  0.00    -0.234 N 
ATOM     13  C   LIG    1       24.385 -20.373   3.665  0.00  0.00    +0.163 C 
BRANCH   8  14
ATOM     14  C   LIG    1       22.564 -21.421   5.088  0.00  0.00    +0.150 C 
BRANCH  14  17
ATOM     15  C   LIG    1       20.616 -18.556   3.522  0.00  0.00    +0.109 C 
ATOM     16  C   LIG    1       21.620 -19.228   4.423  0.00  0.00    +0.210 C 
ATOM     17  N   LIG    1       21.693 -20.591   4.266  0.00  0.00    -0.312 N 
ATOM     18  H   LIG    1       21.179 -21.033   3.513  0.00  0.00    +0.149 HD
ATOM     19  O   LIG    1       22.277 -18.611   5.256  0.00  0.00    -0.276 OA
ENDBRANCH  14  17
ENDBRANCH   8  14
ENDBRANCH   1  12
BRANCH   5  20
ATOM     20  N   LIG    1       27.407 -14.500   3.159  0.00  0.00    -0.323 N 
ATOM     21  C   LIG    1       28.366 -13.945   4.153  0.00  0.00    +0.133 C 
ATOM     22  C   LIG    1       28.917 -12.584   3.701  0.00  0.00    +0.178 C 
ATOM     23  O   LIG    1       27.868 -11.654   3.405  0.00  0.00    -0.377 OA
ATOM     24  C   LIG    1       27.063 -12.169   2.338  0.00  0.00    +0.178 C 
ATOM     25  C   LIG    1       26.404 -13.498   2.725  0.00  0.00    +0.133 C 
ENDBRANCH   5  20
TORSDOF 4
ENDMDL
MODEL 9
REMARK VINA RESULT:       0.8      2.261      7.658
REMARK  Name = *****
REMARK                            x       y       z     vdW  Elec       q    Type
REMARK                         _______ _______ _______ _____ _____    ______ ____
ROOT
ATOM      1  C   LIG    1       25.679 -16.129   3.618  0.00  0.00    +0.042 A 
ATOM      2  C   LIG    1       26.154 -17.415   3.369  0.00  0.00    +0.063 A 
ATOM      3  C   LIG    1       25.305 -18.525   3.475  0.00  0.00    +0.146 A 
ATOM      4  F   LIG    1       25.869 -19.717   3.217  0.00  0.00    -0.203 F 
ATOM      5  C   LIG    1       23.948 -18.424   3.851  0.00  0.00    +0.066 A 
ATOM      6  C   LIG    1       23.494 -17.121   4.087  0.00  0.00    +0.028 A 
ATOM      7  C   LIG    1       24.338 -16.007   3.986  0.00  0.00    +0.026 A 
ENDROOT
BRANCH   1  12
ATOM      8  C   LIG    1       28.306 -13.523   3.587  0.00  0.00    +0.213 C 
ATOM      9  O   LIG    1       27.375 -13.101   2.579  0.00  0.00    -0.444 OA
ATOM     10  C   LIG    1       26.282 -13.919   2.613  0.00  0.00    +0.408 C 
ATOM     11  O   LIG    1       25.288 -13.666   1.943  0.00  0.00    -0.226 OA
ATOM     12  N   LIG    1       26.511 -14.987   3.465  0.00  0.00    -0.234 N 
ATOM     13  C   LIG    1       27.860 -14.928   3.947  0.00  0.00    +0.163 C 
BRANCH   8  14
ATOM     14  C   LIG    1       28.231 -12.558   4.777  0.00  0.00    +0.150 C 
BRANCH  14  17
ATOM     15  C   LIG    1       24.622 -11.660   5.567  0.00  0.00    +0.109 C 
ATOM     16  C   LIG    1       25.898 -12.461   5.608  0.00  0.00    +0.210 C 
ATOM     17  N   LIG    1       26.936 -11.903   4.901  0.00  0.00    -0.312 N 
ATOM     18  H   LIG    1       26.827 -10.975   4.508  0.00  0.00    +0.149 HD
ATOM     19  O   LIG    1       25.981 -13.541   6.185  0.00  0.00    -0.276 OA
ENDBRANCH  14  17
ENDBRANCH   8  14
ENDBRANCH   1  12
BRANCH   5  20
ATOM     20  N   LIG    1       23.050 -19.515   3.957  0.00  0.00    -0.323 N 
ATOM     21  C   LIG    1       21.626 -19.152   3.729  0.00  0.00    +0.133 C 
ATOM     22  C   LIG    1       20.715 -20.387   3.796  0.00  0.00    +0.178 C 
ATOM     23  O   LIG    1       20.884 -21.111   5.021  0.00  0.00    -0.377 OA
ATOM     24  C   LIG    1       22.239 -21.568   5.118  0.00  0.00    +0.178 C 
ATOM     25  C   LIG    1       23.225 -20.395   5.137  0.00  0.00    +0.133 C 
ENDBRANCH   5  20
TORSDOF 4
ENDMDL
