MODEL 1
REMARK VINA RESULT:      -7.8      0.000      0.000
REMARK  Name = *****
REMARK                            x       y       z     vdW  Elec       q    Type
REMARK                         _______ _______ _______ _____ _____    ______ ____
ROOT
ATOM      1  C   LIG    1       27.926 -20.110   6.349  0.00  0.00    -0.017 A 
ATOM      2  C   LIG    1       28.532 -20.827   7.392  0.00  0.00    +0.015 A 
ATOM      3  C   LIG    1       29.881 -20.641   7.731  0.00  0.00    +0.019 A 
ATOM      4  C   LIG    1       30.612 -19.666   7.042  0.00  0.00    +0.122 A 
ATOM      5  C   LIG    1       30.023 -18.910   6.036  0.00  0.00    +0.046 A 
ATOM      6  C   LIG    1       28.689 -19.124   5.697  0.00  0.00    +0.010 A 
ENDROOT
BRANCH   4   7
ATOM      7  O   LIG    1       31.920 -19.469   7.376  0.00  0.00    -0.506 OA
ATOM      8  H   LIG    1       32.381 -20.326   7.331  0.00  0.00    +0.292 HD
ENDBRANCH   4   7
BRANCH   1   9
ATOM      9  C   LIG    1       26.486 -20.348   5.924  0.00  0.00    +0.158 C 
BRANCH   9  10
ATOM     10  O   LIG    1       26.418 -20.492   4.496  0.00  0.00    -0.386 OA
ATOM     11  H   LIG    1       26.172 -21.420   4.345  0.00  0.00    +0.210 HD
ENDBRANCH   9  10
BRANCH   9  12
ATOM     12  C   LIG    1       25.771 -21.583   6.538  0.00  0.00    +0.117 C 
BRANCH  12  13
ATOM     13  N   LIG    1       25.193 -22.503   5.533  0.00  0.00    -0.309 NA
ATOM     14  H   LIG    1       24.338 -22.091   5.161  0.00  0.00    +0.122 HD
BRANCH  13  16
ATOM     15  C   LIG    1       25.034 -24.922   4.931  0.00  0.00    +0.027 C 
ATOM     16  C   LIG    1       24.880 -23.859   6.033  0.00  0.00    +0.011 C 
ATOM     17  C   LIG    1       25.897 -24.180   7.146  0.00  0.00    +0.027 C 
ATOM     18  C   LIG    1       23.470 -23.924   6.640  0.00  0.00    +0.027 C 
ENDBRANCH  13  16
ENDBRANCH  12  13
ENDBRANCH   9  12
ENDBRANCH   1   9
BRANCH   3  19
ATOM     19  C   LIG    1       30.506 -21.491   8.801  0.00  0.00    +0.194 C 
BRANCH  19  20
ATOM     20  O   LIG    1       31.774 -21.976   8.380  0.00  0.00    -0.390 OA
ATOM     21  H   LIG    1       32.151 -22.433   9.152  0.00  0.00    +0.210 HD
ENDBRANCH  19  20
ENDBRANCH   3  19
TORSDOF 8
ENDMDL
MODEL 2
REMARK VINA RESULT:      -7.7      1.400      1.834
REMARK  Name = *****
REMARK                            x       y       z     vdW  Elec       q    Type
REMARK                         _______ _______ _______ _____ _____    ______ ____
ROOT
ATOM      1  C   LIG    1       28.635 -20.074   7.061  0.00  0.00    -0.017 A 
ATOM      2  C   LIG    1       29.175 -21.109   7.838  0.00  0.00    +0.015 A 
ATOM      3  C   LIG    1       30.404 -20.972   8.503  0.00  0.00    +0.019 A 
ATOM      4  C   LIG    1       31.066 -19.741   8.430  0.00  0.00    +0.122 A 
ATOM      5  C   LIG    1       30.530 -18.684   7.704  0.00  0.00    +0.046 A 
ATOM      6  C   LIG    1       29.321 -18.845   7.031  0.00  0.00    +0.010 A 
ENDROOT
BRANCH   4   7
ATOM      7  O   LIG    1       32.254 -19.594   9.085  0.00  0.00    -0.506 OA
ATOM      8  H   LIG    1       32.309 -18.680   9.419  0.00  0.00    +0.292 HD
ENDBRANCH   4   7
BRANCH   1   9
ATOM      9  C   LIG    1       27.341 -20.229   6.280  0.00  0.00    +0.158 C 
BRANCH   9  10
ATOM     10  O   LIG    1       27.623 -20.256   4.871  0.00  0.00    -0.386 OA
ATOM     11  H   LIG    1       26.906 -19.747   4.458  0.00  0.00    +0.210 HD
ENDBRANCH   9  10
BRANCH   9  12
ATOM     12  C   LIG    1       26.482 -21.486   6.593  0.00  0.00    +0.117 C 
BRANCH  12  13
ATOM     13  N   LIG    1       25.377 -21.712   5.633  0.00  0.00    -0.309 NA
ATOM     14  H   LIG    1       25.422 -21.001   4.904  0.00  0.00    +0.122 HD
BRANCH  13  16
ATOM     15  C   LIG    1       23.559 -23.101   6.635  0.00  0.00    +0.027 C 
ATOM     16  C   LIG    1       24.022 -21.692   6.224  0.00  0.00    +0.011 C 
ATOM     17  C   LIG    1       24.093 -20.827   7.498  0.00  0.00    +0.027 C 
ATOM     18  C   LIG    1       23.001 -21.056   5.270  0.00  0.00    +0.027 C 
ENDBRANCH  13  16
ENDBRANCH  12  13
ENDBRANCH   9  12
ENDBRANCH   1   9
BRANCH   3  19
ATOM     19  C   LIG    1       30.980 -22.138   9.255  0.00  0.00    +0.194 C 
BRANCH  19  20
ATOM     20  O   LIG    1       32.193 -22.573   8.655  0.00  0.00    -0.390 OA
ATOM     21  H   LIG    1       32.387 -21.926   7.954  0.00  0.00    +0.210 HD
ENDBRANCH  19  20
ENDBRANCH   3  19
TORSDOF 8
ENDMDL
MODEL 3
REMARK VINA RESULT:      -7.7      2.925      6.503
REMARK  Name = *****
REMARK                            x       y       z     vdW  Elec       q    Type
REMARK                         _______ _______ _______ _____ _____    ______ ____
ROOT
ATOM      1  C   LIG    1       25.120 -21.980   7.412  0.00  0.00    -0.017 A 
ATOM      2  C   LIG    1       25.879 -23.106   7.061  0.00  0.00    +0.015 A 
ATOM      3  C   LIG    1       25.277 -24.301   6.634  0.00  0.00    +0.019 A 
ATOM      4  C   LIG    1       23.884 -24.333   6.501  0.00  0.00    +0.122 A 
ATOM      5  C   LIG    1       23.112 -23.217   6.799  0.00  0.00    +0.046 A 
ATOM      6  C   LIG    1       23.724 -22.047   7.244  0.00  0.00    +0.010 A 
ENDROOT
BRANCH   4   7
ATOM      7  O   LIG    1       23.292 -25.486   6.073  0.00  0.00    -0.506 OA
ATOM      8  H   LIG    1       22.987 -25.352   5.157  0.00  0.00    +0.292 HD
ENDBRANCH   4   7
BRANCH   1   9
ATOM      9  C   LIG    1       25.751 -20.703   7.941  0.00  0.00    +0.158 C 
BRANCH   9  10
ATOM     10  O   LIG    1       25.870 -20.775   9.372  0.00  0.00    -0.386 OA
ATOM     11  H   LIG    1       25.028 -20.430   9.715  0.00  0.00    +0.210 HD
ENDBRANCH   9  10
BRANCH   9  12
ATOM     12  C   LIG    1       27.156 -20.337   7.389  0.00  0.00    +0.117 C 
BRANCH  12  13
ATOM     13  N   LIG    1       28.133 -19.956   8.434  0.00  0.00    -0.309 NA
ATOM     14  H   LIG    1       27.740 -19.200   8.994  0.00  0.00    +0.122 HD
BRANCH  13  16
ATOM     15  C   LIG    1       30.016 -18.344   8.737  0.00  0.00    +0.027 C 
ATOM     16  C   LIG    1       29.454 -19.527   7.930  0.00  0.00    +0.011 C 
ATOM     17  C   LIG    1       30.417 -20.719   8.104  0.00  0.00    +0.027 C 
ATOM     18  C   LIG    1       29.399 -19.171   6.436  0.00  0.00    +0.027 C 
ENDBRANCH  13  16
ENDBRANCH  12  13
ENDBRANCH   9  12
ENDBRANCH   1   9
BRANCH   3  19
ATOM     19  C   LIG    1       26.128 -25.505   6.348  0.00  0.00    +0.194 C 
BRANCH  19  20
ATOM     20  O   LIG    1       25.943 -25.944   5.009  0.00  0.00    -0.390 OA
ATOM     21  H   LIG    1       24.982 -25.930   4.857  0.00  0.00    +0.210 HD
ENDBRANCH  19  20
ENDBRANCH   3  19
TORSDOF 8
ENDMDL
MODEL 4
REMARK VINA RESULT:      -7.6      1.471      2.681
REMARK  Name = *****
REMARK                            x       y       z     vdW  Elec       q    Type
REMARK                         _______ _______ _______ _____ _____    ______ ____
ROOT
ATOM      1  C   LIG    1       26.343 -20.317   6.069  0.00  0.00    -0.017 A 
ATOM      2  C   LIG    1       27.600 -19.886   5.621  0.00  0.00    +0.015 A 
ATOM      3  C   LIG    1       28.667 -19.666   6.506  0.00  0.00    +0.019 A 
ATOM      4  C   LIG    1       28.474 -19.949   7.864  0.00  0.00    +0.122 A 
ATOM      5  C   LIG    1       27.252 -20.420   8.328  0.00  0.00    +0.046 A 
ATOM      6  C   LIG    1       26.197 -20.611   7.438  0.00  0.00    +0.010 A 
ENDROOT
BRANCH   4   7
ATOM      7  O   LIG    1       29.510 -19.752   8.729  0.00  0.00    -0.506 OA
ATOM      8  H   LIG    1       29.175 -19.264   9.504  0.00  0.00    +0.292 HD
ENDBRANCH   4   7
BRANCH   1   9
ATOM      9  C   LIG    1       25.159 -20.494   5.134  0.00  0.00    +0.158 C 
BRANCH   9  10
ATOM     10  O   LIG    1       25.619 -20.562   3.774  0.00  0.00    -0.386 OA
ATOM     11  H   LIG    1       26.251 -21.301   3.756  0.00  0.00    +0.210 HD
ENDBRANCH   9  10
BRANCH   9  12
ATOM     12  C   LIG    1       24.261 -21.739   5.371  0.00  0.00    +0.117 C 
BRANCH  12  13
ATOM     13  N   LIG    1       24.850 -23.007   4.885  0.00  0.00    -0.309 NA
ATOM     14  H   LIG    1       24.360 -23.297   4.040  0.00  0.00    +0.122 HD
BRANCH  13  16
ATOM     15  C   LIG    1       23.465 -24.200   6.587  0.00  0.00    +0.027 C 
ATOM     16  C   LIG    1       24.815 -24.124   5.853  0.00  0.00    +0.011 C 
ATOM     17  C   LIG    1       24.991 -25.428   5.049  0.00  0.00    +0.027 C 
ATOM     18  C   LIG    1       25.965 -24.028   6.866  0.00  0.00    +0.027 C 
ENDBRANCH  13  16
ENDBRANCH  12  13
ENDBRANCH   9  12
ENDBRANCH   1   9
BRANCH   3  19
ATOM     19  C   LIG    1       29.969 -19.125   5.987  0.00  0.00    +0.194 C 
BRANCH  19  20
ATOM     20  O   LIG    1       29.748 -17.988   5.164  0.00  0.00    -0.390 OA
ATOM     21  H   LIG    1       29.110 -17.433   5.646  0.00  0.00    +0.210 HD
ENDBRANCH  19  20
ENDBRANCH   3  19
TORSDOF 8
ENDMDL
MODEL 5
REMARK VINA RESULT:      -7.6      1.389      2.289
REMARK  Name = *****
REMARK                            x       y       z     vdW  Elec       q    Type
REMARK                         _______ _______ _______ _____ _____    ______ ____
ROOT
ATOM      1  C   LIG    1       28.799 -20.089   7.070  0.00  0.00    -0.017 A 
ATOM      2  C   LIG    1       29.756 -19.100   7.339  0.00  0.00    +0.015 A 
ATOM      3  C   LIG    1       30.881 -19.355   8.139  0.00  0.00    +0.019 A 
ATOM      4  C   LIG    1       31.070 -20.655   8.624  0.00  0.00    +0.122 A 
ATOM      5  C   LIG    1       30.161 -21.665   8.333  0.00  0.00    +0.046 A 
ATOM      6  C   LIG    1       29.038 -21.387   7.557  0.00  0.00    +0.010 A 
ENDROOT
BRANCH   4   7
ATOM      7  O   LIG    1       32.168 -20.916   9.390  0.00  0.00    -0.506 OA
ATOM      8  H   LIG    1       31.875 -21.054  10.310  0.00  0.00    +0.292 HD
ENDBRANCH   4   7
BRANCH   1   9
ATOM      9  C   LIG    1       27.542 -19.811   6.263  0.00  0.00    +0.158 C 
BRANCH   9  10
ATOM     10  O   LIG    1       27.716 -20.276   4.914  0.00  0.00    -0.386 OA
ATOM     11  H   LIG    1       28.665 -20.174   4.730  0.00  0.00    +0.210 HD
ENDBRANCH   9  10
BRANCH   9  12
ATOM     12  C   LIG    1       26.220 -20.435   6.790  0.00  0.00    +0.117 C 
BRANCH  12  13
ATOM     13  N   LIG    1       25.852 -21.708   6.129  0.00  0.00    -0.309 NA
ATOM     14  H   LIG    1       25.172 -21.514   5.395  0.00  0.00    +0.122 HD
BRANCH  13  16
ATOM     15  C   LIG    1       25.917 -24.119   6.775  0.00  0.00    +0.027 C 
ATOM     16  C   LIG    1       25.288 -22.738   7.028  0.00  0.00    +0.011 C 
ATOM     17  C   LIG    1       25.630 -22.319   8.472  0.00  0.00    +0.027 C 
ATOM     18  C   LIG    1       23.760 -22.820   6.903  0.00  0.00    +0.027 C 
ENDBRANCH  13  16
ENDBRANCH  12  13
ENDBRANCH   9  12
ENDBRANCH   1   9
BRANCH   3  19
ATOM     19  C   LIG    1       31.834 -18.241   8.466  0.00  0.00    +0.194 C 
BRANCH  19  20
ATOM     20  O   LIG    1       32.158 -18.247   9.850  0.00  0.00    -0.390 OA
ATOM     21  H   LIG    1       31.511 -17.656  10.275  0.00  0.00    +0.210 HD
ENDBRANCH  19  20
ENDBRANCH   3  19
TORSDOF 8
ENDMDL
MODEL 6
REMARK VINA RESULT:      -7.5      2.044      2.671
REMARK  Name = *****
REMARK                            x       y       z     vdW  Elec       q    Type
REMARK                         _______ _______ _______ _____ _____    ______ ____
ROOT
ATOM      1  C   LIG    1       27.601 -20.502   7.675  0.00  0.00    -0.017 A 
ATOM      2  C   LIG    1       28.700 -19.799   8.190  0.00  0.00    +0.015 A 
ATOM      3  C   LIG    1       29.538 -19.029   7.368  0.00  0.00    +0.019 A 
ATOM      4  C   LIG    1       29.219 -18.921   6.009  0.00  0.00    +0.122 A 
ATOM      5  C   LIG    1       28.110 -19.571   5.482  0.00  0.00    +0.046 A 
ATOM      6  C   LIG    1       27.302 -20.349   6.309  0.00  0.00    +0.010 A 
ENDROOT
BRANCH   4   7
ATOM      7  O   LIG    1       30.019 -18.163   5.205  0.00  0.00    -0.506 OA
ATOM      8  H   LIG    1       30.165 -18.648   4.371  0.00  0.00    +0.292 HD
ENDBRANCH   4   7
BRANCH   1   9
ATOM      9  C   LIG    1       26.725 -21.394   8.539  0.00  0.00    +0.158 C 
BRANCH   9  10
ATOM     10  O   LIG    1       25.893 -20.585   9.386  0.00  0.00    -0.386 OA
ATOM     11  H   LIG    1       25.430 -19.979   8.784  0.00  0.00    +0.210 HD
ENDBRANCH   9  10
BRANCH   9  12
ATOM     12  C   LIG    1       25.786 -22.384   7.796  0.00  0.00    +0.117 C 
BRANCH  12  13
ATOM     13  N   LIG    1       24.366 -21.967   7.778  0.00  0.00    -0.309 NA
ATOM     14  H   LIG    1       23.864 -22.474   8.507  0.00  0.00    +0.122 HD
BRANCH  13  16
ATOM     15  C   LIG    1       24.631 -22.659   5.393  0.00  0.00    +0.027 C 
ATOM     16  C   LIG    1       23.667 -22.181   6.494  0.00  0.00    +0.011 C 
ATOM     17  C   LIG    1       22.622 -23.292   6.723  0.00  0.00    +0.027 C 
ATOM     18  C   LIG    1       22.927 -20.915   6.036  0.00  0.00    +0.027 C 
ENDBRANCH  13  16
ENDBRANCH  12  13
ENDBRANCH   9  12
ENDBRANCH   1   9
BRANCH   3  19
ATOM     19  C   LIG    1       30.750 -18.361   7.952  0.00  0.00    +0.194 C 
BRANCH  19  20
ATOM     20  O   LIG    1       31.939 -18.894   7.387  0.00  0.00    -0.390 OA
ATOM     21  H   LIG    1       32.649 -18.683   8.019  0.00  0.00    +0.210 HD
ENDBRANCH  19  20
ENDBRANCH   3  19
TORSDOF 8
ENDMDL
MODEL 7
REMARK VINA RESULT:      -7.3      3.463      6.012
REMARK  Name = *****
REMARK                            x       y       z     vdW  Elec       q    Type
REMARK                         _______ _______ _______ _____ _____    ______ ____
ROOT
ATOM      1  C   LIG    1       25.048 -22.965   7.269  0.00  0.00    -0.017 A 
ATOM      2  C   LIG    1       25.963 -23.972   6.930  0.00  0.00    +0.015 A 
ATOM      3  C   LIG    1       25.543 -25.223   6.450  0.00  0.00    +0.019 A 
ATOM      4  C   LIG    1       24.173 -25.433   6.251  0.00  0.00    +0.122 A 
ATOM      5  C   LIG    1       23.249 -24.435   6.536  0.00  0.00    +0.046 A 
ATOM      6  C   LIG    1       23.682 -23.208   7.034  0.00  0.00    +0.010 A 
ENDROOT
BRANCH   4   7
ATOM      7  O   LIG    1       23.757 -26.640   5.771  0.00  0.00    -0.506 OA
ATOM      8  H   LIG    1       23.047 -26.485   5.121  0.00  0.00    +0.292 HD
ENDBRANCH   4   7
BRANCH   1   9
ATOM      9  C   LIG    1       25.482 -21.631   7.854  0.00  0.00    +0.158 C 
BRANCH   9  10
ATOM     10  O   LIG    1       26.662 -21.811   8.654  0.00  0.00    -0.386 OA
ATOM     11  H   LIG    1       26.756 -22.774   8.757  0.00  0.00    +0.210 HD
ENDBRANCH   9  10
BRANCH   9  12
ATOM     12  C   LIG    1       25.789 -20.491   6.844  0.00  0.00    +0.117 C 
BRANCH  12  13
ATOM     13  N   LIG    1       25.767 -20.921   5.428  0.00  0.00    -0.309 NA
ATOM     14  H   LIG    1       26.640 -20.639   4.983  0.00  0.00    +0.122 HD
BRANCH  13  16
ATOM     15  C   LIG    1       25.077 -19.199   3.756  0.00  0.00    +0.027 C 
ATOM     16  C   LIG    1       24.642 -20.388   4.631  0.00  0.00    +0.011 C 
ATOM     17  C   LIG    1       24.172 -21.518   3.693  0.00  0.00    +0.027 C 
ATOM     18  C   LIG    1       23.459 -19.984   5.524  0.00  0.00    +0.027 C 
ENDBRANCH  13  16
ENDBRANCH  12  13
ENDBRANCH   9  12
ENDBRANCH   1   9
BRANCH   3  19
ATOM     19  C   LIG    1       26.556 -26.298   6.179  0.00  0.00    +0.194 C 
BRANCH  19  20
ATOM     20  O   LIG    1       26.358 -27.406   7.046  0.00  0.00    -0.390 OA
ATOM     21  H   LIG    1       27.249 -27.719   7.283  0.00  0.00    +0.210 HD
ENDBRANCH  19  20
ENDBRANCH   3  19
TORSDOF 8
ENDMDL
MODEL 8
REMARK VINA RESULT:      -7.3      1.629      2.062
REMARK  Name = *****
REMARK                            x       y       z     vdW  Elec       q    Type
REMARK                         _______ _______ _______ _____ _____    ______ ____
ROOT
ATOM      1  C   LIG    1       27.385 -20.884   7.349  0.00  0.00    -0.017 A 
ATOM      2  C   LIG    1       28.608 -20.518   7.929  0.00  0.00    +0.015 A 
ATOM      3  C   LIG    1       29.507 -19.657   7.280  0.00  0.00    +0.019 A 
ATOM      4  C   LIG    1       29.129 -19.106   6.049  0.00  0.00    +0.122 A 
ATOM      5  C   LIG    1       27.903 -19.416   5.475  0.00  0.00    +0.046 A 
ATOM      6  C   LIG    1       27.033 -20.292   6.122  0.00  0.00    +0.010 A 
ENDROOT
BRANCH   4   7
ATOM      7  O   LIG    1       29.990 -18.256   5.419  0.00  0.00    -0.506 OA
ATOM      8  H   LIG    1       30.008 -18.484   4.471  0.00  0.00    +0.292 HD
ENDBRANCH   4   7
BRANCH   1   9
ATOM      9  C   LIG    1       26.432 -21.869   8.006  0.00  0.00    +0.158 C 
BRANCH   9  10
ATOM     10  O   LIG    1       25.903 -21.301   9.216  0.00  0.00    -0.386 OA
ATOM     11  H   LIG    1       26.386 -20.467   9.338  0.00  0.00    +0.210 HD
ENDBRANCH   9  10
BRANCH   9  12
ATOM     12  C   LIG    1       25.217 -22.339   7.158  0.00  0.00    +0.117 C 
BRANCH  12  13
ATOM     13  N   LIG    1       25.580 -23.220   6.026  0.00  0.00    -0.309 NA
ATOM     14  H   LIG    1       25.313 -22.764   5.154  0.00  0.00    +0.122 HD
BRANCH  13  16
ATOM     15  C   LIG    1       25.013 -25.245   4.679  0.00  0.00    +0.027 C 
ATOM     16  C   LIG    1       24.964 -24.564   6.057  0.00  0.00    +0.011 C 
ATOM     17  C   LIG    1       25.791 -25.420   7.038  0.00  0.00    +0.027 C 
ATOM     18  C   LIG    1       23.518 -24.510   6.571  0.00  0.00    +0.027 C 
ENDBRANCH  13  16
ENDBRANCH  12  13
ENDBRANCH   9  12
ENDBRANCH   1   9
BRANCH   3  19
ATOM     19  C   LIG    1       30.840 -19.360   7.904  0.00  0.00    +0.194 C 
BRANCH  19  20
ATOM     20  O   LIG    1       31.898 -19.757   7.042  0.00  0.00    -0.390 OA
ATOM     21  H   LIG    1       31.474 -20.010   6.203  0.00  0.00    +0.210 HD
ENDBRANCH  19  20
ENDBRANCH   3  19
TORSDOF 8
ENDMDL
MODEL 9
REMARK VINA RESULT:      -7.2      1.714      2.139
REMARK  Name = *****
REMARK                            x       y       z     vdW  Elec       q    Type
REMARK                         _______ _______ _______ _____ _____    ______ ____
ROOT
ATOM      1  C   LIG    1       28.144 -21.026   7.088  0.00  0.00    -0.017 A 
ATOM      2  C   LIG    1       29.035 -21.501   8.060  0.00  0.00    +0.015 A 
ATOM      3  C   LIG    1       30.318 -20.954   8.220  0.00  0.00    +0.019 A 
ATOM      4  C   LIG    1       30.680 -19.863   7.420  0.00  0.00    +0.122 A 
ATOM      5  C   LIG    1       29.798 -19.343   6.481  0.00  0.00    +0.046 A 
ATOM      6  C   LIG    1       28.537 -19.914   6.320  0.00  0.00    +0.010 A 
ENDROOT
BRANCH   4   7
ATOM      7  O   LIG    1       31.919 -19.315   7.579  0.00  0.00    -0.506 OA
ATOM      8  H   LIG    1       32.555 -20.036   7.743  0.00  0.00    +0.292 HD
ENDBRANCH   4   7
BRANCH   1   9
ATOM      9  C   LIG    1       26.779 -21.651   6.856  0.00  0.00    +0.158 C 
BRANCH   9  10
ATOM     10  O   LIG    1       26.222 -22.082   8.108  0.00  0.00    -0.386 OA
ATOM     11  H   LIG    1       25.284 -22.261   7.922  0.00  0.00    +0.210 HD
ENDBRANCH   9  10
BRANCH   9  12
ATOM     12  C   LIG    1       25.708 -20.759   6.168  0.00  0.00    +0.117 C 
BRANCH  12  13
ATOM     13  N   LIG    1       24.665 -21.521   5.445  0.00  0.00    -0.309 NA
ATOM     14  H   LIG    1       24.576 -21.146   4.502  0.00  0.00    +0.122 HD
BRANCH  13  16
ATOM     15  C   LIG    1       22.982 -22.878   6.697  0.00  0.00    +0.027 C 
ATOM     16  C   LIG    1       23.330 -21.512   6.081  0.00  0.00    +0.011 C 
ATOM     17  C   LIG    1       23.377 -20.476   7.222  0.00  0.00    +0.027 C 
ATOM     18  C   LIG    1       22.237 -21.083   5.090  0.00  0.00    +0.027 C 
ENDBRANCH  13  16
ENDBRANCH  12  13
ENDBRANCH   9  12
ENDBRANCH   1   9
BRANCH   3  19
ATOM     19  C   LIG    1       31.266 -21.552   9.220  0.00  0.00    +0.194 C 
BRANCH  19  20
ATOM     20  O   LIG    1       32.283 -22.298   8.564  0.00  0.00    -0.390 OA
ATOM     21  H   LIG    1       32.210 -22.070   7.620  0.00  0.00    +0.210 HD
ENDBRANCH  19  20
ENDBRANCH   3  19
TORSDOF 8
ENDMDL
