MODEL 1
REMARK VINA RESULT:      -6.4      0.000      0.000
REMARK  Name = *****
REMARK                            x       y       z     vdW  Elec       q    Type
REMARK                         _______ _______ _______ _____ _____    ______ ____
ROOT
ATOM      1  C   LIG    1       25.176 -24.250   7.001  0.00  0.00    +0.122 C 
ENDROOT
BRANCH   1   2
ATOM      2  C   LIG    1       25.555 -25.768   6.823  0.00  0.00    +0.172 C 
ATOM      3  C   LIG    1       26.471 -26.018   5.606  0.00  0.00    +0.176 C 
ATOM      4  C   LIG    1       26.747 -27.513   5.407  0.00  0.00    +0.177 C 
ATOM      5  C   LIG    1       25.435 -28.294   5.324  0.00  0.00    +0.184 C 
ATOM      6  C   LIG    1       24.542 -27.972   6.542  0.00  0.00    +0.207 C 
ATOM      7  O   LIG    1       24.338 -26.544   6.645  0.00  0.00    -0.356 OA
BRANCH   3   8
ATOM      8  O   LIG    1       25.861 -25.516   4.400  0.00  0.00    -0.387 OA
ATOM      9  H   LIG    1       26.096 -24.570   4.314  0.00  0.00    +0.210 HD
ENDBRANCH   3   8
BRANCH   4  10
ATOM     10  O   LIG    1       27.476 -27.719   4.183  0.00  0.00    -0.387 OA
ATOM     11  H   LIG    1       26.904 -28.278   3.618  0.00  0.00    +0.210 HD
ENDBRANCH   4  10
BRANCH   5  12
ATOM     12  O   LIG    1       25.693 -29.688   5.136  0.00  0.00    -0.386 OA
ATOM     13  H   LIG    1       25.936 -30.031   6.022  0.00  0.00    +0.210 HD
ENDBRANCH   5  12
BRANCH   6  14
ATOM     14  S   LIG    1       25.143 -28.701   8.118  0.00  0.00    -0.131 S 
ATOM     15  C   LIG    1       24.113 -30.185   8.154  0.00  0.00    +0.087 C 
ENDBRANCH   6  14
ENDBRANCH   1   2
BRANCH   1  17
ATOM     16  C   LIG    1       26.734 -22.393   7.678  0.00  0.00    +0.231 C 
ATOM     17  N   LIG    1       26.355 -23.391   6.785  0.00  0.00    -0.307 N 
ATOM     18  H   LIG    1       26.754 -23.337   5.852  0.00  0.00    +0.149 HD
ATOM     19  O   LIG    1       26.118 -22.181   8.730  0.00  0.00    -0.274 OA
BRANCH  16  24
ATOM     20  C   LIG    1       28.933 -19.383   7.696  0.00  0.00    +0.005 C 
ATOM     21  C   LIG    1       28.825 -19.683   6.203  0.00  0.00    +0.088 C 
ATOM     22  N   LIG    1       27.744 -20.678   6.079  0.00  0.00    -0.294 NA
ATOM     23  C   LIG    1       26.446 -19.997   6.093  0.00  0.00    +0.105 C 
ATOM     24  C   LIG    1       27.970 -21.585   7.246  0.00  0.00    +0.143 C 
ATOM     25  C   LIG    1       28.596 -20.724   8.354  0.00  0.00    +0.033 C 
BRANCH  20  26
ATOM     26  C   LIG    1       30.294 -18.812   8.111  0.00  0.00    +0.004 C 
BRANCH  26  28
ATOM     27  C   LIG    1       30.343 -17.688  10.380  0.00  0.00    +0.004 C 
ATOM     28  C   LIG    1       30.165 -17.493   8.883  0.00  0.00    -0.003 C 
ENDBRANCH  26  28
ENDBRANCH  20  26
ENDBRANCH  16  24
ENDBRANCH   1  17
BRANCH   1  29
ATOM     29  C   LIG    1       23.979 -23.825   6.101  0.00  0.00    +0.100 C 
ATOM     30  C   LIG    1       22.748 -23.358   6.867  0.00  0.00    +0.026 C 
ATOM     31 CL   LIG    1       24.473 -22.544   4.939  0.00  0.00    -0.120 Cl
ENDBRANCH   1  29
TORSDOF 10
ENDMDL
MODEL 2
REMARK VINA RESULT:      -5.6      5.210      7.981
REMARK  Name = *****
REMARK                            x       y       z     vdW  Elec       q    Type
REMARK                         _______ _______ _______ _____ _____    ______ ____
ROOT
ATOM      1  C   LIG    1       25.652 -30.982   9.004  0.00  0.00    +0.122 C 
ENDROOT
BRANCH   1   2
ATOM      2  C   LIG    1       25.469 -30.641  10.530  0.00  0.00    +0.172 C 
ATOM      3  C   LIG    1       24.022 -30.856  11.022  0.00  0.00    +0.176 C 
ATOM      4  C   LIG    1       23.855 -30.429  12.485  0.00  0.00    +0.177 C 
ATOM      5  C   LIG    1       24.333 -28.991  12.681  0.00  0.00    +0.184 C 
ATOM      6  C   LIG    1       25.767 -28.823  12.133  0.00  0.00    +0.207 C 
ATOM      7  O   LIG    1       25.823 -29.247  10.751  0.00  0.00    -0.356 OA
BRANCH   3   8
ATOM      8  O   LIG    1       23.096 -30.087  10.228  0.00  0.00    -0.387 OA
ATOM      9  H   LIG    1       23.155 -29.153  10.515  0.00  0.00    +0.210 HD
ENDBRANCH   3   8
BRANCH   4  10
ATOM     10  O   LIG    1       22.468 -30.502  12.863  0.00  0.00    -0.387 OA
ATOM     11  H   LIG    1       22.427 -30.215  13.798  0.00  0.00    +0.210 HD
ENDBRANCH   4  10
BRANCH   5  12
ATOM     12  O   LIG    1       24.176 -28.592  14.045  0.00  0.00    -0.386 OA
ATOM     13  H   LIG    1       23.288 -28.911  14.311  0.00  0.00    +0.210 HD
ENDBRANCH   5  12
BRANCH   6  14
ATOM     14  S   LIG    1       27.056 -29.635  13.160  0.00  0.00    -0.131 S 
ATOM     15  C   LIG    1       28.485 -29.362  12.087  0.00  0.00    +0.087 C 
ENDBRANCH   6  14
ENDBRANCH   1   2
BRANCH   1  17
ATOM     16  C   LIG    1       25.012 -29.056   7.517  0.00  0.00    +0.231 C 
ATOM     17  N   LIG    1       25.970 -29.765   8.233  0.00  0.00    -0.307 N 
ATOM     18  H   LIG    1       26.940 -29.577   7.998  0.00  0.00    +0.149 HD
ATOM     19  O   LIG    1       23.820 -29.386   7.502  0.00  0.00    -0.274 OA
BRANCH  16  24
ATOM     20  C   LIG    1       24.666 -26.012   5.392  0.00  0.00    +0.005 C 
ATOM     21  C   LIG    1       25.822 -26.740   4.710  0.00  0.00    +0.088 C 
ATOM     22  N   LIG    1       25.840 -28.090   5.302  0.00  0.00    -0.294 NA
ATOM     23  C   LIG    1       24.842 -28.932   4.637  0.00  0.00    +0.105 C 
ATOM     24  C   LIG    1       25.558 -27.838   6.750  0.00  0.00    +0.143 C 
ATOM     25  C   LIG    1       24.671 -26.586   6.811  0.00  0.00    +0.033 C 
BRANCH  20  26
ATOM     26  C   LIG    1       24.786 -24.484   5.339  0.00  0.00    +0.004 C 
BRANCH  26  28
ATOM     27  C   LIG    1       23.089 -23.253   6.761  0.00  0.00    +0.004 C 
ATOM     28  C   LIG    1       24.496 -23.827   6.694  0.00  0.00    -0.003 C 
ENDBRANCH  26  28
ENDBRANCH  20  26
ENDBRANCH  16  24
ENDBRANCH   1  17
BRANCH   1  29
ATOM     29  C   LIG    1       26.701 -32.106   8.766  0.00  0.00    +0.100 C 
ATOM     30  C   LIG    1       26.321 -33.460   9.352  0.00  0.00    +0.026 C 
ATOM     31 CL   LIG    1       27.048 -32.300   7.011  0.00  0.00    -0.120 Cl
ENDBRANCH   1  29
TORSDOF 10
ENDMDL
MODEL 3
REMARK VINA RESULT:      -5.5      6.591      9.563
REMARK  Name = *****
REMARK                            x       y       z     vdW  Elec       q    Type
REMARK                         _______ _______ _______ _____ _____    ______ ____
ROOT
ATOM      1  C   LIG    1       25.132 -30.174  12.115  0.00  0.00    +0.122 C 
ENDROOT
BRANCH   1   2
ATOM      2  C   LIG    1       23.661 -30.057  12.664  0.00  0.00    +0.172 C 
ATOM      3  C   LIG    1       22.932 -31.416  12.717  0.00  0.00    +0.176 C 
ATOM      4  C   LIG    1       21.475 -31.257  13.168  0.00  0.00    +0.177 C 
ATOM      5  C   LIG    1       20.751 -30.237  12.291  0.00  0.00    +0.184 C 
ATOM      6  C   LIG    1       21.546 -28.913  12.239  0.00  0.00    +0.207 C 
ATOM      7  O   LIG    1       22.901 -29.165  11.802  0.00  0.00    -0.356 OA
BRANCH   3   8
ATOM      8  O   LIG    1       22.927 -32.040  11.417  0.00  0.00    -0.387 OA
ATOM      9  H   LIG    1       23.196 -31.369  10.758  0.00  0.00    +0.210 HD
ENDBRANCH   3   8
BRANCH   4  10
ATOM     10  O   LIG    1       20.787 -32.517  13.061  0.00  0.00    -0.387 OA
ATOM     11  H   LIG    1       20.206 -32.442  12.277  0.00  0.00    +0.210 HD
ENDBRANCH   4  10
BRANCH   5  12
ATOM     12  O   LIG    1       19.392 -30.090  12.710  0.00  0.00    -0.386 OA
ATOM     13  H   LIG    1       18.853 -30.222  11.902  0.00  0.00    +0.210 HD
ENDBRANCH   5  12
BRANCH   6  14
ATOM     14  S   LIG    1       21.490 -27.951  13.804  0.00  0.00    -0.131 S 
ATOM     15  C   LIG    1       22.444 -26.508  13.282  0.00  0.00    +0.087 C 
ENDBRANCH   6  14
ENDBRANCH   1   2
BRANCH   1  17
ATOM     16  C   LIG    1       25.867 -30.854   9.807  0.00  0.00    +0.231 C 
ATOM     17  N   LIG    1       25.155 -30.007  10.650  0.00  0.00    -0.307 N 
ATOM     18  H   LIG    1       24.867 -29.116  10.256  0.00  0.00    +0.149 HD
ATOM     19  O   LIG    1       26.508 -31.823  10.232  0.00  0.00    -0.274 OA
BRANCH  16  24
ATOM     20  C   LIG    1       24.257 -29.295   6.828  0.00  0.00    +0.005 C 
ATOM     21  C   LIG    1       24.657 -30.665   6.286  0.00  0.00    +0.088 C 
ATOM     22  N   LIG    1       25.037 -31.460   7.469  0.00  0.00    -0.294 NA
ATOM     23  C   LIG    1       23.833 -31.999   8.106  0.00  0.00    +0.105 C 
ATOM     24  C   LIG    1       25.791 -30.483   8.315  0.00  0.00    +0.143 C 
ATOM     25  C   LIG    1       25.191 -29.099   8.024  0.00  0.00    +0.033 C 
BRANCH  20  26
ATOM     26  C   LIG    1       24.341 -28.174   5.784  0.00  0.00    +0.004 C 
BRANCH  26  28
ATOM     27  C   LIG    1       24.171 -25.664   6.083  0.00  0.00    +0.004 C 
ATOM     28  C   LIG    1       25.008 -26.909   6.337  0.00  0.00    -0.003 C 
ENDBRANCH  26  28
ENDBRANCH  20  26
ENDBRANCH  16  24
ENDBRANCH   1  17
BRANCH   1  29
ATOM     29  C   LIG    1       26.113 -29.194  12.823  0.00  0.00    +0.100 C 
ATOM     30  C   LIG    1       27.365 -29.853  13.387  0.00  0.00    +0.026 C 
ATOM     31 CL   LIG    1       26.595 -27.859  11.719  0.00  0.00    -0.120 Cl
ENDBRANCH   1  29
TORSDOF 10
ENDMDL
MODEL 4
REMARK VINA RESULT:      -5.4      6.177      9.310
REMARK  Name = *****
REMARK                            x       y       z     vdW  Elec       q    Type
REMARK                         _______ _______ _______ _____ _____    ______ ____
ROOT
ATOM      1  C   LIG    1       24.372 -31.724  10.853  0.00  0.00    +0.122 C 
ENDROOT
BRANCH   1   2
ATOM      2  C   LIG    1       22.846 -31.658  11.232  0.00  0.00    +0.172 C 
ATOM      3  C   LIG    1       21.974 -32.593  10.368  0.00  0.00    +0.176 C 
ATOM      4  C   LIG    1       20.484 -32.439  10.698  0.00  0.00    +0.177 C 
ATOM      5  C   LIG    1       20.060 -30.974  10.589  0.00  0.00    +0.184 C 
ATOM      6  C   LIG    1       20.992 -30.081  11.438  0.00  0.00    +0.207 C 
ATOM      7  O   LIG    1       22.370 -30.295  11.052  0.00  0.00    -0.356 OA
BRANCH   3   8
ATOM      8  O   LIG    1       22.149 -32.300   8.967  0.00  0.00    -0.387 OA
ATOM      9  H   LIG    1       22.143 -31.328   8.859  0.00  0.00    +0.210 HD
ENDBRANCH   3   8
BRANCH   4  10
ATOM     10  O   LIG    1       19.694 -33.210   9.775  0.00  0.00    -0.387 OA
ATOM     11  H   LIG    1       19.652 -32.684   8.950  0.00  0.00    +0.210 HD
ENDBRANCH   4  10
BRANCH   5  12
ATOM     12  O   LIG    1       18.671 -30.830  10.895  0.00  0.00    -0.386 OA
ATOM     13  H   LIG    1       18.241 -31.640  10.548  0.00  0.00    +0.210 HD
ENDBRANCH   5  12
BRANCH   6  14
ATOM     14  S   LIG    1       20.744 -30.257  13.249  0.00  0.00    -0.131 S 
ATOM     15  C   LIG    1       20.313 -28.547  13.643  0.00  0.00    +0.087 C 
ENDBRANCH   6  14
ENDBRANCH   1   2
BRANCH   1  17
ATOM     16  C   LIG    1       25.460 -31.303   8.623  0.00  0.00    +0.231 C 
ATOM     17  N   LIG    1       24.653 -30.882   9.675  0.00  0.00    -0.307 N 
ATOM     18  H   LIG    1       24.478 -29.883   9.737  0.00  0.00    +0.149 HD
ATOM     19  O   LIG    1       25.973 -32.428   8.595  0.00  0.00    -0.274 OA
BRANCH  16  24
ATOM     20  C   LIG    1       24.335 -28.514   6.420  0.00  0.00    +0.005 C 
ATOM     21  C   LIG    1       25.013 -29.449   5.420  0.00  0.00    +0.088 C 
ATOM     22  N   LIG    1       25.231 -30.712   6.149  0.00  0.00    -0.294 NA
ATOM     23  C   LIG    1       23.998 -31.503   6.140  0.00  0.00    +0.105 C 
ATOM     24  C   LIG    1       25.656 -30.259   7.510  0.00  0.00    +0.143 C 
ATOM     25  C   LIG    1       24.960 -28.912   7.759  0.00  0.00    +0.033 C 
BRANCH  20  26
ATOM     26  C   LIG    1       24.496 -27.027   6.077  0.00  0.00    +0.004 C 
BRANCH  26  28
ATOM     27  C   LIG    1       25.771 -24.919   6.660  0.00  0.00    +0.004 C 
ATOM     28  C   LIG    1       25.802 -26.439   6.622  0.00  0.00    -0.003 C 
ENDBRANCH  26  28
ENDBRANCH  20  26
ENDBRANCH  16  24
ENDBRANCH   1  17
BRANCH   1  29
ATOM     29  C   LIG    1       25.301 -31.369  12.051  0.00  0.00    +0.100 C 
ATOM     30  C   LIG    1       25.862 -29.953  12.017  0.00  0.00    +0.026 C 
ATOM     31 CL   LIG    1       24.456 -31.632  13.617  0.00  0.00    -0.120 Cl
ENDBRANCH   1  29
TORSDOF 10
ENDMDL
MODEL 5
REMARK VINA RESULT:      -5.4      4.856      7.317
REMARK  Name = *****
REMARK                            x       y       z     vdW  Elec       q    Type
REMARK                         _______ _______ _______ _____ _____    ______ ____
ROOT
ATOM      1  C   LIG    1       24.089 -30.885   6.774  0.00  0.00    +0.122 C 
ENDROOT
BRANCH   1   2
ATOM      2  C   LIG    1       24.395 -31.745   8.057  0.00  0.00    +0.172 C 
ATOM      3  C   LIG    1       23.311 -31.601   9.146  0.00  0.00    +0.176 C 
ATOM      4  C   LIG    1       23.682 -32.377  10.416  0.00  0.00    +0.177 C 
ATOM      5  C   LIG    1       25.068 -31.965  10.910  0.00  0.00    +0.184 C 
ATOM      6  C   LIG    1       26.102 -32.087   9.769  0.00  0.00    +0.207 C 
ATOM      7  O   LIG    1       25.667 -31.322   8.621  0.00  0.00    -0.356 OA
BRANCH   3   8
ATOM      8  O   LIG    1       23.136 -30.217   9.509  0.00  0.00    -0.387 OA
ATOM      9  H   LIG    1       23.802 -29.997  10.191  0.00  0.00    +0.210 HD
ENDBRANCH   3   8
BRANCH   4  10
ATOM     10  O   LIG    1       22.728 -32.100  11.458  0.00  0.00    -0.387 OA
ATOM     11  H   LIG    1       22.700 -31.125  11.546  0.00  0.00    +0.210 HD
ENDBRANCH   4  10
BRANCH   5  12
ATOM     12  O   LIG    1       25.414 -32.687  12.095  0.00  0.00    -0.386 OA
ATOM     13  H   LIG    1       24.900 -32.267  12.816  0.00  0.00    +0.210 HD
ENDBRANCH   5  12
BRANCH   6  14
ATOM     14  S   LIG    1       26.523 -33.820   9.328  0.00  0.00    -0.131 S 
ATOM     15  C   LIG    1       27.792 -33.495   8.083  0.00  0.00    +0.087 C 
ENDBRANCH   6  14
ENDBRANCH   1   2
BRANCH   1  17
ATOM     16  C   LIG    1       24.203 -28.473   6.066  0.00  0.00    +0.231 C 
ATOM     17  N   LIG    1       24.487 -29.480   6.983  0.00  0.00    -0.307 N 
ATOM     18  H   LIG    1       25.205 -29.274   7.671  0.00  0.00    +0.149 HD
ATOM     19  O   LIG    1       23.571 -28.687   5.025  0.00  0.00    -0.274 OA
BRANCH  16  24
ATOM     20  C   LIG    1       25.091 -24.918   5.378  0.00  0.00    +0.005 C 
ATOM     21  C   LIG    1       26.331 -25.412   6.120  0.00  0.00    +0.088 C 
ATOM     22  N   LIG    1       26.196 -26.880   6.177  0.00  0.00    -0.294 NA
ATOM     23  C   LIG    1       26.650 -27.464   4.912  0.00  0.00    +0.105 C 
ATOM     24  C   LIG    1       24.741 -27.084   6.456  0.00  0.00    +0.143 C 
ATOM     25  C   LIG    1       24.002 -25.902   5.810  0.00  0.00    +0.033 C 
BRANCH  20  26
ATOM     26  C   LIG    1       24.750 -23.450   5.661  0.00  0.00    +0.004 C 
BRANCH  26  28
ATOM     27  C   LIG    1       23.593 -21.939   7.333  0.00  0.00    +0.004 C 
ATOM     28  C   LIG    1       24.421 -23.200   7.137  0.00  0.00    -0.003 C 
ENDBRANCH  26  28
ENDBRANCH  20  26
ENDBRANCH  16  24
ENDBRANCH   1  17
BRANCH   1  29
ATOM     29  C   LIG    1       24.731 -31.482   5.488  0.00  0.00    +0.100 C 
ATOM     30  C   LIG    1       26.254 -31.436   5.462  0.00  0.00    +0.026 C 
ATOM     31 CL   LIG    1       24.187 -33.176   5.226  0.00  0.00    -0.120 Cl
ENDBRANCH   1  29
TORSDOF 10
ENDMDL
MODEL 6
REMARK VINA RESULT:      -5.4      3.241      7.927
REMARK  Name = *****
REMARK                            x       y       z     vdW  Elec       q    Type
REMARK                         _______ _______ _______ _____ _____    ______ ____
ROOT
ATOM      1  C   LIG    1       26.272 -21.417   5.976  0.00  0.00    +0.122 C 
ENDROOT
BRANCH   1   2
ATOM      2  C   LIG    1       27.691 -21.002   6.517  0.00  0.00    +0.172 C 
ATOM      3  C   LIG    1       28.170 -21.891   7.684  0.00  0.00    +0.176 C 
ATOM      4  C   LIG    1       29.511 -21.406   8.248  0.00  0.00    +0.177 C 
ATOM      5  C   LIG    1       29.428 -19.928   8.631  0.00  0.00    +0.184 C 
ATOM      6  C   LIG    1       28.903 -19.094   7.442  0.00  0.00    +0.207 C 
ATOM      7  O   LIG    1       27.637 -19.626   6.984  0.00  0.00    -0.356 OA
BRANCH   3   8
ATOM      8  O   LIG    1       27.209 -21.880   8.758  0.00  0.00    -0.387 OA
ATOM      9  H   LIG    1       26.499 -22.516   8.536  0.00  0.00    +0.210 HD
ENDBRANCH   3   8
BRANCH   4  10
ATOM     10  O   LIG    1       29.852 -22.162   9.425  0.00  0.00    -0.387 OA
ATOM     11  H   LIG    1       30.595 -22.744   9.166  0.00  0.00    +0.210 HD
ENDBRANCH   4  10
BRANCH   5  12
ATOM     12  O   LIG    1       30.678 -19.477   9.158  0.00  0.00    -0.386 OA
ATOM     13  H   LIG    1       31.353 -20.085   8.790  0.00  0.00    +0.210 HD
ENDBRANCH   5  12
BRANCH   6  14
ATOM     14  S   LIG    1       30.113 -18.908   6.072  0.00  0.00    -0.131 S 
ATOM     15  C   LIG    1       29.098 -17.945   4.928  0.00  0.00    +0.087 C 
ENDBRANCH   6  14
ENDBRANCH   1   2
BRANCH   1  17
ATOM     16  C   LIG    1       25.072 -23.616   5.730  0.00  0.00    +0.231 C 
ATOM     17  N   LIG    1       25.909 -22.766   6.448  0.00  0.00    -0.307 N 
ATOM     18  H   LIG    1       26.051 -22.995   7.427  0.00  0.00    +0.149 HD
ATOM     19  O   LIG    1       24.599 -23.301   4.631  0.00  0.00    -0.274 OA
BRANCH  16  24
ATOM     20  C   LIG    1       26.040 -26.973   7.031  0.00  0.00    +0.005 C 
ATOM     21  C   LIG    1       24.756 -27.291   6.269  0.00  0.00    +0.088 C 
ATOM     22  N   LIG    1       24.458 -26.082   5.479  0.00  0.00    -0.294 NA
ATOM     23  C   LIG    1       25.257 -26.088   4.250  0.00  0.00    +0.105 C 
ATOM     24  C   LIG    1       24.789 -24.964   6.416  0.00  0.00    +0.143 C 
ATOM     25  C   LIG    1       25.918 -25.475   7.324  0.00  0.00    +0.033 C 
BRANCH  20  26
ATOM     26  C   LIG    1       26.241 -27.836   8.283  0.00  0.00    +0.004 C 
BRANCH  26  28
ATOM     27  C   LIG    1       25.260 -29.767   9.596  0.00  0.00    +0.004 C 
ATOM     28  C   LIG    1       25.454 -29.150   8.219  0.00  0.00    -0.003 C 
ENDBRANCH  26  28
ENDBRANCH  20  26
ENDBRANCH  16  24
ENDBRANCH   1  17
BRANCH   1  29
ATOM     29  C   LIG    1       25.172 -20.370   6.321  0.00  0.00    +0.100 C 
ATOM     30  C   LIG    1       24.254 -20.013   5.160  0.00  0.00    +0.026 C 
ATOM     31 CL   LIG    1       24.176 -20.921   7.714  0.00  0.00    -0.120 Cl
ENDBRANCH   1  29
TORSDOF 10
ENDMDL
MODEL 7
REMARK VINA RESULT:      -5.3      3.704      8.089
REMARK  Name = *****
REMARK                            x       y       z     vdW  Elec       q    Type
REMARK                         _______ _______ _______ _____ _____    ______ ____
ROOT
ATOM      1  C   LIG    1       24.794 -22.350   7.209  0.00  0.00    +0.122 C 
ENDROOT
BRANCH   1   2
ATOM      2  C   LIG    1       24.629 -21.114   6.248  0.00  0.00    +0.172 C 
ATOM      3  C   LIG    1       23.152 -20.736   6.008  0.00  0.00    +0.176 C 
ATOM      4  C   LIG    1       23.022 -19.589   4.997  0.00  0.00    +0.177 C 
ATOM      5  C   LIG    1       23.758 -19.931   3.702  0.00  0.00    +0.184 C 
ATOM      6  C   LIG    1       25.214 -20.344   4.005  0.00  0.00    +0.207 C 
ATOM      7  O   LIG    1       25.234 -21.429   4.962  0.00  0.00    -0.356 OA
BRANCH   3   8
ATOM      8  O   LIG    1       22.415 -21.863   5.495  0.00  0.00    -0.387 OA
ATOM      9  H   LIG    1       22.345 -22.529   6.209  0.00  0.00    +0.210 HD
ENDBRANCH   3   8
BRANCH   4  10
ATOM     10  O   LIG    1       21.634 -19.365   4.686  0.00  0.00    -0.387 OA
ATOM     11  H   LIG    1       21.196 -20.237   4.759  0.00  0.00    +0.210 HD
ENDBRANCH   4  10
BRANCH   5  12
ATOM     12  O   LIG    1       23.634 -18.863   2.759  0.00  0.00    -0.386 OA
ATOM     13  H   LIG    1       22.888 -19.114   2.175  0.00  0.00    +0.210 HD
ENDBRANCH   5  12
BRANCH   6  14
ATOM     14  S   LIG    1       26.292 -18.948   4.519  0.00  0.00    -0.131 S 
ATOM     15  C   LIG    1       27.630 -19.890   5.285  0.00  0.00    +0.087 C 
ENDBRANCH   6  14
ENDBRANCH   1   2
BRANCH   1  17
ATOM     16  C   LIG    1       24.056 -24.576   6.296  0.00  0.00    +0.231 C 
ATOM     17  N   LIG    1       25.023 -23.584   6.436  0.00  0.00    -0.307 N 
ATOM     18  H   LIG    1       25.978 -23.851   6.214  0.00  0.00    +0.149 HD
ATOM     19  O   LIG    1       22.928 -24.472   6.791  0.00  0.00    -0.274 OA
BRANCH  16  24
ATOM     20  C   LIG    1       25.220 -28.098   5.923  0.00  0.00    +0.005 C 
ATOM     21  C   LIG    1       26.186 -27.351   5.007  0.00  0.00    +0.088 C 
ATOM     22  N   LIG    1       25.992 -25.921   5.313  0.00  0.00    -0.294 NA
ATOM     23  C   LIG    1       26.760 -25.566   6.510  0.00  0.00    +0.105 C 
ATOM     24  C   LIG    1       24.510 -25.801   5.482  0.00  0.00    +0.143 C 
ATOM     25  C   LIG    1       24.021 -27.152   6.022  0.00  0.00    +0.033 C 
BRANCH  20  26
ATOM     26  C   LIG    1       24.863 -29.504   5.423  0.00  0.00    +0.004 C 
BRANCH  26  28
ATOM     27  C   LIG    1       25.021 -30.075   7.886  0.00  0.00    +0.004 C 
ATOM     28  C   LIG    1       24.375 -30.419   6.552  0.00  0.00    -0.003 C 
ENDBRANCH  26  28
ENDBRANCH  20  26
ENDBRANCH  16  24
ENDBRANCH   1  17
BRANCH   1  29
ATOM     29  C   LIG    1       25.899 -22.128   8.282  0.00  0.00    +0.100 C 
ATOM     30  C   LIG    1       27.324 -22.246   7.756  0.00  0.00    +0.026 C 
ATOM     31 CL   LIG    1       25.698 -20.533   9.090  0.00  0.00    -0.120 Cl
ENDBRANCH   1  29
TORSDOF 10
ENDMDL
MODEL 8
REMARK VINA RESULT:      -5.2      4.963      8.082
REMARK  Name = *****
REMARK                            x       y       z     vdW  Elec       q    Type
REMARK                         _______ _______ _______ _____ _____    ______ ____
ROOT
ATOM      1  C   LIG    1       25.566 -30.994   9.481  0.00  0.00    +0.122 C 
ENDROOT
BRANCH   1   2
ATOM      2  C   LIG    1       25.654 -30.505  10.974  0.00  0.00    +0.172 C 
ATOM      3  C   LIG    1       26.757 -29.448  11.194  0.00  0.00    +0.176 C 
ATOM      4  C   LIG    1       26.880 -29.060  12.673  0.00  0.00    +0.177 C 
ATOM      5  C   LIG    1       27.079 -30.304  13.538  0.00  0.00    +0.184 C 
ATOM      6  C   LIG    1       25.975 -31.344  13.246  0.00  0.00    +0.207 C 
ATOM      7  O   LIG    1       25.939 -31.646  11.831  0.00  0.00    -0.356 OA
BRANCH   3   8
ATOM      8  O   LIG    1       28.037 -29.952  10.761  0.00  0.00    -0.387 OA
ATOM      9  H   LIG    1       28.266 -29.512   9.918  0.00  0.00    +0.210 HD
ENDBRANCH   3   8
BRANCH   4  10
ATOM     10  O   LIG    1       28.012 -28.191  12.860  0.00  0.00    -0.387 OA
ATOM     11  H   LIG    1       27.648 -27.284  12.929  0.00  0.00    +0.210 HD
ENDBRANCH   4  10
BRANCH   5  12
ATOM     12  O   LIG    1       27.196 -29.943  14.916  0.00  0.00    -0.386 OA
ATOM     13  H   LIG    1       27.708 -29.107  14.925  0.00  0.00    +0.210 HD
ENDBRANCH   5  12
BRANCH   6  14
ATOM     14  S   LIG    1       24.322 -30.875  13.896  0.00  0.00    -0.131 S 
ATOM     15  C   LIG    1       23.397 -32.347  13.402  0.00  0.00    +0.087 C 
ENDBRANCH   6  14
ENDBRANCH   1   2
BRANCH   1  17
ATOM     16  C   LIG    1       25.008 -29.227   7.778  0.00  0.00    +0.231 C 
ATOM     17  N   LIG    1       25.939 -29.908   8.555  0.00  0.00    -0.307 N 
ATOM     18  H   LIG    1       26.912 -29.821   8.274  0.00  0.00    +0.149 HD
ATOM     19  O   LIG    1       23.796 -29.471   7.835  0.00  0.00    -0.274 OA
BRANCH  16  24
ATOM     20  C   LIG    1       24.804 -26.314   5.460  0.00  0.00    +0.005 C 
ATOM     21  C   LIG    1       25.750 -27.247   4.708  0.00  0.00    +0.088 C 
ATOM     22  N   LIG    1       25.661 -28.543   5.406  0.00  0.00    -0.294 NA
ATOM     23  C   LIG    1       24.479 -29.272   4.940  0.00  0.00    +0.105 C 
ATOM     24  C   LIG    1       25.610 -28.157   6.850  0.00  0.00    +0.143 C 
ATOM     25  C   LIG    1       24.918 -26.787   6.911  0.00  0.00    +0.033 C 
BRANCH  20  26
ATOM     26  C   LIG    1       25.124 -24.827   5.264  0.00  0.00    +0.004 C 
BRANCH  26  28
ATOM     27  C   LIG    1       26.039 -23.286   7.053  0.00  0.00    +0.004 C 
ATOM     28  C   LIG    1       24.806 -23.991   6.509  0.00  0.00    -0.003 C 
ENDBRANCH  26  28
ENDBRANCH  20  26
ENDBRANCH  16  24
ENDBRANCH   1  17
BRANCH   1  29
ATOM     29  C   LIG    1       26.398 -32.284   9.224  0.00  0.00    +0.100 C 
ATOM     30  C   LIG    1       25.603 -33.579   9.325  0.00  0.00    +0.026 C 
ATOM     31 CL   LIG    1       27.212 -32.214   7.622  0.00  0.00    -0.120 Cl
ENDBRANCH   1  29
TORSDOF 10
ENDMDL
MODEL 9
REMARK VINA RESULT:      -5.1      3.288      7.999
REMARK  Name = *****
REMARK                            x       y       z     vdW  Elec       q    Type
REMARK                         _______ _______ _______ _____ _____    ______ ____
ROOT
ATOM      1  C   LIG    1       25.598 -21.285   6.490  0.00  0.00    +0.122 C 
ENDROOT
BRANCH   1   2
ATOM      2  C   LIG    1       26.956 -20.507   6.654  0.00  0.00    +0.172 C 
ATOM      3  C   LIG    1       27.197 -19.480   5.527  0.00  0.00    +0.176 C 
ATOM      4  C   LIG    1       28.568 -18.805   5.664  0.00  0.00    +0.177 C 
ATOM      5  C   LIG    1       29.676 -19.854   5.747  0.00  0.00    +0.184 C 
ATOM      6  C   LIG    1       29.361 -20.879   6.859  0.00  0.00    +0.207 C 
ATOM      7  O   LIG    1       28.054 -21.461   6.643  0.00  0.00    -0.356 OA
BRANCH   3   8
ATOM      8  O   LIG    1       27.146 -20.120   4.237  0.00  0.00    -0.387 OA
ATOM      9  H   LIG    1       26.742 -21.003   4.353  0.00  0.00    +0.210 HD
ENDBRANCH   3   8
BRANCH   4  10
ATOM     10  O   LIG    1       28.819 -17.968   4.520  0.00  0.00    -0.387 OA
ATOM     11  H   LIG    1       28.053 -18.089   3.923  0.00  0.00    +0.210 HD
ENDBRANCH   4  10
BRANCH   5  12
ATOM     12  O   LIG    1       30.953 -19.225   5.872  0.00  0.00    -0.386 OA
ATOM     13  H   LIG    1       30.939 -18.775   6.743  0.00  0.00    +0.210 HD
ENDBRANCH   5  12
BRANCH   6  14
ATOM     14  S   LIG    1       29.550 -20.212   8.561  0.00  0.00    -0.131 S 
ATOM     15  C   LIG    1       31.149 -20.945   8.975  0.00  0.00    +0.087 C 
ENDBRANCH   6  14
ENDBRANCH   1   2
BRANCH   1  17
ATOM     16  C   LIG    1       24.809 -23.559   5.753  0.00  0.00    +0.231 C 
ATOM     17  N   LIG    1       25.838 -22.651   5.989  0.00  0.00    -0.307 N 
ATOM     18  H   LIG    1       26.774 -23.039   6.061  0.00  0.00    +0.149 HD
ATOM     19  O   LIG    1       23.619 -23.266   5.923  0.00  0.00    -0.274 OA
BRANCH  16  24
ATOM     20  C   LIG    1       24.767 -27.286   5.744  0.00  0.00    +0.005 C 
ATOM     21  C   LIG    1       26.264 -26.990   5.788  0.00  0.00    +0.088 C 
ATOM     22  N   LIG    1       26.372 -25.550   6.087  0.00  0.00    -0.294 NA
ATOM     23  C   LIG    1       26.229 -25.337   7.530  0.00  0.00    +0.105 C 
ATOM     24  C   LIG    1       25.276 -24.943   5.269  0.00  0.00    +0.143 C 
ATOM     25  C   LIG    1       24.167 -26.000   5.171  0.00  0.00    +0.033 C 
BRANCH  20  26
ATOM     26  C   LIG    1       24.413 -28.547   4.946  0.00  0.00    +0.004 C 
BRANCH  26  28
ATOM     27  C   LIG    1       24.328 -29.763   7.165  0.00  0.00    +0.004 C 
ATOM     28  C   LIG    1       24.750 -29.835   5.706  0.00  0.00    -0.003 C 
ENDBRANCH  26  28
ENDBRANCH  20  26
ENDBRANCH  16  24
ENDBRANCH   1  17
BRANCH   1  29
ATOM     29  C   LIG    1       24.751 -21.290   7.796  0.00  0.00    +0.100 C 
ATOM     30  C   LIG    1       25.471 -20.732   9.018  0.00  0.00    +0.026 C 
ATOM     31 CL   LIG    1       23.207 -20.398   7.563  0.00  0.00    -0.120 Cl
ENDBRANCH   1  29
TORSDOF 10
ENDMDL
