MODEL 1
REMARK VINA RESULT:      -9.3      0.000      0.000
REMARK  Name = *****
REMARK                            x       y       z     vdW  Elec       q    Type
REMARK                         _______ _______ _______ _____ _____    ______ ____
ROOT
ATOM      1  O   LIG    1       29.350 -20.360   6.429  0.00  0.00    -0.271 OA
ATOM      2  C   LIG    1       28.134 -20.566   6.464  0.00  0.00    +0.269 C 
ATOM      3  C   LIG    1       27.400 -21.030   7.749  0.00  0.00    +0.320 C 
ATOM      4  N   LIG    1       26.836 -22.356   7.537  0.00  0.00    -0.243 NA
ATOM      5  C   LIG    1       25.886 -22.525   6.681  0.00  0.00    +0.078 C 
ATOM      6  C   LIG    1       25.251 -21.442   5.869  0.00  0.00    +0.023 A 
ATOM      7  C   LIG    1       26.008 -20.476   5.188  0.00  0.00    +0.043 A 
ATOM      8  C   LIG    1       25.371 -19.628   4.270  0.00  0.00    +0.025 A 
ATOM      9  C   LIG    1       23.988 -19.680   4.095  0.00  0.00    +0.022 A 
ATOM     10  C   LIG    1       23.233 -20.589   4.828  0.00  0.00    +0.042 A 
ATOM     11 CL   LIG    1       21.527 -20.647   4.625  0.00  0.00    -0.084 Cl
ATOM     12  C   LIG    1       23.855 -21.472   5.709  0.00  0.00    +0.032 A 
ATOM     13  N   LIG    1       27.388 -20.299   5.343  0.00  0.00    -0.281 N 
ATOM     14  H   LIG    1       27.906 -19.773   4.650  0.00  0.00    +0.155 HD
ENDROOT
BRANCH   5  15
ATOM     15  C   LIG    1       25.397 -23.931   6.496  0.00  0.00    +0.001 A 
ATOM     16  C   LIG    1       24.027 -24.219   6.441  0.00  0.00    +0.010 A 
ATOM     17  C   LIG    1       23.599 -25.537   6.265  0.00  0.00    +0.001 A 
ATOM     18  C   LIG    1       24.534 -26.564   6.130  0.00  0.00    +0.000 A 
ATOM     19  C   LIG    1       25.899 -26.276   6.162  0.00  0.00    +0.001 A 
ATOM     20  C   LIG    1       26.331 -24.961   6.339  0.00  0.00    +0.010 A 
ENDBRANCH   5  15
BRANCH   3  21
ATOM     21  O   LIG    1       26.480 -20.087   8.262  0.00  0.00    -0.364 OA
ATOM     22  H   LIG    1       25.694 -20.624   8.455  0.00  0.00    +0.212 HD
ENDBRANCH   3  21
TORSDOF 2
ENDMDL
MODEL 2
REMARK VINA RESULT:      -8.9      2.628      4.809
REMARK  Name = *****
REMARK                            x       y       z     vdW  Elec       q    Type
REMARK                         _______ _______ _______ _____ _____    ______ ____
ROOT
ATOM      1  O   LIG    1       22.701 -24.370   6.990  0.00  0.00    -0.271 OA
ATOM      2  C   LIG    1       23.418 -23.577   6.373  0.00  0.00    +0.269 C 
ATOM      3  C   LIG    1       24.781 -23.985   5.759  0.00  0.00    +0.320 C 
ATOM      4  N   LIG    1       25.852 -23.245   6.411  0.00  0.00    -0.243 NA
ATOM      5  C   LIG    1       25.932 -21.965   6.268  0.00  0.00    +0.078 C 
ATOM      6  C   LIG    1       25.016 -21.129   5.434  0.00  0.00    +0.023 A 
ATOM      7  C   LIG    1       23.620 -21.269   5.487  0.00  0.00    +0.043 A 
ATOM      8  C   LIG    1       22.810 -20.314   4.854  0.00  0.00    +0.025 A 
ATOM      9  C   LIG    1       23.380 -19.282   4.107  0.00  0.00    +0.022 A 
ATOM     10  C   LIG    1       24.763 -19.192   3.997  0.00  0.00    +0.042 A 
ATOM     11 CL   LIG    1       25.467 -17.929   3.066  0.00  0.00    -0.084 Cl
ATOM     12  C   LIG    1       25.583 -20.104   4.657  0.00  0.00    +0.032 A 
ATOM     13  N   LIG    1       22.954 -22.305   6.153  0.00  0.00    -0.281 N 
ATOM     14  H   LIG    1       21.969 -22.209   6.368  0.00  0.00    +0.155 HD
ENDROOT
BRANCH   5  15
ATOM     15  C   LIG    1       27.039 -21.278   7.012  0.00  0.00    +0.001 A 
ATOM     16  C   LIG    1       28.376 -21.427   6.620  0.00  0.00    +0.010 A 
ATOM     17  C   LIG    1       29.386 -20.773   7.329  0.00  0.00    +0.001 A 
ATOM     18  C   LIG    1       29.066 -19.964   8.418  0.00  0.00    +0.000 A 
ATOM     19  C   LIG    1       27.733 -19.797   8.797  0.00  0.00    +0.001 A 
ATOM     20  C   LIG    1       26.720 -20.448   8.093  0.00  0.00    +0.010 A 
ENDBRANCH   5  15
BRANCH   3  21
ATOM     21  O   LIG    1       24.819 -23.931   4.346  0.00  0.00    -0.364 OA
ATOM     22  H   LIG    1       25.725 -24.212   4.136  0.00  0.00    +0.212 HD
ENDBRANCH   3  21
TORSDOF 2
ENDMDL
MODEL 3
REMARK VINA RESULT:      -8.4      2.952      5.174
REMARK  Name = *****
REMARK                            x       y       z     vdW  Elec       q    Type
REMARK                         _______ _______ _______ _____ _____    ______ ____
ROOT
ATOM      1  O   LIG    1       22.464 -19.805   5.164  0.00  0.00    -0.271 OA
ATOM      2  C   LIG    1       23.190 -20.654   5.687  0.00  0.00    +0.269 C 
ATOM      3  C   LIG    1       23.549 -20.635   7.195  0.00  0.00    +0.320 C 
ATOM      4  N   LIG    1       24.982 -20.433   7.354  0.00  0.00    -0.243 NA
ATOM      5  C   LIG    1       25.811 -21.336   6.953  0.00  0.00    +0.078 C 
ATOM      6  C   LIG    1       25.432 -22.648   6.344  0.00  0.00    +0.023 A 
ATOM      7  C   LIG    1       24.468 -22.751   5.329  0.00  0.00    +0.043 A 
ATOM      8  C   LIG    1       24.316 -23.968   4.648  0.00  0.00    +0.025 A 
ATOM      9  C   LIG    1       25.052 -25.091   5.027  0.00  0.00    +0.022 A 
ATOM     10  C   LIG    1       25.952 -25.003   6.083  0.00  0.00    +0.042 A 
ATOM     11 CL   LIG    1       26.849 -26.389   6.561  0.00  0.00    -0.084 Cl
ATOM     12  C   LIG    1       26.149 -23.791   6.740  0.00  0.00    +0.032 A 
ATOM     13  N   LIG    1       23.634 -21.702   4.920  0.00  0.00    -0.281 N 
ATOM     14  H   LIG    1       23.153 -21.763   4.031  0.00  0.00    +0.155 HD
ENDROOT
BRANCH   5  15
ATOM     15  C   LIG    1       27.269 -21.024   7.115  0.00  0.00    +0.001 A 
ATOM     16  C   LIG    1       28.027 -21.616   8.134  0.00  0.00    +0.010 A 
ATOM     17  C   LIG    1       29.384 -21.309   8.259  0.00  0.00    +0.001 A 
ATOM     18  C   LIG    1       29.988 -20.426   7.364  0.00  0.00    +0.000 A 
ATOM     19  C   LIG    1       29.240 -19.853   6.335  0.00  0.00    +0.001 A 
ATOM     20  C   LIG    1       27.884 -20.155   6.206  0.00  0.00    +0.010 A 
ENDBRANCH   5  15
BRANCH   3  21
ATOM     21  O   LIG    1       23.037 -21.733   7.925  0.00  0.00    -0.364 OA
ATOM     22  H   LIG    1       22.274 -21.354   8.393  0.00  0.00    +0.212 HD
ENDBRANCH   3  21
TORSDOF 2
ENDMDL
MODEL 4
REMARK VINA RESULT:      -8.1      2.991      4.158
REMARK  Name = *****
REMARK                            x       y       z     vdW  Elec       q    Type
REMARK                         _______ _______ _______ _____ _____    ______ ____
ROOT
ATOM      1  O   LIG    1       21.906 -20.506   5.029  0.00  0.00    -0.271 OA
ATOM      2  C   LIG    1       23.067 -20.856   5.258  0.00  0.00    +0.269 C 
ATOM      3  C   LIG    1       24.017 -21.382   4.151  0.00  0.00    +0.320 C 
ATOM      4  N   LIG    1       24.365 -22.769   4.424  0.00  0.00    -0.243 NA
ATOM      5  C   LIG    1       25.069 -23.066   5.463  0.00  0.00    +0.078 C 
ATOM      6  C   LIG    1       25.621 -22.082   6.444  0.00  0.00    +0.023 A 
ATOM      7  C   LIG    1       24.842 -21.045   6.981  0.00  0.00    +0.043 A 
ATOM      8  C   LIG    1       25.345 -20.295   8.055  0.00  0.00    +0.025 A 
ATOM      9  C   LIG    1       26.638 -20.517   8.533  0.00  0.00    +0.022 A 
ATOM     10  C   LIG    1       27.431 -21.497   7.948  0.00  0.00    +0.042 A 
ATOM     11 CL   LIG    1       29.029 -21.762   8.526  0.00  0.00    -0.084 Cl
ATOM     12  C   LIG    1       26.932 -22.282   6.911  0.00  0.00    +0.032 A 
ATOM     13  N   LIG    1       23.563 -20.700   6.528  0.00  0.00    -0.281 N 
ATOM     14  H   LIG    1       22.964 -20.128   7.110  0.00  0.00    +0.155 HD
ENDROOT
BRANCH   5  15
ATOM     15  C   LIG    1       25.341 -24.524   5.691  0.00  0.00    +0.001 A 
ATOM     16  C   LIG    1       25.698 -25.004   6.958  0.00  0.00    +0.010 A 
ATOM     17  C   LIG    1       25.943 -26.367   7.142  0.00  0.00    +0.001 A 
ATOM     18  C   LIG    1       25.821 -27.251   6.070  0.00  0.00    +0.000 A 
ATOM     19  C   LIG    1       25.445 -26.778   4.812  0.00  0.00    +0.001 A 
ATOM     20  C   LIG    1       25.200 -25.418   4.623  0.00  0.00    +0.010 A 
ENDBRANCH   5  15
BRANCH   3  21
ATOM     21  O   LIG    1       25.130 -20.547   3.900  0.00  0.00    -0.364 OA
ATOM     22  H   LIG    1       25.727 -21.118   3.389  0.00  0.00    +0.212 HD
ENDBRANCH   3  21
TORSDOF 2
ENDMDL
MODEL 5
REMARK VINA RESULT:      -7.7      1.809      4.670
REMARK  Name = *****
REMARK                            x       y       z     vdW  Elec       q    Type
REMARK                         _______ _______ _______ _____ _____    ______ ____
ROOT
ATOM      1  O   LIG    1       28.600 -19.580   8.708  0.00  0.00    -0.271 OA
ATOM      2  C   LIG    1       28.020 -20.279   7.872  0.00  0.00    +0.269 C 
ATOM      3  C   LIG    1       28.228 -20.103   6.345  0.00  0.00    +0.320 C 
ATOM      4  N   LIG    1       26.977 -19.688   5.726  0.00  0.00    -0.243 NA
ATOM      5  C   LIG    1       25.968 -20.492   5.709  0.00  0.00    +0.078 C 
ATOM      6  C   LIG    1       25.961 -21.883   6.255  0.00  0.00    +0.023 A 
ATOM      7  C   LIG    1       26.481 -22.193   7.521  0.00  0.00    +0.043 A 
ATOM      8  C   LIG    1       26.248 -23.464   8.067  0.00  0.00    +0.025 A 
ATOM      9  C   LIG    1       25.579 -24.442   7.330  0.00  0.00    +0.022 A 
ATOM     10  C   LIG    1       25.131 -24.153   6.046  0.00  0.00    +0.042 A 
ATOM     11 CL   LIG    1       24.319 -25.361   5.130  0.00  0.00    -0.084 Cl
ATOM     12  C   LIG    1       25.313 -22.882   5.506  0.00  0.00    +0.032 A 
ATOM     13  N   LIG    1       27.222 -21.305   8.311  0.00  0.00    -0.281 N 
ATOM     14  H   LIG    1       27.344 -21.496   9.298  0.00  0.00    +0.155 HD
ENDROOT
BRANCH   5  15
ATOM     15  C   LIG    1       24.706 -19.965   5.092  0.00  0.00    +0.001 A 
ATOM     16  C   LIG    1       24.722 -19.326   3.845  0.00  0.00    +0.010 A 
ATOM     17  C   LIG    1       23.532 -18.848   3.293  0.00  0.00    +0.001 A 
ATOM     18  C   LIG    1       22.326 -19.017   3.974  0.00  0.00    +0.000 A 
ATOM     19  C   LIG    1       22.305 -19.673   5.205  0.00  0.00    +0.001 A 
ATOM     20  C   LIG    1       23.491 -20.151   5.762  0.00  0.00    +0.010 A 
ENDBRANCH   5  15
BRANCH   3  21
ATOM     21  O   LIG    1       28.846 -21.208   5.715  0.00  0.00    -0.364 OA
ATOM     22  H   LIG    1       29.743 -20.886   5.527  0.00  0.00    +0.212 HD
ENDBRANCH   3  21
TORSDOF 2
ENDMDL
MODEL 6
REMARK VINA RESULT:      -7.3      6.728      9.464
REMARK  Name = *****
REMARK                            x       y       z     vdW  Elec       q    Type
REMARK                         _______ _______ _______ _____ _____    ______ ____
ROOT
ATOM      1  O   LIG    1       24.986 -33.557   5.722  0.00  0.00    -0.271 OA
ATOM      2  C   LIG    1       24.949 -32.566   6.457  0.00  0.00    +0.269 C 
ATOM      3  C   LIG    1       23.665 -31.720   6.657  0.00  0.00    +0.320 C 
ATOM      4  N   LIG    1       23.884 -30.373   6.148  0.00  0.00    -0.243 NA
ATOM      5  C   LIG    1       24.738 -29.596   6.722  0.00  0.00    +0.078 C 
ATOM      6  C   LIG    1       25.542 -29.940   7.935  0.00  0.00    +0.023 A 
ATOM      7  C   LIG    1       26.219 -31.163   8.062  0.00  0.00    +0.043 A 
ATOM      8  C   LIG    1       27.129 -31.338   9.114  0.00  0.00    +0.025 A 
ATOM      9  C   LIG    1       27.301 -30.343  10.078  0.00  0.00    +0.022 A 
ATOM     10  C   LIG    1       26.572 -29.162   9.989  0.00  0.00    +0.042 A 
ATOM     11 CL   LIG    1       26.771 -27.940  11.182  0.00  0.00    -0.084 Cl
ATOM     12  C   LIG    1       25.698 -28.953   8.924  0.00  0.00    +0.032 A 
ATOM     13  N   LIG    1       26.066 -32.246   7.187  0.00  0.00    -0.281 N 
ATOM     14  H   LIG    1       26.757 -32.986   7.182  0.00  0.00    +0.155 HD
ENDROOT
BRANCH   5  15
ATOM     15  C   LIG    1       24.931 -28.243   6.104  0.00  0.00    +0.001 A 
ATOM     16  C   LIG    1       25.884 -28.037   5.097  0.00  0.00    +0.010 A 
ATOM     17  C   LIG    1       26.041 -26.767   4.537  0.00  0.00    +0.001 A 
ATOM     18  C   LIG    1       25.243 -25.708   4.969  0.00  0.00    +0.000 A 
ATOM     19  C   LIG    1       24.278 -25.916   5.955  0.00  0.00    +0.001 A 
ATOM     20  C   LIG    1       24.118 -27.183   6.519  0.00  0.00    +0.010 A 
ENDBRANCH   5  15
BRANCH   3  21
ATOM     21  O   LIG    1       23.144 -31.763   7.971  0.00  0.00    -0.364 OA
ATOM     22  H   LIG    1       22.550 -32.531   7.951  0.00  0.00    +0.212 HD
ENDBRANCH   3  21
TORSDOF 2
ENDMDL
MODEL 7
REMARK VINA RESULT:      -7.2      6.969      9.038
REMARK  Name = *****
REMARK                            x       y       z     vdW  Elec       q    Type
REMARK                         _______ _______ _______ _____ _____    ______ ____
ROOT
ATOM      1  O   LIG    1       23.769 -33.210   5.706  0.00  0.00    -0.271 OA
ATOM      2  C   LIG    1       24.316 -32.188   6.130  0.00  0.00    +0.269 C 
ATOM      3  C   LIG    1       25.586 -32.224   7.018  0.00  0.00    +0.320 C 
ATOM      4  N   LIG    1       25.280 -31.672   8.330  0.00  0.00    -0.243 NA
ATOM      5  C   LIG    1       24.975 -30.425   8.452  0.00  0.00    +0.078 C 
ATOM      6  C   LIG    1       24.935 -29.432   7.335  0.00  0.00    +0.023 A 
ATOM      7  C   LIG    1       24.304 -29.707   6.112  0.00  0.00    +0.043 A 
ATOM      8  C   LIG    1       24.107 -28.666   5.192  0.00  0.00    +0.025 A 
ATOM      9  C   LIG    1       24.606 -27.388   5.447  0.00  0.00    +0.022 A 
ATOM     10  C   LIG    1       25.296 -27.140   6.628  0.00  0.00    +0.042 A 
ATOM     11 CL   LIG    1       25.925 -25.570   6.939  0.00  0.00    -0.084 Cl
ATOM     12  C   LIG    1       25.461 -28.149   7.573  0.00  0.00    +0.032 A 
ATOM     13  N   LIG    1       23.827 -30.968   5.733  0.00  0.00    -0.281 N 
ATOM     14  H   LIG    1       23.167 -31.045   4.969  0.00  0.00    +0.155 HD
ENDROOT
BRANCH   5  15
ATOM     15  C   LIG    1       24.631 -29.952   9.833  0.00  0.00    +0.001 A 
ATOM     16  C   LIG    1       25.595 -29.355  10.656  0.00  0.00    +0.010 A 
ATOM     17  C   LIG    1       25.245 -28.922  11.937  0.00  0.00    +0.001 A 
ATOM     18  C   LIG    1       23.936 -29.072  12.393  0.00  0.00    +0.000 A 
ATOM     19  C   LIG    1       22.969 -29.646  11.568  0.00  0.00    +0.001 A 
ATOM     20  C   LIG    1       23.313 -30.082  10.287  0.00  0.00    +0.010 A 
ENDBRANCH   5  15
BRANCH   3  21
ATOM     21  O   LIG    1       26.733 -31.664   6.410  0.00  0.00    -0.364 OA
ATOM     22  H   LIG    1       26.945 -30.910   6.985  0.00  0.00    +0.212 HD
ENDBRANCH   3  21
TORSDOF 2
ENDMDL
MODEL 8
REMARK VINA RESULT:      -7.2      6.599      9.477
REMARK  Name = *****
REMARK                            x       y       z     vdW  Elec       q    Type
REMARK                         _______ _______ _______ _____ _____    ______ ____
ROOT
ATOM      1  O   LIG    1       27.421 -32.808   5.312  0.00  0.00    -0.271 OA
ATOM      2  C   LIG    1       26.547 -32.208   5.943  0.00  0.00    +0.269 C 
ATOM      3  C   LIG    1       25.235 -31.706   5.288  0.00  0.00    +0.320 C 
ATOM      4  N   LIG    1       25.185 -30.252   5.345  0.00  0.00    -0.243 NA
ATOM      5  C   LIG    1       25.092 -29.653   6.483  0.00  0.00    +0.078 C 
ATOM      6  C   LIG    1       24.991 -30.331   7.812  0.00  0.00    +0.023 A 
ATOM      7  C   LIG    1       25.835 -31.392   8.176  0.00  0.00    +0.043 A 
ATOM      8  C   LIG    1       25.842 -31.838   9.506  0.00  0.00    +0.025 A 
ATOM      9  C   LIG    1       24.961 -31.295  10.442  0.00  0.00    +0.022 A 
ATOM     10  C   LIG    1       24.075 -30.295  10.057  0.00  0.00    +0.042 A 
ATOM     11 CL   LIG    1       22.979 -29.633  11.205  0.00  0.00    -0.084 Cl
ATOM     12  C   LIG    1       24.087 -29.808   8.752  0.00  0.00    +0.032 A 
ATOM     13  N   LIG    1       26.706 -32.048   7.297  0.00  0.00    -0.281 N 
ATOM     14  H   LIG    1       27.457 -32.616   7.669  0.00  0.00    +0.155 HD
ENDROOT
BRANCH   5  15
ATOM     15  C   LIG    1       25.093 -28.153   6.451  0.00  0.00    +0.001 A 
ATOM     16  C   LIG    1       26.026 -27.414   7.190  0.00  0.00    +0.010 A 
ATOM     17  C   LIG    1       26.006 -26.018   7.139  0.00  0.00    +0.001 A 
ATOM     18  C   LIG    1       25.067 -25.360   6.345  0.00  0.00    +0.000 A 
ATOM     19  C   LIG    1       24.151 -26.095   5.591  0.00  0.00    +0.001 A 
ATOM     20  C   LIG    1       24.166 -27.489   5.639  0.00  0.00    +0.010 A 
ENDBRANCH   5  15
BRANCH   3  21
ATOM     21  O   LIG    1       24.067 -32.342   5.769  0.00  0.00    -0.364 OA
ATOM     22  H   LIG    1       23.822 -32.939   5.042  0.00  0.00    +0.212 HD
ENDBRANCH   3  21
TORSDOF 2
ENDMDL
MODEL 9
REMARK VINA RESULT:      -7.0      6.941      8.910
REMARK  Name = *****
REMARK                            x       y       z     vdW  Elec       q    Type
REMARK                         _______ _______ _______ _____ _____    ______ ____
ROOT
ATOM      1  O   LIG    1       24.078 -33.267   7.296  0.00  0.00    -0.271 OA
ATOM      2  C   LIG    1       24.654 -32.177   7.353  0.00  0.00    +0.269 C 
ATOM      3  C   LIG    1       26.111 -32.026   7.861  0.00  0.00    +0.320 C 
ATOM      4  N   LIG    1       26.124 -31.221   9.075  0.00  0.00    -0.243 NA
ATOM      5  C   LIG    1       25.788 -29.977   9.028  0.00  0.00    +0.078 C 
ATOM      6  C   LIG    1       25.401 -29.231   7.792  0.00  0.00    +0.023 A 
ATOM      7  C   LIG    1       24.492 -29.751   6.858  0.00  0.00    +0.043 A 
ATOM      8  C   LIG    1       24.001 -28.919   5.840  0.00  0.00    +0.025 A 
ATOM      9  C   LIG    1       24.474 -27.613   5.701  0.00  0.00    +0.022 A 
ATOM     10  C   LIG    1       25.431 -27.127   6.584  0.00  0.00    +0.042 A 
ATOM     11 CL   LIG    1       26.025 -25.524   6.406  0.00  0.00    -0.084 Cl
ATOM     12  C   LIG    1       25.894 -27.924   7.629  0.00  0.00    +0.032 A 
ATOM     13  N   LIG    1       24.008 -31.065   6.872  0.00  0.00    -0.281 N 
ATOM     14  H   LIG    1       23.178 -31.299   6.341  0.00  0.00    +0.155 HD
ENDROOT
BRANCH   5  15
ATOM     15  C   LIG    1       25.786 -29.236  10.333  0.00  0.00    +0.001 A 
ATOM     16  C   LIG    1       24.698 -29.322  11.212  0.00  0.00    +0.010 A 
ATOM     17  C   LIG    1       24.725 -28.624  12.422  0.00  0.00    +0.001 A 
ATOM     18  C   LIG    1       25.837 -27.853  12.761  0.00  0.00    +0.000 A 
ATOM     19  C   LIG    1       26.930 -27.785  11.898  0.00  0.00    +0.001 A 
ATOM     20  C   LIG    1       26.909 -28.479  10.687  0.00  0.00    +0.010 A 
ENDBRANCH   5  15
BRANCH   3  21
ATOM     21  O   LIG    1       27.026 -31.595   6.873  0.00  0.00    -0.364 OA
ATOM     22  H   LIG    1       27.756 -32.231   6.952  0.00  0.00    +0.212 HD
ENDBRANCH   3  21
TORSDOF 2
ENDMDL
