MODEL 1
REMARK VINA RESULT:       3.9      0.000      0.000
REMARK  Name = *****
REMARK                            x       y       z     vdW  Elec       q    Type
REMARK                         _______ _______ _______ _____ _____    ______ ____
ROOT
ATOM      1  C   LIG    1       27.220 -19.844   4.764  0.00  0.00    +0.134 A 
ATOM      2  C   LIG    1       27.435 -18.465   4.585  0.00  0.00    +0.044 A 
ATOM      3  C   LIG    1       28.594 -17.954   5.188  0.00  0.00    +0.080 A 
ATOM      4  C   LIG    1       28.819 -16.587   5.143  0.00  0.00    +0.077 A 
ATOM      5  C   LIG    1       27.940 -15.724   4.486  0.00  0.00    +0.164 A 
ATOM      6  O   LIG    1       28.132 -14.379   4.658  0.00  0.00    -0.486 OA
ATOM      7  C   LIG    1       28.687 -13.734   3.504  0.00  0.00    +0.257 C 
ATOM      8  C   LIG    1       28.471 -12.222   3.664  0.00  0.00    +0.201 C 
ATOM      9  O   LIG    1       27.403 -11.735   2.847  0.00  0.00    -0.374 OA
ATOM     10  C   LIG    1       26.104 -12.112   3.306  0.00  0.00    +0.188 C 
ATOM     11  C   LIG    1       25.289 -12.604   2.114  0.00  0.00    +0.188 C 
ATOM     12  O   LIG    1       24.047 -13.163   2.540  0.00  0.00    -0.374 OA
ATOM     13  C   LIG    1       23.926 -14.564   2.272  0.00  0.00    +0.201 C 
ATOM     14  C   LIG    1       24.625 -15.437   3.320  0.00  0.00    +0.257 C 
ATOM     15  O   LIG    1       26.039 -15.354   3.120  0.00  0.00    -0.486 OA
ATOM     16  C   LIG    1       26.803 -16.220   3.849  0.00  0.00    +0.163 A 
ATOM     17  N   LIG    1       29.475 -18.728   5.829  0.00  0.00    -0.235 NA
ATOM     18  C   LIG    1       29.191 -20.032   5.901  0.00  0.00    +0.224 A 
ATOM     19  C   LIG    1       26.556 -17.591   3.894  0.00  0.00    +0.062 A 
ATOM     20  N   LIG    1       28.103 -20.627   5.411  0.00  0.00    -0.220 NA
ENDROOT
BRANCH   1  21
ATOM     21  N   LIG    1       26.032 -20.435   4.262  0.00  0.00    -0.299 N 
ATOM     22  H   LIG    1       26.231 -21.370   3.924  0.00  0.00    +0.154 HD
BRANCH  21  25
ATOM     23  C   LIG    1       22.422 -19.558   4.667  0.00  0.00    +0.026 A 
ATOM     24  C   LIG    1       23.712 -19.640   4.136  0.00  0.00    +0.040 A 
ATOM     25  C   LIG    1       24.741 -20.304   4.820  0.00  0.00    +0.034 A 
ATOM     26  C   LIG    1       24.425 -20.948   6.023  0.00  0.00    +0.023 A 
ATOM     27  C   LIG    1       23.135 -20.872   6.560  0.00  0.00    +0.003 A 
ATOM     28  C   LIG    1       22.135 -20.171   5.884  0.00  0.00    +0.017 A 
BRANCH  23  30
ATOM     29  C   LIG    1       20.560 -18.261   3.333  0.00  0.00    +0.009 C 
ATOM     30  C   LIG    1       21.411 -18.841   3.955  0.00  0.00    -0.070 C 
ENDBRANCH  23  30
ENDBRANCH  21  25
ENDBRANCH   1  21
TORSDOF 3
ENDMDL
