MODEL 1
REMARK VINA RESULT:      82.6      0.000      0.000
REMARK  Name = *****
REMARK                            x       y       z     vdW  Elec       q    Type
REMARK                         _______ _______ _______ _____ _____    ______ ____
ROOT
ATOM      1  C   LIG    1       28.354 -13.352   3.932  0.00  0.00    +0.167 C 
ATOM      2  N   LIG    1       27.554 -14.582   3.989  0.00  0.00    -0.233 N 
ATOM      3  C   LIG    1       26.250 -14.605   4.575  0.00  0.00    +0.269 C 
ATOM      4  O   LIG    1       26.309 -15.646   5.527  0.00  0.00    -0.298 OA
ATOM      5  C   LIG    1       27.174 -16.681   5.015  0.00  0.00    +0.220 C 
ATOM      6  C   LIG    1       25.817 -13.258   5.187  0.00  0.00    +0.156 C 
ATOM      7  N   LIG    1       26.913 -12.525   5.795  0.00  0.00    -0.290 N 
ATOM      8  C   LIG    1       26.464 -11.729   6.926  0.00  0.00    +0.108 C 
ATOM      9  C   LIG    1       24.944 -11.914   6.930  0.00  0.00    +0.021 C 
ATOM     10  C   LIG    1       24.758 -13.293   6.293  0.00  0.00    +0.031 C 
ATOM     11  C   LIG    1       28.166 -15.795   4.242  0.00  0.00    +0.271 C 
ATOM     12  O   LIG    1       29.294 -16.111   3.861  0.00  0.00    -0.270 OA
ATOM     13  C   LIG    1       28.188 -12.540   5.266  0.00  0.00    +0.237 C 
ATOM     14  O   LIG    1       29.098 -11.861   5.738  0.00  0.00    -0.274 OA
ENDROOT
BRANCH   5  15
ATOM     15  N   LIG    1       26.439 -17.569   4.116  0.00  0.00    -0.279 N 
ATOM     16  H   LIG    1       25.824 -18.244   4.552  0.00  0.00    +0.152 HD
ATOM     17  C   LIG    1       26.633 -17.606   2.750  0.00  0.00    +0.224 C 
ATOM     18  O   LIG    1       27.459 -16.894   2.178  0.00  0.00    -0.275 OA
BRANCH  17  19
ATOM     19  C   LIG    1       25.850 -18.692   1.994  0.00  0.00    +0.112 C 
ATOM     20  C   LIG    1       26.102 -20.066   2.683  0.00  0.00    +0.101 C 
ATOM     21  N   LIG    1       24.914 -20.883   3.010  0.00  0.00    -0.297 NA
ATOM     22  C   LIG    1       24.395 -21.570   1.825  0.00  0.00    +0.105 C 
ATOM     23  C   LIG    1       23.901 -20.016   3.680  0.00  0.00    +0.091 C 
ATOM     24  C   LIG    1       23.459 -18.850   2.759  0.00  0.00    -0.025 C 
ATOM     25  C   LIG    1       22.065 -18.357   2.839  0.00  0.00    -0.011 C 
ATOM     26  C   LIG    1       21.274 -18.983   3.815  0.00  0.00    +0.011 C 
ATOM     27  C   LIG    1       19.983 -18.553   4.093  0.00  0.00    +0.048 C 
ATOM     28  N   LIG    1       19.530 -19.336   5.132  0.00  0.00    -0.349 NA
ATOM     29  H   LIG    1       18.627 -19.251   5.575  0.00  0.00    +0.166 HD
ATOM     30  C   LIG    1       20.474 -20.274   5.458  0.00  0.00    +0.087 C 
ATOM     31 BR   LIG    1       20.258 -21.569   6.777  0.00  0.00    -0.030 Br
ATOM     32  C   LIG    1       19.382 -17.516   3.378  0.00  0.00    +0.026 C 
ATOM     33  C   LIG    1       20.146 -16.924   2.364  0.00  0.00    +0.003 C 
ATOM     34  C   LIG    1       21.559 -20.101   4.634  0.00  0.00    -0.006 C 
ATOM     35  C   LIG    1       21.464 -17.326   2.104  0.00  0.00    +0.009 C 
ATOM     36  C   LIG    1       22.820 -20.862   4.439  0.00  0.00    +0.062 C 
ATOM     37  C   LIG    1       24.393 -18.256   1.984  0.00  0.00    -0.007 C 
ENDBRANCH  17  19
ENDBRANCH   5  15
BRANCH   5  38
ATOM     38  C   LIG    1       27.849 -17.397   6.213  0.00  0.00    +0.043 C 
ATOM     39  C   LIG    1       27.720 -18.922   6.128  0.00  0.00    +0.012 C 
ATOM     40  C   LIG    1       29.318 -17.019   6.433  0.00  0.00    +0.012 C 
ENDBRANCH   5  38
BRANCH   3  41
ATOM     41  O   LIG    1       25.344 -14.940   3.544  0.00  0.00    -0.348 OA
ATOM     42  H   LIG    1       25.453 -15.905   3.439  0.00  0.00    +0.214 HD
ENDBRANCH   3  41
BRANCH   1  43
ATOM     43  C   LIG    1       28.011 -12.466   2.719  0.00  0.00    +0.035 C 
BRANCH  43  45
ATOM     44  C   LIG    1       25.724 -11.889   1.827  0.00  0.00    +0.007 C 
ATOM     45  C   LIG    1       26.798 -11.510   2.857  0.00  0.00    -0.015 C 
ATOM     46  C   LIG    1       26.136 -11.511   4.238  0.00  0.00    +0.007 C 
ENDBRANCH  43  45
ENDBRANCH   1  43
TORSDOF 6
ENDMDL
