MODEL 1
REMARK VINA RESULT:      -6.8      0.000      0.000
REMARK  Name = *****
REMARK                            x       y       z     vdW  Elec       q    Type
REMARK                         _______ _______ _______ _____ _____    ______ ____
ROOT
ATOM      1  C   LIG    1       24.931 -30.220   7.688  0.00  0.00    +0.057 A 
ATOM      2  C   LIG    1       25.479 -29.234   8.552  0.00  0.00    +0.022 A 
ATOM      3  C   LIG    1       25.287 -29.445   9.948  0.00  0.00    +0.084 A 
ATOM      4  N   LIG    1       24.638 -30.547  10.394  0.00  0.00    -0.212 NA
ATOM      5  C   LIG    1       24.184 -31.409   9.498  0.00  0.00    +0.238 A 
ATOM      6  N   LIG    1       24.275 -31.301   8.172  0.00  0.00    -0.217 NA
ENDROOT
BRANCH   3   7
ATOM      7  C   LIG    1       25.721 -28.588  11.122  0.00  0.00    +0.001 A 
ATOM      8  C   LIG    1       24.826 -28.345  12.204  0.00  0.00    +0.013 A 
ATOM      9  C   LIG    1       25.162 -27.552  13.315  0.00  0.00    +0.039 A 
ATOM     10  C   LIG    1       26.416 -26.976  13.379  0.00  0.00    +0.123 A 
ATOM     11  F   LIG    1       26.741 -26.189  14.414  0.00  0.00    -0.205 F 
ATOM     12  C   LIG    1       27.350 -27.240  12.390  0.00  0.00    +0.039 A 
ATOM     13  C   LIG    1       27.009 -28.055  11.292  0.00  0.00    +0.013 A 
ENDBRANCH   3   7
BRANCH   1  15
ATOM     14  C   LIG    1       25.112 -31.698   5.656  0.00  0.00    +0.014 C 
ATOM     15  C   LIG    1       25.086 -30.244   6.161  0.00  0.00    +0.032 C 
ATOM     16  C   LIG    1       23.972 -29.514   5.382  0.00  0.00    +0.014 C 
ENDBRANCH   1  15
BRANCH   2  17
ATOM     17  C   LIG    1       26.186 -28.049   8.012  0.00  0.00    +0.010 C 
ATOM     18  C   LIG    1       25.607 -27.148   7.191  0.00  0.00    +0.005 C 
BRANCH  18  19
ATOM     19  C   LIG    1       26.343 -26.051   6.454  0.00  0.00    +0.140 C 
BRANCH  19  20
ATOM     20  O   LIG    1       27.235 -26.692   5.552  0.00  0.00    -0.388 OA
ATOM     21  H   LIG    1       27.656 -26.013   5.000  0.00  0.00    +0.210 HD
ENDBRANCH  19  20
BRANCH  19  22
ATOM     22  C   LIG    1       25.488 -25.041   5.660  0.00  0.00    +0.067 C 
BRANCH  22  23
ATOM     23  C   LIG    1       25.169 -23.688   6.331  0.00  0.00    +0.128 C 
BRANCH  23  24
ATOM     24  O   LIG    1       25.329 -22.624   5.362  0.00  0.00    -0.391 OA
ATOM     25  H   LIG    1       26.178 -22.172   5.524  0.00  0.00    +0.210 HD
ENDBRANCH  23  24
BRANCH  23  26
ATOM     26  C   LIG    1       23.729 -23.559   6.836  0.00  0.00    +0.151 C 
BRANCH  26  27
ATOM     27  C   LIG    1       23.153 -22.172   6.719  0.00  0.00    +0.307 C 
ATOM     28  O   LIG    1       23.229 -21.343   7.623  0.00  0.00    -0.251 OA
BRANCH  27  29
ATOM     29  O   LIG    1       22.480 -21.910   5.582  0.00  0.00    -0.481 OA
ATOM     30  H   LIG    1       22.575 -22.651   4.933  0.00  0.00    +0.295 HD
ENDBRANCH  27  29
ENDBRANCH  26  27
ENDBRANCH  23  26
ENDBRANCH  22  23
ENDBRANCH  19  22
ENDBRANCH  18  19
ENDBRANCH   2  17
BRANCH   5  31
ATOM     31  N   LIG    1       23.613 -32.584  10.000  0.00  0.00    -0.178 N 
ATOM     32  C   LIG    1       24.054 -33.824   9.355  0.00  0.00    +0.160 C 
BRANCH  31  33
ATOM     33  S   LIG    1       22.002 -32.444  10.419  0.00  0.00    +0.045 S 
ATOM     34  O   LIG    1       21.467 -31.202   9.864  0.00  0.00    -0.155 OA
ATOM     35  O   LIG    1       21.880 -32.715  11.826  0.00  0.00    -0.155 OA
ATOM     36  C   LIG    1       21.194 -33.778   9.547  0.00  0.00    +0.218 C 
ENDBRANCH  31  33
ENDBRANCH   5  31
TORSDOF 13
ENDMDL
MODEL 2
REMARK VINA RESULT:      -6.6      6.567      9.902
REMARK  Name = *****
REMARK                            x       y       z     vdW  Elec       q    Type
REMARK                         _______ _______ _______ _____ _____    ______ ____
ROOT
ATOM      1  C   LIG    1       23.930 -20.956   5.172  0.00  0.00    +0.057 A 
ATOM      2  C   LIG    1       25.071 -20.121   5.309  0.00  0.00    +0.022 A 
ATOM      3  C   LIG    1       26.183 -20.685   5.999  0.00  0.00    +0.084 A 
ATOM      4  N   LIG    1       26.133 -21.956   6.462  0.00  0.00    -0.212 NA
ATOM      5  C   LIG    1       25.023 -22.649   6.261  0.00  0.00    +0.238 A 
ATOM      6  N   LIG    1       23.913 -22.218   5.662  0.00  0.00    -0.217 NA
ENDROOT
BRANCH   3   7
ATOM      7  C   LIG    1       27.528 -20.065   6.330  0.00  0.00    +0.001 A 
ATOM      8  C   LIG    1       28.055 -20.157   7.650  0.00  0.00    +0.013 A 
ATOM      9  C   LIG    1       29.289 -19.595   8.025  0.00  0.00    +0.039 A 
ATOM     10  C   LIG    1       30.040 -18.923   7.080  0.00  0.00    +0.123 A 
ATOM     11  F   LIG    1       31.201 -18.351   7.428  0.00  0.00    -0.205 F 
ATOM     12  C   LIG    1       29.608 -18.867   5.765  0.00  0.00    +0.039 A 
ATOM     13  C   LIG    1       28.380 -19.453   5.396  0.00  0.00    +0.013 A 
ENDBRANCH   3   7
BRANCH   1  15
ATOM     14  C   LIG    1       21.510 -21.545   4.793  0.00  0.00    +0.014 C 
ATOM     15  C   LIG    1       22.655 -20.593   4.399  0.00  0.00    +0.032 C 
ATOM     16  C   LIG    1       22.144 -19.155   4.623  0.00  0.00    +0.014 C 
ENDBRANCH   1  15
BRANCH   2  17
ATOM     17  C   LIG    1       25.076 -18.737   4.779  0.00  0.00    +0.010 C 
ATOM     18  C   LIG    1       25.660 -18.391   3.612  0.00  0.00    +0.005 C 
BRANCH  18  19
ATOM     19  C   LIG    1       25.872 -16.970   3.140  0.00  0.00    +0.140 C 
BRANCH  19  20
ATOM     20  O   LIG    1       24.702 -16.243   3.490  0.00  0.00    -0.388 OA
ATOM     21  H   LIG    1       23.932 -16.695   3.108  0.00  0.00    +0.210 HD
ENDBRANCH  19  20
BRANCH  19  22
ATOM     22  C   LIG    1       27.098 -16.218   3.700  0.00  0.00    +0.067 C 
BRANCH  22  23
ATOM     23  C   LIG    1       27.463 -14.863   3.057  0.00  0.00    +0.128 C 
BRANCH  23  24
ATOM     24  O   LIG    1       26.405 -14.463   2.152  0.00  0.00    -0.391 OA
ATOM     25  H   LIG    1       26.741 -13.766   1.558  0.00  0.00    +0.210 HD
ENDBRANCH  23  24
BRANCH  23  26
ATOM     26  C   LIG    1       27.598 -13.708   4.053  0.00  0.00    +0.151 C 
BRANCH  26  27
ATOM     27  C   LIG    1       26.492 -13.637   5.074  0.00  0.00    +0.307 C 
ATOM     28  O   LIG    1       25.304 -13.576   4.764  0.00  0.00    -0.251 OA
BRANCH  27  29
ATOM     29  O   LIG    1       26.885 -13.575   6.361  0.00  0.00    -0.481 OA
ATOM     30  H   LIG    1       26.618 -12.717   6.775  0.00  0.00    +0.295 HD
ENDBRANCH  27  29
ENDBRANCH  26  27
ENDBRANCH  23  26
ENDBRANCH  22  23
ENDBRANCH  19  22
ENDBRANCH  18  19
ENDBRANCH   2  17
BRANCH   5  31
ATOM     31  N   LIG    1       25.048 -23.990   6.660  0.00  0.00    -0.178 N 
ATOM     32  C   LIG    1       26.040 -24.324   7.687  0.00  0.00    +0.160 C 
BRANCH  31  33
ATOM     33  S   LIG    1       24.798 -25.084   5.423  0.00  0.00    +0.045 S 
ATOM     34  O   LIG    1       24.939 -24.398   4.139  0.00  0.00    -0.155 OA
ATOM     35  O   LIG    1       23.600 -25.825   5.715  0.00  0.00    -0.155 OA
ATOM     36  C   LIG    1       26.171 -26.221   5.543  0.00  0.00    +0.218 C 
ENDBRANCH  31  33
ENDBRANCH   5  31
TORSDOF 13
ENDMDL
MODEL 3
REMARK VINA RESULT:      -6.4      2.723      4.882
REMARK  Name = *****
REMARK                            x       y       z     vdW  Elec       q    Type
REMARK                         _______ _______ _______ _____ _____    ______ ____
ROOT
ATOM      1  C   LIG    1       25.580 -29.411  11.047  0.00  0.00    +0.057 A 
ATOM      2  C   LIG    1       25.843 -29.596   9.663  0.00  0.00    +0.022 A 
ATOM      3  C   LIG    1       25.549 -30.888   9.136  0.00  0.00    +0.084 A 
ATOM      4  N   LIG    1       25.025 -31.852   9.930  0.00  0.00    -0.212 NA
ATOM      5  C   LIG    1       24.806 -31.560  11.202  0.00  0.00    +0.238 A 
ATOM      6  N   LIG    1       25.070 -30.405  11.812  0.00  0.00    -0.217 NA
ENDROOT
BRANCH   3   7
ATOM      7  C   LIG    1       25.727 -31.417   7.726  0.00  0.00    +0.001 A 
ATOM      8  C   LIG    1       26.881 -32.180   7.386  0.00  0.00    +0.013 A 
ATOM      9  C   LIG    1       27.112 -32.690   6.095  0.00  0.00    +0.039 A 
ATOM     10  C   LIG    1       26.185 -32.452   5.100  0.00  0.00    +0.123 A 
ATOM     11  F   LIG    1       26.405 -32.900   3.856  0.00  0.00    -0.205 F 
ATOM     12  C   LIG    1       25.010 -31.779   5.394  0.00  0.00    +0.039 A 
ATOM     13  C   LIG    1       24.780 -31.292   6.697  0.00  0.00    +0.013 A 
ENDBRANCH   3   7
BRANCH   1  15
ATOM     14  C   LIG    1       24.662 -27.974  12.902  0.00  0.00    +0.014 C 
ATOM     15  C   LIG    1       25.740 -28.087  11.808  0.00  0.00    +0.032 C 
ATOM     16  C   LIG    1       27.106 -27.893  12.498  0.00  0.00    +0.014 C 
ENDBRANCH   1  15
BRANCH   2  17
ATOM     17  C   LIG    1       26.411 -28.506   8.837  0.00  0.00    +0.010 C 
ATOM     18  C   LIG    1       25.788 -27.990   7.757  0.00  0.00    +0.005 C 
BRANCH  18  19
ATOM     19  C   LIG    1       26.418 -27.033   6.770  0.00  0.00    +0.140 C 
BRANCH  19  20
ATOM     20  O   LIG    1       26.267 -27.615   5.482  0.00  0.00    -0.388 OA
ATOM     21  H   LIG    1       26.541 -28.546   5.529  0.00  0.00    +0.210 HD
ENDBRANCH  19  20
BRANCH  19  22
ATOM     22  C   LIG    1       25.855 -25.596   6.725  0.00  0.00    +0.067 C 
BRANCH  22  23
ATOM     23  C   LIG    1       25.095 -25.164   5.453  0.00  0.00    +0.128 C 
BRANCH  23  24
ATOM     24  O   LIG    1       23.840 -25.882   5.380  0.00  0.00    -0.391 OA
ATOM     25  H   LIG    1       23.631 -26.065   4.445  0.00  0.00    +0.210 HD
ENDBRANCH  23  24
BRANCH  23  26
ATOM     26  C   LIG    1       24.713 -23.682   5.421  0.00  0.00    +0.151 C 
BRANCH  26  27
ATOM     27  C   LIG    1       23.811 -23.248   6.548  0.00  0.00    +0.307 C 
ATOM     28  O   LIG    1       24.204 -22.556   7.484  0.00  0.00    -0.251 OA
BRANCH  27  29
ATOM     29  O   LIG    1       22.551 -23.725   6.507  0.00  0.00    -0.481 OA
ATOM     30  H   LIG    1       22.154 -23.605   5.609  0.00  0.00    +0.295 HD
ENDBRANCH  27  29
ENDBRANCH  26  27
ENDBRANCH  23  26
ENDBRANCH  22  23
ENDBRANCH  19  22
ENDBRANCH  18  19
ENDBRANCH   2  17
BRANCH   5  31
ATOM     31  N   LIG    1       24.168 -32.546  11.964  0.00  0.00    -0.178 N 
ATOM     32  C   LIG    1       24.962 -33.750  12.228  0.00  0.00    +0.160 C 
BRANCH  31  33
ATOM     33  S   LIG    1       22.542 -32.734  11.630  0.00  0.00    +0.045 S 
ATOM     34  O   LIG    1       22.371 -33.825  10.673  0.00  0.00    -0.155 OA
ATOM     35  O   LIG    1       21.990 -31.436  11.348  0.00  0.00    -0.155 OA
ATOM     36  C   LIG    1       21.829 -33.294  13.170  0.00  0.00    +0.218 C 
ENDBRANCH  31  33
ENDBRANCH   5  31
TORSDOF 13
ENDMDL
MODEL 4
REMARK VINA RESULT:      -6.2      7.466     11.955
REMARK  Name = *****
REMARK                            x       y       z     vdW  Elec       q    Type
REMARK                         _______ _______ _______ _____ _____    ______ ____
ROOT
ATOM      1  C   LIG    1       25.229 -18.930   3.850  0.00  0.00    +0.057 A 
ATOM      2  C   LIG    1       26.047 -19.668   4.746  0.00  0.00    +0.022 A 
ATOM      3  C   LIG    1       27.277 -19.055   5.124  0.00  0.00    +0.084 A 
ATOM      4  N   LIG    1       27.604 -17.826   4.659  0.00  0.00    -0.212 NA
ATOM      5  C   LIG    1       26.756 -17.223   3.841  0.00  0.00    +0.238 A 
ATOM      6  N   LIG    1       25.598 -17.710   3.394  0.00  0.00    -0.217 NA
ENDROOT
BRANCH   3   7
ATOM      7  C   LIG    1       28.372 -19.573   6.037  0.00  0.00    +0.001 A 
ATOM      8  C   LIG    1       29.614 -18.880   6.132  0.00  0.00    +0.013 A 
ATOM      9  C   LIG    1       30.674 -19.313   6.949  0.00  0.00    +0.039 A 
ATOM     10  C   LIG    1       30.520 -20.460   7.704  0.00  0.00    +0.123 A 
ATOM     11  F   LIG    1       31.532 -20.906   8.461  0.00  0.00    -0.205 F 
ATOM     12  C   LIG    1       29.307 -21.131   7.703  0.00  0.00    +0.039 A 
ATOM     13  C   LIG    1       28.245 -20.675   6.898  0.00  0.00    +0.013 A 
ENDBRANCH   3   7
BRANCH   1  15
ATOM     14  C   LIG    1       23.829 -20.849   3.012  0.00  0.00    +0.014 C 
ATOM     15  C   LIG    1       23.832 -19.352   3.374  0.00  0.00    +0.032 C 
ATOM     16  C   LIG    1       22.700 -19.132   4.399  0.00  0.00    +0.014 C 
ENDBRANCH   1  15
BRANCH   2  17
ATOM     17  C   LIG    1       25.639 -21.007   5.231  0.00  0.00    +0.010 C 
ATOM     18  C   LIG    1       24.960 -21.207   6.381  0.00  0.00    +0.005 C 
BRANCH  18  19
ATOM     19  C   LIG    1       24.710 -22.557   7.015  0.00  0.00    +0.140 C 
BRANCH  19  20
ATOM     20  O   LIG    1       23.397 -22.949   6.639  0.00  0.00    -0.388 OA
ATOM     21  H   LIG    1       23.268 -23.877   6.891  0.00  0.00    +0.210 HD
ENDBRANCH  19  20
BRANCH  19  22
ATOM     22  C   LIG    1       25.684 -23.697   6.648  0.00  0.00    +0.067 C 
BRANCH  22  23
ATOM     23  C   LIG    1       25.076 -25.028   6.156  0.00  0.00    +0.128 C 
BRANCH  23  24
ATOM     24  O   LIG    1       24.983 -25.005   4.711  0.00  0.00    -0.391 OA
ATOM     25  H   LIG    1       24.570 -25.833   4.405  0.00  0.00    +0.210 HD
ENDBRANCH  23  24
BRANCH  23  26
ATOM     26  C   LIG    1       25.915 -26.265   6.486  0.00  0.00    +0.151 C 
BRANCH  26  27
ATOM     27  C   LIG    1       26.098 -27.217   5.332  0.00  0.00    +0.307 C 
ATOM     28  O   LIG    1       25.219 -27.995   4.968  0.00  0.00    -0.251 OA
BRANCH  27  29
ATOM     29  O   LIG    1       27.316 -27.216   4.757  0.00  0.00    -0.481 OA
ATOM     30  H   LIG    1       27.933 -26.606   5.232  0.00  0.00    +0.295 HD
ENDBRANCH  27  29
ENDBRANCH  26  27
ENDBRANCH  23  26
ENDBRANCH  22  23
ENDBRANCH  19  22
ENDBRANCH  18  19
ENDBRANCH   2  17
BRANCH   5  31
ATOM     31  N   LIG    1       27.080 -15.914   3.466  0.00  0.00    -0.178 N 
ATOM     32  C   LIG    1       28.300 -15.370   4.069  0.00  0.00    +0.160 C 
BRANCH  31  33
ATOM     33  S   LIG    1       25.765 -14.898   3.296  0.00  0.00    +0.045 S 
ATOM     34  O   LIG    1       24.562 -15.589   3.756  0.00  0.00    -0.155 OA
ATOM     35  O   LIG    1       25.807 -14.327   1.977  0.00  0.00    -0.155 OA
ATOM     36  C   LIG    1       26.066 -13.576   4.460  0.00  0.00    +0.218 C 
ENDBRANCH  31  33
ENDBRANCH   5  31
TORSDOF 13
ENDMDL
MODEL 5
REMARK VINA RESULT:      -6.0      3.013      5.085
REMARK  Name = *****
REMARK                            x       y       z     vdW  Elec       q    Type
REMARK                         _______ _______ _______ _____ _____    ______ ____
ROOT
ATOM      1  C   LIG    1       25.370 -29.556  10.817  0.00  0.00    +0.057 A 
ATOM      2  C   LIG    1       25.454 -29.769   9.415  0.00  0.00    +0.022 A 
ATOM      3  C   LIG    1       25.096 -31.069   8.955  0.00  0.00    +0.084 A 
ATOM      4  N   LIG    1       24.677 -32.016   9.827  0.00  0.00    -0.212 NA
ATOM      5  C   LIG    1       24.621 -31.700  11.111  0.00  0.00    +0.238 A 
ATOM      6  N   LIG    1       24.961 -30.534  11.660  0.00  0.00    -0.217 NA
ENDROOT
BRANCH   3   7
ATOM      7  C   LIG    1       25.092 -31.626   7.543  0.00  0.00    +0.001 A 
ATOM      8  C   LIG    1       23.866 -32.002   6.923  0.00  0.00    +0.013 A 
ATOM      9  C   LIG    1       23.794 -32.534   5.623  0.00  0.00    +0.039 A 
ATOM     10  C   LIG    1       24.958 -32.703   4.898  0.00  0.00    +0.123 A 
ATOM     11  F   LIG    1       24.912 -33.242   3.672  0.00  0.00    -0.205 F 
ATOM     12  C   LIG    1       26.169 -32.286   5.426  0.00  0.00    +0.039 A 
ATOM     13  C   LIG    1       26.225 -31.733   6.721  0.00  0.00    +0.013 A 
ENDBRANCH   3   7
BRANCH   1  15
ATOM     14  C   LIG    1       24.834 -28.162  12.846  0.00  0.00    +0.014 C 
ATOM     15  C   LIG    1       25.625 -28.219  11.526  0.00  0.00    +0.032 C 
ATOM     16  C   LIG    1       27.102 -27.936  11.872  0.00  0.00    +0.014 C 
ENDBRANCH   1  15
BRANCH   2  17
ATOM     17  C   LIG    1       25.913 -28.695   8.503  0.00  0.00    +0.010 C 
ATOM     18  C   LIG    1       25.139 -28.162   7.534  0.00  0.00    +0.005 C 
BRANCH  18  19
ATOM     19  C   LIG    1       25.629 -27.225   6.454  0.00  0.00    +0.140 C 
BRANCH  19  20
ATOM     20  O   LIG    1       26.247 -28.032   5.460  0.00  0.00    -0.388 OA
ATOM     21  H   LIG    1       26.654 -27.450   4.798  0.00  0.00    +0.210 HD
ENDBRANCH  19  20
BRANCH  19  22
ATOM     22  C   LIG    1       24.576 -26.328   5.768  0.00  0.00    +0.067 C 
BRANCH  22  23
ATOM     23  C   LIG    1       24.677 -24.804   5.991  0.00  0.00    +0.128 C 
BRANCH  23  24
ATOM     24  O   LIG    1       24.773 -24.139   4.709  0.00  0.00    -0.391 OA
ATOM     25  H   LIG    1       25.049 -24.788   4.034  0.00  0.00    +0.210 HD
ENDBRANCH  23  24
BRANCH  23  26
ATOM     26  C   LIG    1       23.455 -24.185   6.675  0.00  0.00    +0.151 C 
BRANCH  26  27
ATOM     27  C   LIG    1       23.477 -22.680   6.740  0.00  0.00    +0.307 C 
ATOM     28  O   LIG    1       23.888 -22.063   7.720  0.00  0.00    -0.251 OA
BRANCH  27  29
ATOM     29  O   LIG    1       22.949 -22.040   5.678  0.00  0.00    -0.481 OA
ATOM     30  H   LIG    1       23.306 -21.120   5.603  0.00  0.00    +0.295 HD
ENDBRANCH  27  29
ENDBRANCH  26  27
ENDBRANCH  23  26
ENDBRANCH  22  23
ENDBRANCH  19  22
ENDBRANCH  18  19
ENDBRANCH   2  17
BRANCH   5  31
ATOM     31  N   LIG    1       24.085 -32.670  11.966  0.00  0.00    -0.178 N 
ATOM     32  C   LIG    1       22.624 -32.678  12.072  0.00  0.00    +0.160 C 
BRANCH  31  33
ATOM     33  S   LIG    1       24.976 -32.936  13.354  0.00  0.00    +0.045 S 
ATOM     34  O   LIG    1       25.252 -31.653  14.000  0.00  0.00    -0.155 OA
ATOM     35  O   LIG    1       26.058 -33.825  13.029  0.00  0.00    -0.155 OA
ATOM     36  C   LIG    1       23.865 -33.820  14.439  0.00  0.00    +0.218 C 
ENDBRANCH  31  33
ENDBRANCH   5  31
TORSDOF 13
ENDMDL
MODEL 6
REMARK VINA RESULT:      -5.8      4.864      7.009
REMARK  Name = *****
REMARK                            x       y       z     vdW  Elec       q    Type
REMARK                         _______ _______ _______ _____ _____    ______ ____
ROOT
ATOM      1  C   LIG    1       20.930 -29.238  12.607  0.00  0.00    +0.057 A 
ATOM      2  C   LIG    1       22.239 -29.329  12.061  0.00  0.00    +0.022 A 
ATOM      3  C   LIG    1       22.435 -30.333  11.068  0.00  0.00    +0.084 A 
ATOM      4  N   LIG    1       21.407 -31.119  10.671  0.00  0.00    -0.212 NA
ATOM      5  C   LIG    1       20.225 -30.932  11.237  0.00  0.00    +0.238 A 
ATOM      6  N   LIG    1       19.931 -30.053  12.195  0.00  0.00    -0.217 NA
ENDROOT
BRANCH   3   7
ATOM      7  C   LIG    1       23.695 -30.704  10.307  0.00  0.00    +0.001 A 
ATOM      8  C   LIG    1       24.122 -29.916   9.199  0.00  0.00    +0.013 A 
ATOM      9  C   LIG    1       25.272 -30.212   8.445  0.00  0.00    +0.039 A 
ATOM     10  C   LIG    1       26.038 -31.310   8.784  0.00  0.00    +0.123 A 
ATOM     11  F   LIG    1       27.117 -31.627   8.056  0.00  0.00    -0.205 F 
ATOM     12  C   LIG    1       25.708 -32.066   9.898  0.00  0.00    +0.039 A 
ATOM     13  C   LIG    1       24.566 -31.748  10.658  0.00  0.00    +0.013 A 
ENDBRANCH   3   7
BRANCH   1  15
ATOM     14  C   LIG    1       20.362 -26.807  12.943  0.00  0.00    +0.014 C 
ATOM     15  C   LIG    1       20.468 -28.184  13.623  0.00  0.00    +0.032 C 
ATOM     16  C   LIG    1       19.102 -28.470  14.282  0.00  0.00    +0.014 C 
ENDBRANCH   1  15
BRANCH   2  17
ATOM     17  C   LIG    1       23.329 -28.440  12.526  0.00  0.00    +0.010 C 
ATOM     18  C   LIG    1       24.142 -28.740  13.560  0.00  0.00    +0.005 C 
BRANCH  18  19
ATOM     19  C   LIG    1       25.120 -27.779  14.198  0.00  0.00    +0.140 C 
BRANCH  19  20
ATOM     20  O   LIG    1       26.160 -28.567  14.761  0.00  0.00    -0.388 OA
ATOM     21  H   LIG    1       26.906 -28.586  14.138  0.00  0.00    +0.210 HD
ENDBRANCH  19  20
BRANCH  19  22
ATOM     22  C   LIG    1       25.758 -26.712  13.282  0.00  0.00    +0.067 C 
BRANCH  22  23
ATOM     23  C   LIG    1       26.974 -27.133  12.430  0.00  0.00    +0.128 C 
BRANCH  23  24
ATOM     24  O   LIG    1       28.028 -27.605  13.303  0.00  0.00    -0.391 OA
ATOM     25  H   LIG    1       27.830 -27.332  14.218  0.00  0.00    +0.210 HD
ENDBRANCH  23  24
BRANCH  23  26
ATOM     26  C   LIG    1       26.699 -28.291  11.467  0.00  0.00    +0.151 C 
BRANCH  26  27
ATOM     27  C   LIG    1       27.554 -29.510  11.703  0.00  0.00    +0.307 C 
ATOM     28  O   LIG    1       28.540 -29.771  11.018  0.00  0.00    -0.251 OA
BRANCH  27  29
ATOM     29  O   LIG    1       27.132 -30.343  12.673  0.00  0.00    -0.481 OA
ATOM     30  H   LIG    1       27.432 -31.270  12.503  0.00  0.00    +0.295 HD
ENDBRANCH  27  29
ENDBRANCH  26  27
ENDBRANCH  23  26
ENDBRANCH  22  23
ENDBRANCH  19  22
ENDBRANCH  18  19
ENDBRANCH   2  17
BRANCH   5  31
ATOM     31  N   LIG    1       19.165 -31.691  10.727  0.00  0.00    -0.178 N 
ATOM     32  C   LIG    1       18.244 -30.971   9.842  0.00  0.00    +0.160 C 
BRANCH  31  33
ATOM     33  S   LIG    1       18.521 -32.792  11.806  0.00  0.00    +0.045 S 
ATOM     34  O   LIG    1       19.538 -33.146  12.795  0.00  0.00    -0.155 OA
ATOM     35  O   LIG    1       17.859 -33.822  11.054  0.00  0.00    -0.155 OA
ATOM     36  C   LIG    1       17.261 -31.877  12.682  0.00  0.00    +0.218 C 
ENDBRANCH  31  33
ENDBRANCH   5  31
TORSDOF 13
ENDMDL
MODEL 7
REMARK VINA RESULT:      -5.6      4.231      6.812
REMARK  Name = *****
REMARK                            x       y       z     vdW  Elec       q    Type
REMARK                         _______ _______ _______ _____ _____    ______ ____
ROOT
ATOM      1  C   LIG    1       22.276 -31.396  11.005  0.00  0.00    +0.057 A 
ATOM      2  C   LIG    1       22.853 -30.344  11.765  0.00  0.00    +0.022 A 
ATOM      3  C   LIG    1       24.164 -29.938  11.381  0.00  0.00    +0.084 A 
ATOM      4  N   LIG    1       24.785 -30.523  10.330  0.00  0.00    -0.212 NA
ATOM      5  C   LIG    1       24.144 -31.483   9.683  0.00  0.00    +0.238 A 
ATOM      6  N   LIG    1       22.935 -31.967   9.970  0.00  0.00    -0.217 NA
ENDROOT
BRANCH   3   7
ATOM      7  C   LIG    1       25.060 -28.873  11.986  0.00  0.00    +0.001 A 
ATOM      8  C   LIG    1       26.146 -28.338  11.234  0.00  0.00    +0.013 A 
ATOM      9  C   LIG    1       27.020 -27.358  11.739  0.00  0.00    +0.039 A 
ATOM     10  C   LIG    1       26.829 -26.878  13.020  0.00  0.00    +0.123 A 
ATOM     11  F   LIG    1       27.673 -25.971  13.530  0.00  0.00    -0.205 F 
ATOM     12  C   LIG    1       25.745 -27.312  13.767  0.00  0.00    +0.039 A 
ATOM     13  C   LIG    1       24.863 -28.277  13.242  0.00  0.00    +0.013 A 
ENDBRANCH   3   7
BRANCH   1  15
ATOM     14  C   LIG    1       19.880 -31.185  10.255  0.00  0.00    +0.014 C 
ATOM     15  C   LIG    1       20.851 -31.938  11.184  0.00  0.00    +0.032 C 
ATOM     16  C   LIG    1       20.684 -33.443  10.888  0.00  0.00    +0.014 C 
ENDBRANCH   1  15
BRANCH   2  17
ATOM     17  C   LIG    1       22.128 -29.732  12.903  0.00  0.00    +0.010 C 
ATOM     18  C   LIG    1       21.356 -28.631  12.787  0.00  0.00    +0.005 C 
BRANCH  18  19
ATOM     19  C   LIG    1       20.773 -27.857  13.948  0.00  0.00    +0.140 C 
BRANCH  19  20
ATOM     20  O   LIG    1       21.870 -27.303  14.662  0.00  0.00    -0.388 OA
ATOM     21  H   LIG    1       22.121 -26.464  14.242  0.00  0.00    +0.210 HD
ENDBRANCH  19  20
BRANCH  19  22
ATOM     22  C   LIG    1       19.786 -26.718  13.611  0.00  0.00    +0.067 C 
BRANCH  22  23
ATOM     23  C   LIG    1       18.709 -26.370  14.660  0.00  0.00    +0.128 C 
BRANCH  23  24
ATOM     24  O   LIG    1       17.656 -25.603  14.025  0.00  0.00    -0.391 OA
ATOM     25  H   LIG    1       17.182 -25.091  14.706  0.00  0.00    +0.210 HD
ENDBRANCH  23  24
BRANCH  23  26
ATOM     26  C   LIG    1       18.008 -27.586  15.272  0.00  0.00    +0.151 C 
BRANCH  26  27
ATOM     27  C   LIG    1       16.937 -28.189  14.400  0.00  0.00    +0.307 C 
ATOM     28  O   LIG    1       15.775 -27.789  14.404  0.00  0.00    -0.251 OA
BRANCH  27  29
ATOM     29  O   LIG    1       17.313 -29.249  13.658  0.00  0.00    -0.481 OA
ATOM     30  H   LIG    1       17.160 -30.097  14.144  0.00  0.00    +0.295 HD
ENDBRANCH  27  29
ENDBRANCH  26  27
ENDBRANCH  23  26
ENDBRANCH  22  23
ENDBRANCH  19  22
ENDBRANCH  18  19
ENDBRANCH   2  17
BRANCH   5  31
ATOM     31  N   LIG    1       24.774 -31.991   8.541  0.00  0.00    -0.178 N 
ATOM     32  C   LIG    1       26.227 -32.152   8.643  0.00  0.00    +0.160 C 
BRANCH  31  33
ATOM     33  S   LIG    1       24.144 -31.433   7.098  0.00  0.00    +0.045 S 
ATOM     34  O   LIG    1       23.666 -30.063   7.280  0.00  0.00    -0.155 OA
ATOM     35  O   LIG    1       23.259 -32.439   6.576  0.00  0.00    -0.155 OA
ATOM     36  C   LIG    1       25.550 -31.337   6.000  0.00  0.00    +0.218 C 
ENDBRANCH  31  33
ENDBRANCH   5  31
TORSDOF 13
ENDMDL
MODEL 8
REMARK VINA RESULT:      -5.5      1.632      1.982
REMARK  Name = *****
REMARK                            x       y       z     vdW  Elec       q    Type
REMARK                         _______ _______ _______ _____ _____    ______ ____
ROOT
ATOM      1  C   LIG    1       25.039 -29.506   6.886  0.00  0.00    +0.057 A 
ATOM      2  C   LIG    1       25.535 -28.702   7.947  0.00  0.00    +0.022 A 
ATOM      3  C   LIG    1       25.394 -29.239   9.260  0.00  0.00    +0.084 A 
ATOM      4  N   LIG    1       24.840 -30.459   9.449  0.00  0.00    -0.212 NA
ATOM      5  C   LIG    1       24.428 -31.128   8.383  0.00  0.00    +0.238 A 
ATOM      6  N   LIG    1       24.477 -30.716   7.116  0.00  0.00    -0.217 NA
ENDROOT
BRANCH   3   7
ATOM      7  C   LIG    1       25.794 -28.639  10.595  0.00  0.00    +0.001 A 
ATOM      8  C   LIG    1       24.846 -28.552  11.656  0.00  0.00    +0.013 A 
ATOM      9  C   LIG    1       25.149 -27.997  12.912  0.00  0.00    +0.039 A 
ATOM     10  C   LIG    1       26.421 -27.513  13.148  0.00  0.00    +0.123 A 
ATOM     11  F   LIG    1       26.717 -26.950  14.327  0.00  0.00    -0.205 F 
ATOM     12  C   LIG    1       27.400 -27.640  12.176  0.00  0.00    +0.039 A 
ATOM     13  C   LIG    1       27.091 -28.217  10.929  0.00  0.00    +0.013 A 
ENDBRANCH   3   7
BRANCH   1  15
ATOM     14  C   LIG    1       25.562 -30.428   4.601  0.00  0.00    +0.014 C 
ATOM     15  C   LIG    1       25.157 -29.171   5.393  0.00  0.00    +0.032 C 
ATOM     16  C   LIG    1       23.868 -28.624   4.744  0.00  0.00    +0.014 C 
ENDBRANCH   1  15
BRANCH   2  17
ATOM     17  C   LIG    1       26.139 -27.374   7.686  0.00  0.00    +0.010 C 
ATOM     18  C   LIG    1       25.498 -26.381   7.035  0.00  0.00    +0.005 C 
BRANCH  18  19
ATOM     19  C   LIG    1       26.144 -25.098   6.565  0.00  0.00    +0.140 C 
BRANCH  19  20
ATOM     20  O   LIG    1       25.630 -24.831   5.267  0.00  0.00    -0.388 OA
ATOM     21  H   LIG    1       25.396 -23.890   5.214  0.00  0.00    +0.210 HD
ENDBRANCH  19  20
BRANCH  19  22
ATOM     22  C   LIG    1       25.935 -23.843   7.439  0.00  0.00    +0.067 C 
BRANCH  22  23
ATOM     23  C   LIG    1       25.477 -22.547   6.737  0.00  0.00    +0.128 C 
BRANCH  23  24
ATOM     24  O   LIG    1       24.299 -22.033   7.404  0.00  0.00    -0.391 OA
ATOM     25  H   LIG    1       24.401 -21.072   7.535  0.00  0.00    +0.210 HD
ENDBRANCH  23  24
BRANCH  23  26
ATOM     26  C   LIG    1       26.498 -21.408   6.787  0.00  0.00    +0.151 C 
BRANCH  26  27
ATOM     27  C   LIG    1       27.069 -21.146   8.157  0.00  0.00    +0.307 C 
ATOM     28  O   LIG    1       28.194 -21.512   8.488  0.00  0.00    -0.251 OA
BRANCH  27  29
ATOM     29  O   LIG    1       26.241 -20.542   9.031  0.00  0.00    -0.481 OA
ATOM     30  H   LIG    1       26.150 -19.578   8.828  0.00  0.00    +0.295 HD
ENDBRANCH  27  29
ENDBRANCH  26  27
ENDBRANCH  23  26
ENDBRANCH  22  23
ENDBRANCH  19  22
ENDBRANCH  18  19
ENDBRANCH   2  17
BRANCH   5  31
ATOM     31  N   LIG    1       23.958 -32.427   8.609  0.00  0.00    -0.178 N 
ATOM     32  C   LIG    1       23.826 -33.265   7.414  0.00  0.00    +0.160 C 
BRANCH  31  33
ATOM     33  S   LIG    1       22.775 -32.539   9.784  0.00  0.00    +0.045 S 
ATOM     34  O   LIG    1       21.994 -31.304   9.798  0.00  0.00    -0.155 OA
ATOM     35  O   LIG    1       23.390 -33.016  10.993  0.00  0.00    -0.155 OA
ATOM     36  C   LIG    1       21.681 -33.825   9.198  0.00  0.00    +0.218 C 
ENDBRANCH  31  33
ENDBRANCH   5  31
TORSDOF 13
ENDMDL
MODEL 9
REMARK VINA RESULT:      -5.4      4.519      6.185
REMARK  Name = *****
REMARK                            x       y       z     vdW  Elec       q    Type
REMARK                         _______ _______ _______ _____ _____    ______ ____
ROOT
ATOM      1  C   LIG    1       22.949 -30.082  11.999  0.00  0.00    +0.057 A 
ATOM      2  C   LIG    1       24.065 -30.205  11.129  0.00  0.00    +0.022 A 
ATOM      3  C   LIG    1       24.012 -31.273  10.187  0.00  0.00    +0.084 A 
ATOM      4  N   LIG    1       22.933 -32.090  10.132  0.00  0.00    -0.212 NA
ATOM      5  C   LIG    1       21.942 -31.870  10.982  0.00  0.00    +0.238 A 
ATOM      6  N   LIG    1       21.895 -30.928  11.924  0.00  0.00    -0.217 NA
ENDROOT
BRANCH   3   7
ATOM      7  C   LIG    1       25.030 -31.689   9.142  0.00  0.00    +0.001 A 
ATOM      8  C   LIG    1       25.034 -31.072   7.857  0.00  0.00    +0.013 A 
ATOM      9  C   LIG    1       25.942 -31.419   6.841  0.00  0.00    +0.039 A 
ATOM     10  C   LIG    1       26.885 -32.399   7.084  0.00  0.00    +0.123 A 
ATOM     11  F   LIG    1       27.735 -32.767   6.116  0.00  0.00    -0.205 F 
ATOM     12  C   LIG    1       26.972 -32.979   8.339  0.00  0.00    +0.039 A 
ATOM     13  C   LIG    1       26.071 -32.608   9.357  0.00  0.00    +0.013 A 
ENDBRANCH   3   7
BRANCH   1  15
ATOM     14  C   LIG    1       21.445 -28.201  12.739  0.00  0.00    +0.014 C 
ATOM     15  C   LIG    1       22.751 -28.963  13.031  0.00  0.00    +0.032 C 
ATOM     16  C   LIG    1       22.680 -29.435  14.498  0.00  0.00    +0.014 C 
ENDBRANCH   1  15
BRANCH   2  17
ATOM     17  C   LIG    1       25.219 -29.280  11.225  0.00  0.00    +0.010 C 
ATOM     18  C   LIG    1       26.255 -29.470  12.069  0.00  0.00    +0.005 C 
BRANCH  18  19
ATOM     19  C   LIG    1       27.339 -28.454  12.350  0.00  0.00    +0.140 C 
BRANCH  19  20
ATOM     20  O   LIG    1       28.307 -28.593  11.319  0.00  0.00    -0.388 OA
ATOM     21  H   LIG    1       27.845 -28.742  10.478  0.00  0.00    +0.210 HD
ENDBRANCH  19  20
BRANCH  19  22
ATOM     22  C   LIG    1       26.912 -26.972  12.421  0.00  0.00    +0.067 C 
BRANCH  22  23
ATOM     23  C   LIG    1       27.253 -26.189  13.707  0.00  0.00    +0.128 C 
BRANCH  23  24
ATOM     24  O   LIG    1       27.842 -24.916  13.349  0.00  0.00    -0.391 OA
ATOM     25  H   LIG    1       27.191 -24.207  13.509  0.00  0.00    +0.210 HD
ENDBRANCH  23  24
BRANCH  23  26
ATOM     26  C   LIG    1       26.039 -25.842  14.574  0.00  0.00    +0.151 C 
BRANCH  26  27
ATOM     27  C   LIG    1       24.981 -25.035  13.865  0.00  0.00    +0.307 C 
ATOM     28  O   LIG    1       25.145 -23.860  13.547  0.00  0.00    -0.251 OA
BRANCH  27  29
ATOM     29  O   LIG    1       23.807 -25.662  13.658  0.00  0.00    -0.481 OA
ATOM     30  H   LIG    1       23.914 -26.645  13.709  0.00  0.00    +0.295 HD
ENDBRANCH  27  29
ENDBRANCH  26  27
ENDBRANCH  23  26
ENDBRANCH  22  23
ENDBRANCH  19  22
ENDBRANCH  18  19
ENDBRANCH   2  17
BRANCH   5  31
ATOM     31  N   LIG    1       20.802 -32.668  10.826  0.00  0.00    -0.178 N 
ATOM     32  C   LIG    1       20.959 -33.822   9.936  0.00  0.00    +0.160 C 
BRANCH  31  33
ATOM     33  S   LIG    1       19.366 -31.816  10.766  0.00  0.00    +0.045 S 
ATOM     34  O   LIG    1       19.600 -30.526  10.118  0.00  0.00    -0.155 OA
ATOM     35  O   LIG    1       18.760 -31.868  12.068  0.00  0.00    -0.155 OA
ATOM     36  C   LIG    1       18.331 -32.760   9.657  0.00  0.00    +0.218 C 
ENDBRANCH  31  33
ENDBRANCH   5  31
TORSDOF 13
ENDMDL
