MODEL 1
REMARK VINA RESULT:       9.4      0.000      0.000
REMARK  Name = *****
REMARK                            x       y       z     vdW  Elec       q    Type
REMARK                         _______ _______ _______ _____ _____    ______ ____
ROOT
ATOM      1  C   LIG    1       22.127 -18.992   3.720  0.00  0.00    -0.002 C 
ATOM      2  C   LIG    1       23.025 -17.906   4.449  0.00  0.00    -0.026 C 
ATOM      3  C   LIG    1       22.843 -17.869   5.983  0.00  0.00    +0.012 C 
ATOM      4  C   LIG    1       22.494 -16.519   3.903  0.00  0.00    +0.001 C 
ATOM      5  C   LIG    1       23.494 -15.361   3.639  0.00  0.00    +0.025 C 
ATOM      6  C   LIG    1       25.137 -16.019   2.982  0.00  0.00    +0.001 C 
ATOM      7  C   LIG    1       25.059 -17.555   2.879  0.00  0.00    +0.005 C 
ATOM      8  C   LIG    1       26.610 -15.357   3.871  0.00  0.00    -0.026 C 
ATOM      9  C   LIG    1       27.547 -16.436   4.390  0.00  0.00    +0.012 C 
ATOM     10  C   LIG    1       26.768 -13.860   4.957  0.00  0.00    +0.000 C 
ATOM     11  C   LIG    1       27.392 -12.778   4.139  0.00  0.00    +0.035 C 
ATOM     12  C   LIG    1       26.276 -12.491   3.200  0.00  0.00    +0.115 C 
ATOM     13  C   LIG    1       25.204 -13.627   3.335  0.00  0.00    +0.032 C 
ATOM     14  C   LIG    1       25.084 -13.255   5.659  0.00  0.00    +0.035 C 
ATOM     15  C   LIG    1       25.481 -15.091   4.624  0.00  0.00    +0.009 C 
ATOM     16  C   LIG    1       23.531 -14.141   5.087  0.00  0.00    +0.118 C 
ATOM     17  C   LIG    1       21.654 -16.883   2.676  0.00  0.00    +0.005 C 
ATOM     18  C   LIG    1       24.511 -18.233   4.128  0.00  0.00    +0.007 C 
ATOM     19  C   LIG    1       20.977 -18.176   3.107  0.00  0.00    +0.004 C 
ENDROOT
BRANCH   1  21
ATOM     20  C   LIG    1       20.131 -20.432   4.362  0.00  0.00    +0.008 C 
ATOM     21  C   LIG    1       21.659 -20.262   4.507  0.00  0.00    -0.010 C 
BRANCH  21  22
ATOM     22  C   LIG    1       22.353 -21.572   4.037  0.00  0.00    +0.012 C 
BRANCH  22  23
ATOM     23  C   LIG    1       23.881 -21.536   4.133  0.00  0.00    +0.096 C 
BRANCH  23  24
ATOM     24  C   LIG    1       24.347 -21.479   5.574  0.00  0.00    +0.213 C 
ATOM     25  N   LIG    1       25.711 -21.556   5.742  0.00  0.00    -0.314 N 
ATOM     26  H   LIG    1       26.306 -21.668   4.929  0.00  0.00    +0.149 HD
ATOM     27  O   LIG    1       23.560 -21.376   6.510  0.00  0.00    -0.276 OA
BRANCH  25  28
ATOM     28  C   LIG    1       26.322 -21.475   7.061  0.00  0.00    +0.129 C 
BRANCH  28  29
ATOM     29  C   LIG    1       27.834 -21.368   6.986  0.00  0.00    +0.216 C 
BRANCH  29  30
ATOM     30  S   LIG    1       28.301 -19.895   6.095  0.00  0.00    +0.081 S 
ATOM     31  O   LIG    1       28.899 -18.946   6.997  0.00  0.00    -0.147 OA
ATOM     32  O   LIG    1       27.257 -19.526   5.158  0.00  0.00    -0.147 OA
BRANCH  30  33
ATOM     33  O   LIG    1       29.475 -20.537   5.191  0.00  0.00    -0.254 OA
ATOM     34  H   LIG    1       29.834 -19.829   4.614  0.00  0.00    +0.244 HD
ENDBRANCH  30  33
ENDBRANCH  29  30
ENDBRANCH  28  29
ENDBRANCH  25  28
ENDBRANCH  23  24
ENDBRANCH  22  23
ENDBRANCH  21  22
ENDBRANCH   1  21
BRANCH  12  35
ATOM     35  O   LIG    1       26.765 -12.382   1.873  0.00  0.00    -0.392 OA
ATOM     36  H   LIG    1       25.994 -12.382   1.279  0.00  0.00    +0.210 HD
ENDBRANCH  12  35
BRANCH  16  37
ATOM     37  O   LIG    1       22.929 -14.722   6.244  0.00  0.00    -0.392 OA
ATOM     38  H   LIG    1       23.283 -15.620   6.344  0.00  0.00    +0.210 HD
ENDBRANCH  16  37
TORSDOF 10
ENDMDL
MODEL 2
REMARK VINA RESULT:      10.9      1.175      1.518
REMARK  Name = *****
REMARK                            x       y       z     vdW  Elec       q    Type
REMARK                         _______ _______ _______ _____ _____    ______ ____
ROOT
ATOM      1  C   LIG    1       22.153 -17.207   3.323  0.00  0.00    -0.002 C 
ATOM      2  C   LIG    1       23.175 -16.355   4.186  0.00  0.00    -0.026 C 
ATOM      3  C   LIG    1       22.767 -16.197   5.667  0.00  0.00    +0.012 C 
ATOM      4  C   LIG    1       23.120 -14.906   3.551  0.00  0.00    +0.001 C 
ATOM      5  C   LIG    1       24.418 -14.059   3.451  0.00  0.00    +0.025 C 
ATOM      6  C   LIG    1       25.914 -15.148   3.081  0.00  0.00    +0.001 C 
ATOM      7  C   LIG    1       25.454 -16.616   2.975  0.00  0.00    +0.005 C 
ATOM      8  C   LIG    1       27.347 -14.845   4.200  0.00  0.00    -0.026 C 
ATOM      9  C   LIG    1       27.875 -16.102   4.873  0.00  0.00    +0.012 C 
ATOM     10  C   LIG    1       27.717 -13.388   5.289  0.00  0.00    +0.000 C 
ATOM     11  C   LIG    1       28.725 -12.544   4.580  0.00  0.00    +0.035 C 
ATOM     12  C   LIG    1       27.888 -12.026   3.467  0.00  0.00    +0.115 C 
ATOM     13  C   LIG    1       26.548 -12.840   3.427  0.00  0.00    +0.032 C 
ATOM     14  C   LIG    1       26.160 -12.336   5.697  0.00  0.00    +0.035 C 
ATOM     15  C   LIG    1       26.222 -14.261   4.752  0.00  0.00    +0.009 C 
ATOM     16  C   LIG    1       24.542 -12.820   4.878  0.00  0.00    +0.118 C 
ATOM     17  C   LIG    1       22.421 -15.100   2.203  0.00  0.00    +0.005 C 
ATOM     18  C   LIG    1       24.556 -17.068   4.118  0.00  0.00    +0.007 C 
ATOM     19  C   LIG    1       21.370 -16.154   2.523  0.00  0.00    +0.004 C 
ENDROOT
BRANCH   1  21
ATOM     20  C   LIG    1       19.934 -18.448   3.238  0.00  0.00    +0.008 C 
ATOM     21  C   LIG    1       21.249 -18.274   4.028  0.00  0.00    -0.010 C 
BRANCH  21  22
ATOM     22  C   LIG    1       21.931 -19.664   4.173  0.00  0.00    +0.012 C 
BRANCH  22  23
ATOM     23  C   LIG    1       22.711 -19.842   5.479  0.00  0.00    +0.096 C 
BRANCH  23  24
ATOM     24  C   LIG    1       23.901 -20.761   5.295  0.00  0.00    +0.213 C 
ATOM     25  N   LIG    1       24.837 -20.700   6.303  0.00  0.00    -0.314 N 
ATOM     26  H   LIG    1       24.700 -20.051   7.069  0.00  0.00    +0.149 HD
ATOM     27  O   LIG    1       24.012 -21.497   4.319  0.00  0.00    -0.276 OA
BRANCH  25  28
ATOM     28  C   LIG    1       26.020 -21.550   6.297  0.00  0.00    +0.129 C 
BRANCH  28  29
ATOM     29  C   LIG    1       27.179 -20.922   7.049  0.00  0.00    +0.216 C 
BRANCH  29  30
ATOM     30  S   LIG    1       28.064 -19.798   5.984  0.00  0.00    +0.081 S 
ATOM     31  O   LIG    1       28.835 -18.878   6.776  0.00  0.00    -0.147 OA
ATOM     32  O   LIG    1       27.208 -19.363   4.897  0.00  0.00    -0.147 OA
BRANCH  30  33
ATOM     33  O   LIG    1       29.081 -20.865   5.322  0.00  0.00    -0.254 OA
ATOM     34  H   LIG    1       28.813 -20.998   4.387  0.00  0.00    +0.244 HD
ENDBRANCH  30  33
ENDBRANCH  29  30
ENDBRANCH  28  29
ENDBRANCH  25  28
ENDBRANCH  23  24
ENDBRANCH  22  23
ENDBRANCH  21  22
ENDBRANCH   1  21
BRANCH  12  35
ATOM     35  O   LIG    1       28.593 -12.111   2.239  0.00  0.00    -0.392 OA
ATOM     36  H   LIG    1       29.333 -12.729   2.373  0.00  0.00    +0.210 HD
ENDBRANCH  12  35
BRANCH  16  37
ATOM     37  O   LIG    1       23.632 -13.169   5.922  0.00  0.00    -0.392 OA
ATOM     38  H   LIG    1       23.599 -12.428   6.548  0.00  0.00    +0.210 HD
ENDBRANCH  16  37
TORSDOF 10
ENDMDL
