MODEL 1
REMARK VINA RESULT:      -9.3      0.000      0.000
REMARK  Name = *****
REMARK                            x       y       z     vdW  Elec       q    Type
REMARK                         _______ _______ _______ _____ _____    ______ ____
ROOT
ATOM      1  C   LIG    1       23.769 -21.890   3.874  0.00  0.00    +0.105 C 
ATOM      2  N   LIG    1       23.637 -20.663   4.667  0.00  0.00    -0.304 NA
ATOM      3  C   LIG    1       24.971 -20.127   4.969  0.00  0.00    +0.093 C 
ATOM      4  C   LIG    1       25.267 -20.386   6.469  0.00  0.00    +0.045 C 
ATOM      5  C   LIG    1       24.144 -21.349   6.947  0.00  0.00    +0.045 C 
ATOM      6  C   LIG    1       24.414 -22.842   6.891  0.00  0.00    -0.000 A 
ATOM      7  C   LIG    1       25.658 -23.371   7.242  0.00  0.00    +0.132 A 
ATOM      8  O   LIG    1       26.543 -22.657   8.008  0.00  0.00    -0.456 OA
ATOM      9  C   LIG    1       27.287 -21.697   7.381  0.00  0.00    +0.132 A 
ATOM     10  C   LIG    1       28.672 -21.787   7.589  0.00  0.00    +0.048 A 
ATOM     11  C   LIG    1       29.537 -20.809   7.098  0.00  0.00    +0.023 A 
ATOM     12  C   LIG    1       29.009 -19.721   6.416  0.00  0.00    +0.042 A 
ATOM     13 CL   LIG    1       30.049 -18.491   5.815  0.00  0.00    -0.084 Cl
ATOM     14  C   LIG    1       27.633 -19.619   6.228  0.00  0.00    +0.027 A 
ATOM     15  C   LIG    1       25.951 -24.724   7.033  0.00  0.00    +0.046 A 
ATOM     16  C   LIG    1       24.991 -25.583   6.508  0.00  0.00    +0.004 A 
ATOM     17  C   LIG    1       23.705 -25.107   6.281  0.00  0.00    +0.001 A 
ATOM     18  C   LIG    1       23.418 -23.762   6.505  0.00  0.00    +0.007 A 
ATOM     19  C   LIG    1       26.740 -20.611   6.699  0.00  0.00    +0.001 A 
ATOM     20  C   LIG    1       23.022 -20.877   5.991  0.00  0.00    +0.093 C 
ENDROOT
TORSDOF 0
ENDMDL
MODEL 2
REMARK VINA RESULT:      -8.6      2.102      3.795
REMARK  Name = *****
REMARK                            x       y       z     vdW  Elec       q    Type
REMARK                         _______ _______ _______ _____ _____    ______ ____
ROOT
ATOM      1  C   LIG    1       23.603 -20.695   8.017  0.00  0.00    +0.105 C 
ATOM      2  N   LIG    1       24.550 -21.792   8.243  0.00  0.00    -0.304 NA
ATOM      3  C   LIG    1       25.900 -21.246   8.436  0.00  0.00    +0.093 C 
ATOM      4  C   LIG    1       26.730 -21.550   7.162  0.00  0.00    +0.045 C 
ATOM      5  C   LIG    1       25.701 -22.058   6.114  0.00  0.00    +0.045 C 
ATOM      6  C   LIG    1       25.085 -21.042   5.169  0.00  0.00    -0.000 A 
ATOM      7  C   LIG    1       25.846 -20.013   4.609  0.00  0.00    +0.132 A 
ATOM      8  O   LIG    1       27.213 -20.088   4.556  0.00  0.00    -0.456 OA
ATOM      9  C   LIG    1       27.905 -19.788   5.696  0.00  0.00    +0.132 A 
ATOM     10  C   LIG    1       28.918 -18.829   5.543  0.00  0.00    +0.048 A 
ATOM     11  C   LIG    1       29.771 -18.509   6.599  0.00  0.00    +0.023 A 
ATOM     12  C   LIG    1       29.625 -19.173   7.810  0.00  0.00    +0.042 A 
ATOM     13 CL   LIG    1       30.673 -18.813   9.124  0.00  0.00    -0.084 Cl
ATOM     14  C   LIG    1       28.635 -20.141   7.957  0.00  0.00    +0.027 A 
ATOM     15  C   LIG    1       25.240 -18.988   3.873  0.00  0.00    +0.046 A 
ATOM     16  C   LIG    1       23.867 -18.995   3.646  0.00  0.00    +0.004 A 
ATOM     17  C   LIG    1       23.114 -20.080   4.076  0.00  0.00    +0.001 A 
ATOM     18  C   LIG    1       23.726 -21.103   4.797  0.00  0.00    +0.007 A 
ATOM     19  C   LIG    1       27.745 -20.465   6.905  0.00  0.00    +0.001 A 
ATOM     20  C   LIG    1       24.687 -22.704   7.091  0.00  0.00    +0.093 C 
ENDROOT
TORSDOF 0
ENDMDL
MODEL 3
REMARK VINA RESULT:      -8.5      2.843      5.093
REMARK  Name = *****
REMARK                            x       y       z     vdW  Elec       q    Type
REMARK                         _______ _______ _______ _____ _____    ______ ____
ROOT
ATOM      1  C   LIG    1       26.551 -20.137   5.840  0.00  0.00    +0.105 C 
ATOM      2  N   LIG    1       26.878 -20.749   7.132  0.00  0.00    -0.304 NA
ATOM      3  C   LIG    1       26.925 -22.210   6.986  0.00  0.00    +0.093 C 
ATOM      4  C   LIG    1       25.665 -22.804   7.667  0.00  0.00    +0.045 C 
ATOM      5  C   LIG    1       24.750 -21.584   7.971  0.00  0.00    +0.045 C 
ATOM      6  C   LIG    1       23.707 -21.202   6.938  0.00  0.00    -0.000 A 
ATOM      7  C   LIG    1       22.973 -22.171   6.250  0.00  0.00    +0.132 A 
ATOM      8  O   LIG    1       22.862 -23.451   6.728  0.00  0.00    -0.456 OA
ATOM      9  C   LIG    1       23.914 -24.297   6.512  0.00  0.00    +0.132 A 
ATOM     10  C   LIG    1       23.579 -25.523   5.917  0.00  0.00    +0.048 A 
ATOM     11  C   LIG    1       24.537 -26.521   5.739  0.00  0.00    +0.023 A 
ATOM     12  C   LIG    1       25.833 -26.300   6.185  0.00  0.00    +0.042 A 
ATOM     13 CL   LIG    1       27.031 -27.519   5.996  0.00  0.00    -0.084 Cl
ATOM     14  C   LIG    1       26.162 -25.093   6.796  0.00  0.00    +0.027 A 
ATOM     15  C   LIG    1       22.133 -21.819   5.186  0.00  0.00    +0.046 A 
ATOM     16  C   LIG    1       21.979 -20.486   4.817  0.00  0.00    +0.004 A 
ATOM     17  C   LIG    1       22.592 -19.496   5.576  0.00  0.00    +0.001 A 
ATOM     18  C   LIG    1       23.415 -19.854   6.641  0.00  0.00    +0.007 A 
ATOM     19  C   LIG    1       25.210 -24.059   6.965  0.00  0.00    +0.001 A 
ATOM     20  C   LIG    1       25.856 -20.520   8.172  0.00  0.00    +0.093 C 
ENDROOT
TORSDOF 0
ENDMDL
