MODEL 1
REMARK VINA RESULT:      -5.2      0.000      0.000
REMARK  Name = *****
REMARK                            x       y       z     vdW  Elec       q    Type
REMARK                         _______ _______ _______ _____ _____    ______ ____
ROOT
ATOM      1  C   LIG    1       24.781 -29.260  12.563  0.00  0.00    +0.064 A 
ATOM      2  C   LIG    1       24.545 -30.555  13.069  0.00  0.00    +0.049 A 
ATOM      3  I   LIG    1       25.822 -30.934  14.837  0.00  0.00    -0.041 I 
ATOM      4  C   LIG    1       24.340 -31.695  12.232  0.00  0.00    +0.065 A 
ATOM      5  C   LIG    1       24.745 -31.596  10.866  0.00  0.00    +0.040 A 
ATOM      6  I   LIG    1       25.441 -33.410  10.008  0.00  0.00    -0.042 I 
ATOM      7  C   LIG    1       25.153 -30.352  10.309  0.00  0.00    +0.065 A 
ATOM      8  C   LIG    1       25.291 -29.257  11.229  0.00  0.00    +0.049 A 
ATOM      9  I   LIG    1       27.658 -29.215  11.268  0.00  0.00    -0.041 I 
ENDROOT
BRANCH   7  10
ATOM     10  C   LIG    1       24.637 -29.814   8.969  0.00  0.00    +0.246 C 
ATOM     11  N   LIG    1       25.457 -29.169   8.072  0.00  0.00    -0.309 N 
ATOM     12  H   LIG    1       26.397 -28.927   8.364  0.00  0.00    +0.149 HD
ATOM     13  O   LIG    1       23.464 -30.103   8.668  0.00  0.00    -0.270 OA
BRANCH  11  14
ATOM     14  C   LIG    1       24.993 -28.595   6.782  0.00  0.00    +0.132 C 
BRANCH  14  15
ATOM     15  C   LIG    1       24.601 -29.560   5.644  0.00  0.00    +0.174 C 
BRANCH  15  16
ATOM     16  O   LIG    1       23.190 -29.783   5.628  0.00  0.00    -0.394 OA
ATOM     17  H   LIG    1       22.795 -29.008   6.067  0.00  0.00    +0.209 HD
ENDBRANCH  15  16
ENDBRANCH  14  15
ENDBRANCH  11  14
ENDBRANCH   7  10
BRANCH   1  20
ATOM     18  C   LIG    1       21.975 -26.807  13.772  0.00  0.00    +0.110 C 
ATOM     19  C   LIG    1       22.678 -27.920  12.969  0.00  0.00    +0.217 C 
ATOM     20  N   LIG    1       24.090 -28.054  13.132  0.00  0.00    -0.267 N 
ATOM     21  O   LIG    1       22.001 -28.604  12.229  0.00  0.00    -0.276 OA
BRANCH  20  22
ATOM     22  C   LIG    1       24.752 -27.080  14.071  0.00  0.00    +0.147 C 
BRANCH  22  23
ATOM     23  C   LIG    1       25.392 -25.753  13.619  0.00  0.00    +0.158 C 
BRANCH  23  24
ATOM     24  O   LIG    1       26.650 -25.929  12.991  0.00  0.00    -0.388 OA
ATOM     25  H   LIG    1       26.677 -26.842  12.645  0.00  0.00    +0.210 HD
ENDBRANCH  23  24
BRANCH  23  26
ATOM     26  C   LIG    1       25.702 -24.774  14.741  0.00  0.00    +0.188 C 
BRANCH  26  27
ATOM     27  O   LIG    1       25.828 -23.468  14.175  0.00  0.00    -0.392 OA
ATOM     28  H   LIG    1       25.131 -23.383  13.502  0.00  0.00    +0.209 HD
ENDBRANCH  26  27
ENDBRANCH  23  26
ENDBRANCH  22  23
ENDBRANCH  20  22
ENDBRANCH   1  20
BRANCH   4  29
ATOM     29  C   LIG    1       23.203 -32.643  12.593  0.00  0.00    +0.246 C 
ATOM     30  N   LIG    1       21.913 -32.515  12.082  0.00  0.00    -0.309 N 
ATOM     31  H   LIG    1       21.275 -33.261  12.375  0.00  0.00    +0.149 HD
ATOM     32  O   LIG    1       23.394 -33.591  13.463  0.00  0.00    -0.270 OA
BRANCH  30  33
ATOM     33  C   LIG    1       21.280 -31.517  11.193  0.00  0.00    +0.138 C 
BRANCH  33  34
ATOM     34  C   LIG    1       19.764 -31.239  11.373  0.00  0.00    +0.157 C 
BRANCH  34  35
ATOM     35  O   LIG    1       19.507 -30.010  12.030  0.00  0.00    -0.388 OA
ATOM     36  H   LIG    1       20.356 -29.768  12.458  0.00  0.00    +0.210 HD
ENDBRANCH  34  35
BRANCH  34  37
ATOM     37  C   LIG    1       19.043 -31.186  10.076  0.00  0.00    +0.188 C 
BRANCH  37  38
ATOM     38  O   LIG    1       17.707 -30.751  10.063  0.00  0.00    -0.392 OA
ATOM     39  H   LIG    1       17.764 -29.831   9.716  0.00  0.00    +0.209 HD
ENDBRANCH  37  38
ENDBRANCH  34  37
ENDBRANCH  33  34
ENDBRANCH  30  33
ENDBRANCH   4  29
TORSDOF 16
ENDMDL
MODEL 2
REMARK VINA RESULT:      -4.9      2.624      6.309
REMARK  Name = *****
REMARK                            x       y       z     vdW  Elec       q    Type
REMARK                         _______ _______ _______ _____ _____    ______ ____
ROOT
ATOM      1  C   LIG    1       24.085 -30.499  10.708  0.00  0.00    +0.064 A 
ATOM      2  C   LIG    1       24.791 -31.257  11.665  0.00  0.00    +0.049 A 
ATOM      3  I   LIG    1       24.982 -33.357  10.994  0.00  0.00    -0.041 I 
ATOM      4  C   LIG    1       24.609 -31.100  13.074  0.00  0.00    +0.065 A 
ATOM      5  C   LIG    1       23.430 -30.428  13.519  0.00  0.00    +0.040 A 
ATOM      6  I   LIG    1       22.656 -31.119  15.372  0.00  0.00    -0.042 I 
ATOM      7  C   LIG    1       22.569 -29.767  12.600  0.00  0.00    +0.065 A 
ATOM      8  C   LIG    1       22.862 -29.956  11.206  0.00  0.00    +0.049 A 
ATOM      9  I   LIG    1       21.071 -31.433  10.737  0.00  0.00    -0.041 I 
ENDROOT
BRANCH   7  10
ATOM     10  C   LIG    1       22.039 -28.344  12.809  0.00  0.00    +0.246 C 
ATOM     11  N   LIG    1       20.699 -28.075  12.969  0.00  0.00    -0.309 N 
ATOM     12  H   LIG    1       20.034 -28.825  12.812  0.00  0.00    +0.149 HD
ATOM     13  O   LIG    1       22.890 -27.449  12.960  0.00  0.00    -0.270 OA
BRANCH  11  14
ATOM     14  C   LIG    1       20.136 -26.710  13.132  0.00  0.00    +0.132 C 
BRANCH  14  15
ATOM     15  C   LIG    1       19.152 -26.452  14.292  0.00  0.00    +0.174 C 
BRANCH  15  16
ATOM     16  O   LIG    1       18.072 -25.618  13.869  0.00  0.00    -0.394 OA
ATOM     17  H   LIG    1       17.624 -26.108  13.156  0.00  0.00    +0.209 HD
ENDBRANCH  15  16
ENDBRANCH  14  15
ENDBRANCH  11  14
ENDBRANCH   7  10
BRANCH   1  20
ATOM     18  C   LIG    1       24.807 -29.282   7.055  0.00  0.00    +0.110 C 
ATOM     19  C   LIG    1       24.223 -30.111   8.216  0.00  0.00    +0.217 C 
ATOM     20  N   LIG    1       24.773 -29.897   9.516  0.00  0.00    -0.267 N 
ATOM     21  O   LIG    1       23.347 -30.914   7.960  0.00  0.00    -0.276 OA
BRANCH  20  22
ATOM     22  C   LIG    1       25.881 -28.883   9.617  0.00  0.00    +0.147 C 
BRANCH  22  23
ATOM     23  C   LIG    1       27.338 -29.238   9.970  0.00  0.00    +0.158 C 
BRANCH  23  24
ATOM     24  O   LIG    1       27.616 -30.622   9.855  0.00  0.00    -0.388 OA
ATOM     25  H   LIG    1       28.562 -30.711   9.630  0.00  0.00    +0.210 HD
ENDBRANCH  23  24
BRANCH  23  26
ATOM     26  C   LIG    1       27.747 -28.923  11.401  0.00  0.00    +0.188 C 
BRANCH  26  27
ATOM     27  O   LIG    1       27.477 -27.543  11.652  0.00  0.00    -0.392 OA
ATOM     28  H   LIG    1       27.926 -27.036  10.953  0.00  0.00    +0.209 HD
ENDBRANCH  26  27
ENDBRANCH  23  26
ENDBRANCH  22  23
ENDBRANCH  20  22
ENDBRANCH   1  20
BRANCH   4  29
ATOM     29  C   LIG    1       25.856 -31.050  13.948  0.00  0.00    +0.246 C 
ATOM     30  N   LIG    1       26.293 -29.890  14.585  0.00  0.00    -0.309 N 
ATOM     31  H   LIG    1       27.115 -30.030  15.181  0.00  0.00    +0.149 HD
ATOM     32  O   LIG    1       26.606 -32.105  14.077  0.00  0.00    -0.270 OA
BRANCH  30  33
ATOM     33  C   LIG    1       25.804 -28.495  14.578  0.00  0.00    +0.138 C 
BRANCH  33  34
ATOM     34  C   LIG    1       26.781 -27.377  15.028  0.00  0.00    +0.157 C 
BRANCH  34  35
ATOM     35  O   LIG    1       28.092 -27.561  14.522  0.00  0.00    -0.388 OA
ATOM     36  H   LIG    1       28.684 -27.189  15.209  0.00  0.00    +0.210 HD
ENDBRANCH  34  35
BRANCH  34  37
ATOM     37  C   LIG    1       26.339 -26.031  14.586  0.00  0.00    +0.188 C 
BRANCH  37  38
ATOM     38  O   LIG    1       25.577 -25.923  13.410  0.00  0.00    -0.392 OA
ATOM     39  H   LIG    1       24.666 -25.740  13.738  0.00  0.00    +0.209 HD
ENDBRANCH  37  38
ENDBRANCH  34  37
ENDBRANCH  33  34
ENDBRANCH  30  33
ENDBRANCH   4  29
TORSDOF 16
ENDMDL
MODEL 3
REMARK VINA RESULT:      -4.7      2.501      3.506
REMARK  Name = *****
REMARK                            x       y       z     vdW  Elec       q    Type
REMARK                         _______ _______ _______ _____ _____    ______ ____
ROOT
ATOM      1  C   LIG    1       25.189 -30.437  13.248  0.00  0.00    +0.064 A 
ATOM      2  C   LIG    1       23.910 -30.111  13.744  0.00  0.00    +0.049 A 
ATOM      3  I   LIG    1       23.422 -31.369  15.499  0.00  0.00    -0.041 I 
ATOM      4  C   LIG    1       22.796 -29.818  12.899  0.00  0.00    +0.065 A 
ATOM      5  C   LIG    1       22.877 -30.219  11.530  0.00  0.00    +0.040 A 
ATOM      6  I   LIG    1       21.025 -30.774  10.653  0.00  0.00    -0.042 I 
ATOM      7  C   LIG    1       24.093 -30.713  10.981  0.00  0.00    +0.065 A 
ATOM      8  C   LIG    1       25.166 -30.937  11.910  0.00  0.00    +0.049 A 
ATOM      9  I   LIG    1       25.035 -33.301  11.931  0.00  0.00    -0.041 I 
ENDROOT
BRANCH   7  10
ATOM     10  C   LIG    1       24.679 -30.228   9.650  0.00  0.00    +0.246 C 
ATOM     11  N   LIG    1       24.212 -30.676   8.435  0.00  0.00    -0.309 N 
ATOM     12  H   LIG    1       23.552 -31.446   8.426  0.00  0.00    +0.149 HD
ATOM     13  O   LIG    1       25.514 -29.307   9.712  0.00  0.00    -0.270 OA
BRANCH  11  14
ATOM     14  C   LIG    1       24.776 -30.267   7.123  0.00  0.00    +0.132 C 
BRANCH  14  15
ATOM     15  C   LIG    1       24.171 -29.039   6.411  0.00  0.00    +0.174 C 
BRANCH  15  16
ATOM     16  O   LIG    1       23.242 -29.441   5.404  0.00  0.00    -0.394 OA
ATOM     17  H   LIG    1       23.713 -29.348   4.557  0.00  0.00    +0.209 HD
ENDBRANCH  15  16
ENDBRANCH  14  15
ENDBRANCH  11  14
ENDBRANCH   7  10
BRANCH   1  20
ATOM     18  C   LIG    1       28.823 -30.072  14.664  0.00  0.00    +0.110 C 
ATOM     19  C   LIG    1       27.467 -30.711  14.304  0.00  0.00    +0.217 C 
ATOM     20  N   LIG    1       26.437 -29.841  13.832  0.00  0.00    -0.267 N 
ATOM     21  O   LIG    1       27.341 -31.909  14.460  0.00  0.00    -0.276 OA
BRANCH  20  22
ATOM     22  C   LIG    1       26.782 -28.378  13.746  0.00  0.00    +0.147 C 
BRANCH  22  23
ATOM     23  C   LIG    1       26.169 -27.412  12.714  0.00  0.00    +0.158 C 
BRANCH  23  24
ATOM     24  O   LIG    1       26.887 -27.377  11.493  0.00  0.00    -0.388 OA
ATOM     25  H   LIG    1       27.573 -26.686  11.579  0.00  0.00    +0.210 HD
ENDBRANCH  23  24
BRANCH  23  26
ATOM     26  C   LIG    1       26.141 -25.952  13.139  0.00  0.00    +0.188 C 
BRANCH  26  27
ATOM     27  O   LIG    1       27.452 -25.410  12.972  0.00  0.00    -0.392 OA
ATOM     28  H   LIG    1       27.964 -25.664  13.759  0.00  0.00    +0.209 HD
ENDBRANCH  26  27
ENDBRANCH  23  26
ENDBRANCH  22  23
ENDBRANCH  20  22
ENDBRANCH   1  20
BRANCH   4  29
ATOM     29  C   LIG    1       21.930 -28.617  13.261  0.00  0.00    +0.246 C 
ATOM     30  N   LIG    1       20.707 -28.731  13.920  0.00  0.00    -0.309 N 
ATOM     31  H   LIG    1       20.271 -27.831  14.143  0.00  0.00    +0.149 HD
ATOM     32  O   LIG    1       22.288 -27.420  12.899  0.00  0.00    -0.270 OA
BRANCH  30  33
ATOM     33  C   LIG    1       19.913 -29.895  14.369  0.00  0.00    +0.138 C 
BRANCH  33  34
ATOM     34  C   LIG    1       18.370 -29.821  14.232  0.00  0.00    +0.157 C 
BRANCH  34  35
ATOM     35  O   LIG    1       17.913 -28.528  13.875  0.00  0.00    -0.388 OA
ATOM     36  H   LIG    1       17.401 -28.216  14.650  0.00  0.00    +0.210 HD
ENDBRANCH  34  35
BRANCH  34  37
ATOM     37  C   LIG    1       17.850 -30.755  13.201  0.00  0.00    +0.188 C 
BRANCH  37  38
ATOM     38  O   LIG    1       16.712 -30.384  12.466  0.00  0.00    -0.392 OA
ATOM     39  H   LIG    1       17.043 -30.318  11.540  0.00  0.00    +0.209 HD
ENDBRANCH  37  38
ENDBRANCH  34  37
ENDBRANCH  33  34
ENDBRANCH  30  33
ENDBRANCH   4  29
TORSDOF 16
ENDMDL
MODEL 4
REMARK VINA RESULT:      -4.7      2.422      6.428
REMARK  Name = *****
REMARK                            x       y       z     vdW  Elec       q    Type
REMARK                         _______ _______ _______ _____ _____    ______ ____
ROOT
ATOM      1  C   LIG    1       23.219 -31.426  10.459  0.00  0.00    +0.064 A 
ATOM      2  C   LIG    1       23.088 -31.915   9.143  0.00  0.00    +0.049 A 
ATOM      3  I   LIG    1       21.916 -33.793   9.134  0.00  0.00    -0.041 I 
ATOM      4  C   LIG    1       24.149 -31.876   8.186  0.00  0.00    +0.065 A 
ATOM      5  C   LIG    1       25.476 -31.675   8.675  0.00  0.00    +0.040 A 
ATOM      6  I   LIG    1       26.994 -32.651   7.556  0.00  0.00    -0.042 I 
ATOM      7  C   LIG    1       25.714 -31.332  10.035  0.00  0.00    +0.065 A 
ATOM      8  C   LIG    1       24.573 -31.364  10.909  0.00  0.00    +0.049 A 
ATOM      9  I   LIG    1       25.140 -33.361  12.046  0.00  0.00    -0.041 I 
ENDROOT
BRANCH   7  10
ATOM     10  C   LIG    1       26.644 -30.194  10.471  0.00  0.00    +0.246 C 
ATOM     11  N   LIG    1       26.164 -28.995  10.946  0.00  0.00    -0.309 N 
ATOM     12  H   LIG    1       25.168 -28.813  10.881  0.00  0.00    +0.149 HD
ATOM     13  O   LIG    1       27.861 -30.450  10.500  0.00  0.00    -0.270 OA
BRANCH  11  14
ATOM     14  C   LIG    1       27.025 -27.850  11.340  0.00  0.00    +0.132 C 
BRANCH  14  15
ATOM     15  C   LIG    1       26.665 -27.061  12.616  0.00  0.00    +0.174 C 
BRANCH  15  16
ATOM     16  O   LIG    1       25.270 -27.169  12.905  0.00  0.00    -0.394 OA
ATOM     17  H   LIG    1       25.195 -27.096  13.873  0.00  0.00    +0.209 HD
ENDBRANCH  15  16
ENDBRANCH  14  15
ENDBRANCH  11  14
ENDBRANCH   7  10
BRANCH   1  20
ATOM     18  C   LIG    1       21.442 -28.593  12.500  0.00  0.00    +0.110 C 
ATOM     19  C   LIG    1       22.526 -29.595  12.055  0.00  0.00    +0.217 C 
ATOM     20  N   LIG    1       22.151 -30.585  11.097  0.00  0.00    -0.267 N 
ATOM     21  O   LIG    1       23.628 -29.503  12.557  0.00  0.00    -0.276 OA
BRANCH  20  22
ATOM     22  C   LIG    1       20.721 -30.554  10.626  0.00  0.00    +0.147 C 
BRANCH  22  23
ATOM     23  C   LIG    1       19.555 -31.224  11.378  0.00  0.00    +0.158 C 
BRANCH  23  24
ATOM     24  O   LIG    1       19.925 -32.437  12.007  0.00  0.00    -0.388 OA
ATOM     25  H   LIG    1       20.875 -32.579  11.830  0.00  0.00    +0.210 HD
ENDBRANCH  23  24
BRANCH  23  26
ATOM     26  C   LIG    1       18.379 -31.634  10.504  0.00  0.00    +0.188 C 
BRANCH  26  27
ATOM     27  O   LIG    1       17.255 -30.825  10.855  0.00  0.00    -0.392 OA
ATOM     28  H   LIG    1       17.590 -29.922  10.992  0.00  0.00    +0.209 HD
ENDBRANCH  26  27
ENDBRANCH  23  26
ENDBRANCH  22  23
ENDBRANCH  20  22
ENDBRANCH   1  20
BRANCH   4  29
ATOM     29  C   LIG    1       23.810 -31.416   6.773  0.00  0.00    +0.246 C 
ATOM     30  N   LIG    1       23.979 -30.103   6.339  0.00  0.00    -0.309 N 
ATOM     31  H   LIG    1       23.760 -29.963   5.348  0.00  0.00    +0.149 HD
ATOM     32  O   LIG    1       23.280 -32.247   5.925  0.00  0.00    -0.270 OA
BRANCH  30  33
ATOM     33  C   LIG    1       24.418 -28.868   7.023  0.00  0.00    +0.138 C 
BRANCH  33  34
ATOM     34  C   LIG    1       24.841 -27.659   6.146  0.00  0.00    +0.157 C 
BRANCH  34  35
ATOM     35  O   LIG    1       23.862 -26.636   6.116  0.00  0.00    -0.388 OA
ATOM     36  H   LIG    1       24.119 -26.059   5.366  0.00  0.00    +0.210 HD
ENDBRANCH  34  35
BRANCH  34  37
ATOM     37  C   LIG    1       26.099 -27.031   6.621  0.00  0.00    +0.188 C 
BRANCH  37  38
ATOM     38  O   LIG    1       27.087 -26.700   5.678  0.00  0.00    -0.392 OA
ATOM     39  H   LIG    1       26.583 -26.258   4.956  0.00  0.00    +0.209 HD
ENDBRANCH  37  38
ENDBRANCH  34  37
ENDBRANCH  33  34
ENDBRANCH  30  33
ENDBRANCH   4  29
TORSDOF 16
ENDMDL
MODEL 5
REMARK VINA RESULT:      -4.6      1.942      5.781
REMARK  Name = *****
REMARK                            x       y       z     vdW  Elec       q    Type
REMARK                         _______ _______ _______ _____ _____    ______ ____
ROOT
ATOM      1  C   LIG    1       23.972 -30.264  12.463  0.00  0.00    +0.064 A 
ATOM      2  C   LIG    1       24.875 -31.076  11.746  0.00  0.00    +0.049 A 
ATOM      3  I   LIG    1       24.819 -33.152  12.515  0.00  0.00    -0.041 I 
ATOM      4  C   LIG    1       26.169 -30.632  11.336  0.00  0.00    +0.065 A 
ATOM      5  C   LIG    1       26.707 -29.475  11.978  0.00  0.00    +0.040 A 
ATOM      6  I   LIG    1       28.820 -29.479  12.198  0.00  0.00    -0.042 I 
ATOM      7  C   LIG    1       25.911 -28.681  12.849  0.00  0.00    +0.065 A 
ATOM      8  C   LIG    1       24.608 -29.197  13.168  0.00  0.00    +0.049 A 
ATOM      9  I   LIG    1       25.104 -29.872  15.382  0.00  0.00    -0.041 I 
ENDROOT
BRANCH   7  10
ATOM     10  C   LIG    1       25.834 -27.151  12.767  0.00  0.00    +0.246 C 
ATOM     11  N   LIG    1       25.172 -26.398  13.709  0.00  0.00    -0.309 N 
ATOM     12  H   LIG    1       24.608 -26.878  14.402  0.00  0.00    +0.149 HD
ATOM     13  O   LIG    1       26.512 -26.607  11.877  0.00  0.00    -0.270 OA
BRANCH  11  14
ATOM     14  C   LIG    1       25.035 -24.920  13.648  0.00  0.00    +0.132 C 
BRANCH  14  15
ATOM     15  C   LIG    1       25.484 -24.087  14.867  0.00  0.00    +0.174 C 
BRANCH  15  16
ATOM     16  O   LIG    1       25.585 -22.703  14.530  0.00  0.00    -0.394 OA
ATOM     17  H   LIG    1       25.726 -22.675  13.567  0.00  0.00    +0.209 HD
ENDBRANCH  15  16
ENDBRANCH  14  15
ENDBRANCH  11  14
ENDBRANCH   7  10
BRANCH   1  20
ATOM     18  C   LIG    1       20.599 -30.692  10.517  0.00  0.00    +0.110 C 
ATOM     19  C   LIG    1       22.110 -30.531  10.777  0.00  0.00    +0.217 C 
ATOM     20  N   LIG    1       22.515 -30.198  12.105  0.00  0.00    -0.267 N 
ATOM     21  O   LIG    1       22.869 -30.675   9.840  0.00  0.00    -0.276 OA
BRANCH  20  22
ATOM     22  C   LIG    1       21.415 -30.025  13.119  0.00  0.00    +0.147 C 
BRANCH  22  23
ATOM     23  C   LIG    1       21.088 -28.688  13.811  0.00  0.00    +0.158 C 
BRANCH  23  24
ATOM     24  O   LIG    1       19.841 -28.701  14.482  0.00  0.00    -0.388 OA
ATOM     25  H   LIG    1       19.339 -27.921  14.177  0.00  0.00    +0.210 HD
ENDBRANCH  23  24
BRANCH  23  26
ATOM     26  C   LIG    1       20.964 -27.494  12.876  0.00  0.00    +0.188 C 
BRANCH  26  27
ATOM     27  O   LIG    1       22.120 -26.672  13.041  0.00  0.00    -0.392 OA
ATOM     28  H   LIG    1       22.863 -27.267  13.244  0.00  0.00    +0.209 HD
ENDBRANCH  26  27
ENDBRANCH  23  26
ENDBRANCH  22  23
ENDBRANCH  20  22
ENDBRANCH   1  20
BRANCH   4  29
ATOM     29  C   LIG    1       26.610 -30.952   9.913  0.00  0.00    +0.246 C 
ATOM     30  N   LIG    1       26.258 -30.172   8.813  0.00  0.00    -0.309 N 
ATOM     31  H   LIG    1       26.677 -30.485   7.932  0.00  0.00    +0.149 HD
ATOM     32  O   LIG    1       27.296 -32.029   9.668  0.00  0.00    -0.270 OA
BRANCH  30  33
ATOM     33  C   LIG    1       25.402 -28.976   8.663  0.00  0.00    +0.138 C 
BRANCH  33  34
ATOM     34  C   LIG    1       24.934 -28.588   7.235  0.00  0.00    +0.157 C 
BRANCH  34  35
ATOM     35  O   LIG    1       25.968 -28.005   6.461  0.00  0.00    -0.388 OA
ATOM     36  H   LIG    1       26.733 -27.932   7.070  0.00  0.00    +0.210 HD
ENDBRANCH  34  35
BRANCH  34  37
ATOM     37  C   LIG    1       24.435 -29.756   6.469  0.00  0.00    +0.188 C 
BRANCH  37  38
ATOM     38  O   LIG    1       23.309 -29.592   5.644  0.00  0.00    -0.392 OA
ATOM     39  H   LIG    1       22.843 -28.818   6.037  0.00  0.00    +0.209 HD
ENDBRANCH  37  38
ENDBRANCH  34  37
ENDBRANCH  33  34
ENDBRANCH  30  33
ENDBRANCH   4  29
TORSDOF 16
ENDMDL
MODEL 6
REMARK VINA RESULT:      -4.6      2.559      7.427
REMARK  Name = *****
REMARK                            x       y       z     vdW  Elec       q    Type
REMARK                         _______ _______ _______ _____ _____    ______ ____
ROOT
ATOM      1  C   LIG    1       24.939 -30.322   9.203  0.00  0.00    +0.064 A 
ATOM      2  C   LIG    1       26.234 -30.498   9.732  0.00  0.00    +0.049 A 
ATOM      3  I   LIG    1       27.168 -32.319   8.887  0.00  0.00    -0.041 I 
ATOM      4  C   LIG    1       26.560 -30.247  11.100  0.00  0.00    +0.065 A 
ATOM      5  C   LIG    1       25.483 -30.169  12.035  0.00  0.00    +0.040 A 
ATOM      6  I   LIG    1       25.944 -30.871  13.985  0.00  0.00    -0.042 I 
ATOM      7  C   LIG    1       24.130 -30.146  11.597  0.00  0.00    +0.065 A 
ATOM      8  C   LIG    1       23.912 -30.370  10.194  0.00  0.00    +0.049 A 
ATOM      9  I   LIG    1       23.075 -32.576  10.386  0.00  0.00    -0.041 I 
ENDROOT
BRANCH   7  10
ATOM     10  C   LIG    1       23.092 -29.141  12.109  0.00  0.00    +0.246 C 
ATOM     11  N   LIG    1       21.743 -29.411  12.102  0.00  0.00    -0.309 N 
ATOM     12  H   LIG    1       21.419 -30.244  11.623  0.00  0.00    +0.149 HD
ATOM     13  O   LIG    1       23.533 -28.114  12.655  0.00  0.00    -0.270 OA
BRANCH  11  14
ATOM     14  C   LIG    1       20.698 -28.453  12.548  0.00  0.00    +0.132 C 
BRANCH  14  15
ATOM     15  C   LIG    1       19.915 -28.765  13.840  0.00  0.00    +0.174 C 
BRANCH  15  16
ATOM     16  O   LIG    1       18.691 -28.031  13.883  0.00  0.00    -0.394 OA
ATOM     17  H   LIG    1       18.858 -27.272  14.470  0.00  0.00    +0.209 HD
ENDBRANCH  15  16
ENDBRANCH  14  15
ENDBRANCH  11  14
ENDBRANCH   7  10
BRANCH   1  20
ATOM     18  C   LIG    1       25.344 -27.903   6.148  0.00  0.00    +0.110 C 
ATOM     19  C   LIG    1       25.411 -28.432   7.595  0.00  0.00    +0.217 C 
ATOM     20  N   LIG    1       24.712 -29.643   7.883  0.00  0.00    -0.267 N 
ATOM     21  O   LIG    1       26.034 -27.783   8.412  0.00  0.00    -0.276 OA
BRANCH  20  22
ATOM     22  C   LIG    1       23.966 -30.276   6.738  0.00  0.00    +0.147 C 
BRANCH  22  23
ATOM     23  C   LIG    1       24.397 -31.588   6.054  0.00  0.00    +0.158 C 
BRANCH  23  24
ATOM     24  O   LIG    1       24.761 -31.412   4.697  0.00  0.00    -0.388 OA
ATOM     25  H   LIG    1       24.938 -30.461   4.563  0.00  0.00    +0.210 HD
ENDBRANCH  23  24
BRANCH  23  26
ATOM     26  C   LIG    1       23.321 -32.661   5.986  0.00  0.00    +0.188 C 
BRANCH  26  27
ATOM     27  O   LIG    1       23.224 -33.114   4.635  0.00  0.00    -0.392 OA
ATOM     28  H   LIG    1       22.465 -32.654   4.237  0.00  0.00    +0.209 HD
ENDBRANCH  26  27
ENDBRANCH  23  26
ENDBRANCH  22  23
ENDBRANCH  20  22
ENDBRANCH   1  20
BRANCH   4  29
ATOM     29  C   LIG    1       27.843 -29.476  11.392  0.00  0.00    +0.246 C 
ATOM     30  N   LIG    1       27.858 -28.124  11.732  0.00  0.00    -0.309 N 
ATOM     31  H   LIG    1       28.791 -27.764  11.953  0.00  0.00    +0.149 HD
ATOM     32  O   LIG    1       28.998 -30.059  11.267  0.00  0.00    -0.270 OA
BRANCH  30  33
ATOM     33  C   LIG    1       26.792 -27.105  11.844  0.00  0.00    +0.138 C 
BRANCH  33  34
ATOM     34  C   LIG    1       26.688 -26.302  13.168  0.00  0.00    +0.157 C 
BRANCH  34  35
ATOM     35  O   LIG    1       25.360 -25.907  13.464  0.00  0.00    -0.388 OA
ATOM     36  H   LIG    1       25.450 -25.182  14.118  0.00  0.00    +0.210 HD
ENDBRANCH  34  35
BRANCH  34  37
ATOM     37  C   LIG    1       27.172 -27.078  14.337  0.00  0.00    +0.188 C 
BRANCH  37  38
ATOM     38  O   LIG    1       28.550 -27.330  14.457  0.00  0.00    -0.392 OA
ATOM     39  H   LIG    1       28.589 -28.226  14.864  0.00  0.00    +0.209 HD
ENDBRANCH  37  38
ENDBRANCH  34  37
ENDBRANCH  33  34
ENDBRANCH  30  33
ENDBRANCH   4  29
TORSDOF 16
ENDMDL
MODEL 7
REMARK VINA RESULT:      -4.5      2.762      6.931
REMARK  Name = *****
REMARK                            x       y       z     vdW  Elec       q    Type
REMARK                         _______ _______ _______ _____ _____    ______ ____
ROOT
ATOM      1  C   LIG    1       24.345 -30.803  10.962  0.00  0.00    +0.064 A 
ATOM      2  C   LIG    1       25.037 -31.734  11.765  0.00  0.00    +0.049 A 
ATOM      3  I   LIG    1       25.128 -33.702  10.756  0.00  0.00    -0.041 I 
ATOM      4  C   LIG    1       24.889 -31.803  13.184  0.00  0.00    +0.065 A 
ATOM      5  C   LIG    1       23.748 -31.168  13.764  0.00  0.00    +0.040 A 
ATOM      6  I   LIG    1       22.983 -32.124  15.499  0.00  0.00    -0.042 I 
ATOM      7  C   LIG    1       22.897 -30.334  12.987  0.00  0.00    +0.065 A 
ATOM      8  C   LIG    1       23.154 -30.303  11.573  0.00  0.00    +0.049 A 
ATOM      9  I   LIG    1       21.296 -31.615  10.917  0.00  0.00    -0.041 I 
ENDROOT
BRANCH   7  10
ATOM     10  C   LIG    1       22.431 -28.945  13.438  0.00  0.00    +0.246 C 
ATOM     11  N   LIG    1       21.255 -28.754  14.127  0.00  0.00    -0.309 N 
ATOM     12  H   LIG    1       20.617 -29.537  14.221  0.00  0.00    +0.149 HD
ATOM     13  O   LIG    1       23.230 -28.007  13.269  0.00  0.00    -0.270 OA
BRANCH  11  14
ATOM     14  C   LIG    1       20.743 -27.424  14.548  0.00  0.00    +0.132 C 
BRANCH  14  15
ATOM     15  C   LIG    1       19.351 -26.979  14.051  0.00  0.00    +0.174 C 
BRANCH  15  16
ATOM     16  O   LIG    1       18.796 -25.985  14.913  0.00  0.00    -0.394 OA
ATOM     17  H   LIG    1       18.461 -25.284  14.326  0.00  0.00    +0.209 HD
ENDBRANCH  15  16
ENDBRANCH  14  15
ENDBRANCH  11  14
ENDBRANCH   7  10
BRANCH   1  20
ATOM     18  C   LIG    1       26.729 -28.320   9.092  0.00  0.00    +0.110 C 
ATOM     19  C   LIG    1       25.848 -28.919  10.207  0.00  0.00    +0.217 C 
ATOM     20  N   LIG    1       25.033 -30.041   9.866  0.00  0.00    -0.267 N 
ATOM     21  O   LIG    1       25.878 -28.395  11.302  0.00  0.00    -0.276 OA
BRANCH  20  22
ATOM     22  C   LIG    1       25.110 -30.519   8.440  0.00  0.00    +0.147 C 
BRANCH  22  23
ATOM     23  C   LIG    1       23.971 -30.351   7.417  0.00  0.00    +0.158 C 
BRANCH  23  24
ATOM     24  O   LIG    1       23.419 -31.585   6.995  0.00  0.00    -0.388 OA
ATOM     25  H   LIG    1       23.859 -31.831   6.159  0.00  0.00    +0.210 HD
ENDBRANCH  23  24
BRANCH  23  26
ATOM     26  C   LIG    1       24.375 -29.690   6.107  0.00  0.00    +0.188 C 
BRANCH  26  27
ATOM     27  O   LIG    1       23.188 -29.358   5.387  0.00  0.00    -0.392 OA
ATOM     28  H   LIG    1       22.593 -28.911   6.014  0.00  0.00    +0.209 HD
ENDBRANCH  26  27
ENDBRANCH  23  26
ENDBRANCH  22  23
ENDBRANCH  20  22
ENDBRANCH   1  20
BRANCH   4  29
ATOM     29  C   LIG    1       26.155 -31.943  14.022  0.00  0.00    +0.246 C 
ATOM     30  N   LIG    1       26.787 -30.862  14.634  0.00  0.00    -0.309 N 
ATOM     31  H   LIG    1       27.593 -31.125  15.208  0.00  0.00    +0.149 HD
ATOM     32  O   LIG    1       26.734 -33.102  14.141  0.00  0.00    -0.270 OA
BRANCH  30  33
ATOM     33  C   LIG    1       26.521 -29.408  14.626  0.00  0.00    +0.138 C 
BRANCH  33  34
ATOM     34  C   LIG    1       27.683 -28.457  14.234  0.00  0.00    +0.157 C 
BRANCH  34  35
ATOM     35  O   LIG    1       28.285 -28.808  13.000  0.00  0.00    -0.388 OA
ATOM     36  H   LIG    1       29.166 -29.165  13.239  0.00  0.00    +0.210 HD
ENDBRANCH  34  35
BRANCH  34  37
ATOM     37  C   LIG    1       27.238 -27.047  14.105  0.00  0.00    +0.188 C 
BRANCH  37  38
ATOM     38  O   LIG    1       27.470 -26.374  12.893  0.00  0.00    -0.392 OA
ATOM     39  H   LIG    1       28.099 -25.657  13.140  0.00  0.00    +0.209 HD
ENDBRANCH  37  38
ENDBRANCH  34  37
ENDBRANCH  33  34
ENDBRANCH  30  33
ENDBRANCH   4  29
TORSDOF 16
ENDMDL
MODEL 8
REMARK VINA RESULT:      -4.4      2.488      6.740
REMARK  Name = *****
REMARK                            x       y       z     vdW  Elec       q    Type
REMARK                         _______ _______ _______ _____ _____    ______ ____
ROOT
ATOM      1  C   LIG    1       24.828 -30.190   8.915  0.00  0.00    +0.064 A 
ATOM      2  C   LIG    1       26.092 -30.393   9.507  0.00  0.00    +0.049 A 
ATOM      3  I   LIG    1       27.117 -32.111   8.561  0.00  0.00    -0.041 I 
ATOM      4  C   LIG    1       26.326 -30.264  10.911  0.00  0.00    +0.065 A 
ATOM      5  C   LIG    1       25.191 -30.292  11.778  0.00  0.00    +0.040 A 
ATOM      6  I   LIG    1       25.545 -31.164  13.681  0.00  0.00    -0.042 I 
ATOM      7  C   LIG    1       23.868 -30.251  11.258  0.00  0.00    +0.065 A 
ATOM      8  C   LIG    1       23.742 -30.347   9.830  0.00  0.00    +0.049 A 
ATOM      9  I   LIG    1       22.946 -32.576   9.764  0.00  0.00    -0.041 I 
ENDROOT
BRANCH   7  10
ATOM     10  C   LIG    1       22.777 -29.315  11.792  0.00  0.00    +0.246 C 
ATOM     11  N   LIG    1       23.064 -28.237  12.597  0.00  0.00    -0.309 N 
ATOM     12  H   LIG    1       24.008 -28.137  12.953  0.00  0.00    +0.149 HD
ATOM     13  O   LIG    1       21.625 -29.498  11.357  0.00  0.00    -0.270 OA
BRANCH  11  14
ATOM     14  C   LIG    1       22.037 -27.329  13.172  0.00  0.00    +0.132 C 
BRANCH  14  15
ATOM     15  C   LIG    1       20.978 -27.923  14.124  0.00  0.00    +0.174 C 
BRANCH  15  16
ATOM     16  O   LIG    1       19.790 -28.270  13.412  0.00  0.00    -0.394 OA
ATOM     17  H   LIG    1       20.083 -28.536  12.522  0.00  0.00    +0.209 HD
ENDBRANCH  15  16
ENDBRANCH  14  15
ENDBRANCH  11  14
ENDBRANCH   7  10
BRANCH   1  20
ATOM     18  C   LIG    1       23.710 -29.111   5.318  0.00  0.00    +0.110 C 
ATOM     19  C   LIG    1       24.083 -30.019   6.508  0.00  0.00    +0.217 C 
ATOM     20  N   LIG    1       24.668 -29.395   7.651  0.00  0.00    -0.267 N 
ATOM     21  O   LIG    1       23.880 -31.212   6.400  0.00  0.00    -0.276 OA
BRANCH  20  22
ATOM     22  C   LIG    1       24.872 -27.905   7.571  0.00  0.00    +0.147 C 
BRANCH  22  23
ATOM     23  C   LIG    1       25.481 -27.187   6.351  0.00  0.00    +0.158 C 
BRANCH  23  24
ATOM     24  O   LIG    1       26.897 -27.154   6.378  0.00  0.00    -0.388 OA
ATOM     25  H   LIG    1       27.164 -26.818   7.255  0.00  0.00    +0.210 HD
ENDBRANCH  23  24
BRANCH  23  26
ATOM     26  C   LIG    1       25.105 -25.720   6.216  0.00  0.00    +0.188 C 
BRANCH  26  27
ATOM     27  O   LIG    1       23.749 -25.643   5.774  0.00  0.00    -0.392 OA
ATOM     28  H   LIG    1       23.643 -24.780   5.337  0.00  0.00    +0.209 HD
ENDBRANCH  26  27
ENDBRANCH  23  26
ENDBRANCH  22  23
ENDBRANCH  20  22
ENDBRANCH   1  20
BRANCH   4  29
ATOM     29  C   LIG    1       27.569 -29.502  11.354  0.00  0.00    +0.246 C 
ATOM     30  N   LIG    1       27.545 -28.163  11.739  0.00  0.00    -0.309 N 
ATOM     31  H   LIG    1       28.450 -27.809  12.063  0.00  0.00    +0.149 HD
ATOM     32  O   LIG    1       28.734 -30.080  11.326  0.00  0.00    -0.270 OA
BRANCH  30  33
ATOM     33  C   LIG    1       26.470 -27.149  11.779  0.00  0.00    +0.138 C 
BRANCH  33  34
ATOM     34  C   LIG    1       26.137 -26.492  13.145  0.00  0.00    +0.157 C 
BRANCH  34  35
ATOM     35  O   LIG    1       25.609 -27.415  14.081  0.00  0.00    -0.388 OA
ATOM     36  H   LIG    1       25.806 -27.027  14.960  0.00  0.00    +0.210 HD
ENDBRANCH  34  35
BRANCH  34  37
ATOM     37  C   LIG    1       27.330 -25.877  13.780  0.00  0.00    +0.188 C 
BRANCH  37  38
ATOM     38  O   LIG    1       28.291 -26.717  14.367  0.00  0.00    -0.392 OA
ATOM     39  H   LIG    1       28.092 -26.664  15.330  0.00  0.00    +0.209 HD
ENDBRANCH  37  38
ENDBRANCH  34  37
ENDBRANCH  33  34
ENDBRANCH  30  33
ENDBRANCH   4  29
TORSDOF 16
ENDMDL
MODEL 9
REMARK VINA RESULT:      -4.4      1.940      6.811
REMARK  Name = *****
REMARK                            x       y       z     vdW  Elec       q    Type
REMARK                         _______ _______ _______ _____ _____    ______ ____
ROOT
ATOM      1  C   LIG    1       24.703 -30.953  11.251  0.00  0.00    +0.064 A 
ATOM      2  C   LIG    1       24.804 -29.962  12.248  0.00  0.00    +0.049 A 
ATOM      3  I   LIG    1       26.586 -30.321  13.511  0.00  0.00    -0.041 I 
ATOM      4  C   LIG    1       23.673 -29.445  12.953  0.00  0.00    +0.065 A 
ATOM      5  C   LIG    1       22.463 -30.203  12.912  0.00  0.00    +0.040 A 
ATOM      6  I   LIG    1       21.276 -30.083  14.669  0.00  0.00    -0.042 I 
ATOM      7  C   LIG    1       22.327 -31.323  12.045  0.00  0.00    +0.065 A 
ATOM      8  C   LIG    1       23.515 -31.739  11.351  0.00  0.00    +0.049 A 
ATOM      9  I   LIG    1       23.934 -33.679  12.643  0.00  0.00    -0.041 I 
ENDROOT
BRANCH   7  10
ATOM     10  C   LIG    1       21.114 -31.547  11.135  0.00  0.00    +0.246 C 
ATOM     11  N   LIG    1       20.023 -32.284  11.534  0.00  0.00    -0.309 N 
ATOM     12  H   LIG    1       20.082 -32.803  12.403  0.00  0.00    +0.149 HD
ATOM     13  O   LIG    1       21.101 -30.919  10.060  0.00  0.00    -0.270 OA
BRANCH  11  14
ATOM     14  C   LIG    1       18.845 -32.563  10.672  0.00  0.00    +0.132 C 
BRANCH  14  15
ATOM     15  C   LIG    1       17.751 -31.482  10.548  0.00  0.00    +0.174 C 
BRANCH  15  16
ATOM     16  O   LIG    1       18.073 -30.546   9.519  0.00  0.00    -0.394 OA
ATOM     17  H   LIG    1       19.031 -30.638   9.368  0.00  0.00    +0.209 HD
ENDBRANCH  15  16
ENDBRANCH  14  15
ENDBRANCH  11  14
ENDBRANCH   7  10
BRANCH   1  20
ATOM     18  C   LIG    1       26.827 -31.901   8.098  0.00  0.00    +0.110 C 
ATOM     19  C   LIG    1       26.272 -31.942   9.536  0.00  0.00    +0.217 C 
ATOM     20  N   LIG    1       25.456 -30.848   9.955  0.00  0.00    -0.267 N 
ATOM     21  O   LIG    1       26.576 -32.886  10.238  0.00  0.00    -0.276 OA
BRANCH  20  22
ATOM     22  C   LIG    1       25.229 -29.755   8.945  0.00  0.00    +0.147 C 
BRANCH  22  23
ATOM     23  C   LIG    1       24.038 -29.723   7.969  0.00  0.00    +0.158 C 
BRANCH  23  24
ATOM     24  O   LIG    1       23.334 -30.950   7.913  0.00  0.00    -0.388 OA
ATOM     25  H   LIG    1       23.233 -31.271   8.831  0.00  0.00    +0.210 HD
ENDBRANCH  23  24
BRANCH  23  26
ATOM     26  C   LIG    1       24.405 -29.471   6.515  0.00  0.00    +0.188 C 
BRANCH  26  27
ATOM     27  O   LIG    1       23.254 -29.729   5.710  0.00  0.00    -0.392 OA
ATOM     28  H   LIG    1       22.863 -30.558   6.035  0.00  0.00    +0.209 HD
ENDBRANCH  26  27
ENDBRANCH  23  26
ENDBRANCH  22  23
ENDBRANCH  20  22
ENDBRANCH   1  20
BRANCH   4  29
ATOM     29  C   LIG    1       23.588 -27.936  13.144  0.00  0.00    +0.246 C 
ATOM     30  N   LIG    1       24.506 -27.211  13.902  0.00  0.00    -0.309 N 
ATOM     31  H   LIG    1       24.346 -26.199  13.889  0.00  0.00    +0.149 HD
ATOM     32  O   LIG    1       22.591 -27.269  12.642  0.00  0.00    -0.270 OA
BRANCH  30  33
ATOM     33  C   LIG    1       25.671 -27.611  14.719  0.00  0.00    +0.138 C 
BRANCH  33  34
ATOM     34  C   LIG    1       26.810 -26.575  14.921  0.00  0.00    +0.157 C 
BRANCH  34  35
ATOM     35  O   LIG    1       27.941 -26.842  14.112  0.00  0.00    -0.388 OA
ATOM     36  H   LIG    1       28.193 -27.766  14.321  0.00  0.00    +0.210 HD
ENDBRANCH  34  35
BRANCH  34  37
ATOM     37  C   LIG    1       26.376 -25.192  14.604  0.00  0.00    +0.188 C 
BRANCH  37  38
ATOM     38  O   LIG    1       26.251 -24.815  13.256  0.00  0.00    -0.392 OA
ATOM     39  H   LIG    1       25.975 -25.647  12.805  0.00  0.00    +0.209 HD
ENDBRANCH  37  38
ENDBRANCH  34  37
ENDBRANCH  33  34
ENDBRANCH  30  33
ENDBRANCH   4  29
TORSDOF 16
ENDMDL
