MODEL 1
REMARK VINA RESULT:      -7.1      0.000      0.000
REMARK  Name = *****
REMARK                            x       y       z     vdW  Elec       q    Type
REMARK                         _______ _______ _______ _____ _____    ______ ____
ROOT
ATOM      1  O   LIG    1       26.148 -22.040   6.259  0.00  0.00    -0.474 OA
ENDROOT
BRANCH   1   2
ATOM      2  C   LIG    1       24.914 -21.556   5.882  0.00  0.00    +0.158 A 
ATOM      3  C   LIG    1       23.667 -22.149   6.156  0.00  0.00    +0.084 A 
ATOM      4 CL   LIG    1       23.454 -23.710   6.874  0.00  0.00    -0.080 Cl
ATOM      5  C   LIG    1       22.475 -21.535   5.746  0.00  0.00    +0.024 A 
ATOM      6  C   LIG    1       22.494 -20.374   4.984  0.00  0.00    +0.003 A 
ATOM      7  C   LIG    1       23.716 -19.819   4.624  0.00  0.00    +0.024 A 
ATOM      8  C   LIG    1       24.913 -20.397   5.075  0.00  0.00    +0.084 A 
ATOM      9 CL   LIG    1       26.387 -19.630   4.586  0.00  0.00    -0.080 Cl
ENDBRANCH   1   2
BRANCH   1  11
ATOM     10  C   LIG    1       25.555 -20.943   8.352  0.00  0.00    +0.065 C 
ATOM     11  C   LIG    1       26.609 -21.730   7.574  0.00  0.00    +0.284 C 
BRANCH  11  12
ATOM     12  C   LIG    1       27.901 -20.901   7.522  0.00  0.00    +0.322 C 
ATOM     13  N   LIG    1       28.874 -21.080   6.550  0.00  0.00    -0.231 N 
ATOM     14  H   LIG    1       29.044 -22.029   6.252  0.00  0.00    +0.291 HD
ATOM     15  C   LIG    1       30.007 -20.258   6.905  0.00  0.00    +0.273 C 
ATOM     16  C   LIG    1       29.398 -19.326   7.958  0.00  0.00    +0.333 C 
ATOM     17  N   LIG    1       28.120 -19.959   8.392  0.00  0.00    -0.080 NA
ENDBRANCH  11  12
ENDBRANCH   1  11
TORSDOF 3
ENDMDL
MODEL 2
REMARK VINA RESULT:      -7.0      1.486      1.900
REMARK  Name = *****
REMARK                            x       y       z     vdW  Elec       q    Type
REMARK                         _______ _______ _______ _____ _____    ______ ____
ROOT
ATOM      1  O   LIG    1       26.400 -21.966   6.470  0.00  0.00    -0.474 OA
ENDROOT
BRANCH   1   2
ATOM      2  C   LIG    1       25.125 -22.489   6.477  0.00  0.00    +0.158 A 
ATOM      3  C   LIG    1       24.772 -23.821   6.761  0.00  0.00    +0.084 A 
ATOM      4 CL   LIG    1       25.902 -25.113   6.987  0.00  0.00    -0.080 Cl
ATOM      5  C   LIG    1       23.428 -24.222   6.770  0.00  0.00    +0.024 A 
ATOM      6  C   LIG    1       22.417 -23.339   6.412  0.00  0.00    +0.003 A 
ATOM      7  C   LIG    1       22.749 -22.042   6.039  0.00  0.00    +0.024 A 
ATOM      8  C   LIG    1       24.087 -21.618   6.080  0.00  0.00    +0.084 A 
ATOM      9 CL   LIG    1       24.404 -19.982   5.609  0.00  0.00    -0.080 Cl
ENDBRANCH   1   2
BRANCH   1  11
ATOM     10  C   LIG    1       26.120 -20.902   8.643  0.00  0.00    +0.065 C 
ATOM     11  C   LIG    1       27.025 -21.727   7.731  0.00  0.00    +0.284 C 
BRANCH  11  12
ATOM     12  C   LIG    1       28.355 -20.979   7.552  0.00  0.00    +0.322 C 
ATOM     13  N   LIG    1       28.533 -19.970   6.617  0.00  0.00    -0.231 N 
ATOM     14  H   LIG    1       28.065 -20.089   5.731  0.00  0.00    +0.291 HD
ATOM     15  C   LIG    1       29.934 -19.616   6.613  0.00  0.00    +0.273 C 
ATOM     16  C   LIG    1       30.423 -20.268   7.912  0.00  0.00    +0.333 C 
ATOM     17  N   LIG    1       29.377 -21.253   8.309  0.00  0.00    -0.080 NA
ENDBRANCH  11  12
ENDBRANCH   1  11
TORSDOF 3
ENDMDL
MODEL 3
REMARK VINA RESULT:      -6.9      2.630      5.179
REMARK  Name = *****
REMARK                            x       y       z     vdW  Elec       q    Type
REMARK                         _______ _______ _______ _____ _____    ______ ____
ROOT
ATOM      1  O   LIG    1       24.647 -20.718   6.588  0.00  0.00    -0.474 OA
ENDROOT
BRANCH   1   2
ATOM      2  C   LIG    1       26.019 -20.601   6.539  0.00  0.00    +0.158 A 
ATOM      3  C   LIG    1       26.764 -19.943   5.543  0.00  0.00    +0.084 A 
ATOM      4 CL   LIG    1       26.101 -19.296   4.081  0.00  0.00    -0.080 Cl
ATOM      5  C   LIG    1       28.162 -19.864   5.627  0.00  0.00    +0.024 A 
ATOM      6  C   LIG    1       28.854 -20.508   6.644  0.00  0.00    +0.003 A 
ATOM      7  C   LIG    1       28.146 -21.242   7.588  0.00  0.00    +0.024 A 
ATOM      8  C   LIG    1       26.743 -21.281   7.543  0.00  0.00    +0.084 A 
ATOM      9 CL   LIG    1       25.946 -22.210   8.767  0.00  0.00    -0.080 Cl
ENDBRANCH   1   2
BRANCH   1  11
ATOM     10  C   LIG    1       22.513 -21.063   5.465  0.00  0.00    +0.065 C 
ATOM     11  C   LIG    1       24.000 -21.408   5.519  0.00  0.00    +0.284 C 
BRANCH  11  12
ATOM     12  C   LIG    1       24.146 -22.929   5.680  0.00  0.00    +0.322 C 
ATOM     13  N   LIG    1       25.007 -23.691   4.904  0.00  0.00    -0.231 N 
ATOM     14  H   LIG    1       25.099 -23.422   3.936  0.00  0.00    +0.291 HD
ATOM     15  C   LIG    1       24.762 -25.081   5.211  0.00  0.00    +0.273 C 
ATOM     16  C   LIG    1       23.953 -24.975   6.509  0.00  0.00    +0.333 C 
ATOM     17  N   LIG    1       23.472 -23.566   6.592  0.00  0.00    -0.080 NA
ENDBRANCH  11  12
ENDBRANCH   1  11
TORSDOF 3
ENDMDL
MODEL 4
REMARK VINA RESULT:      -6.9      1.801      2.879
REMARK  Name = *****
REMARK                            x       y       z     vdW  Elec       q    Type
REMARK                         _______ _______ _______ _____ _____    ______ ____
ROOT
ATOM      1  O   LIG    1       27.298 -20.834   6.120  0.00  0.00    -0.474 OA
ENDROOT
BRANCH   1   2
ATOM      2  C   LIG    1       25.923 -20.741   6.136  0.00  0.00    +0.158 A 
ATOM      3  C   LIG    1       25.106 -20.279   5.088  0.00  0.00    +0.084 A 
ATOM      4 CL   LIG    1       25.691 -19.563   3.625  0.00  0.00    -0.080 Cl
ATOM      5  C   LIG    1       23.709 -20.268   5.218  0.00  0.00    +0.024 A 
ATOM      6  C   LIG    1       23.100 -20.628   6.413  0.00  0.00    +0.003 A 
ATOM      7  C   LIG    1       23.891 -21.002   7.492  0.00  0.00    +0.024 A 
ATOM      8  C   LIG    1       25.287 -21.068   7.354  0.00  0.00    +0.084 A 
ATOM      9 CL   LIG    1       26.189 -21.555   8.749  0.00  0.00    -0.080 Cl
ENDBRANCH   1   2
BRANCH   1  11
ATOM     10  C   LIG    1       28.603 -18.924   5.357  0.00  0.00    +0.065 C 
ATOM     11  C   LIG    1       28.044 -19.696   6.551  0.00  0.00    +0.284 C 
BRANCH  11  12
ATOM     12  C   LIG    1       29.213 -20.116   7.455  0.00  0.00    +0.322 C 
ATOM     13  N   LIG    1       29.591 -21.438   7.634  0.00  0.00    -0.231 N 
ATOM     14  H   LIG    1       28.846 -22.119   7.670  0.00  0.00    +0.291 HD
ATOM     15  C   LIG    1       30.602 -21.472   8.665  0.00  0.00    +0.273 C 
ATOM     16  C   LIG    1       31.006 -19.995   8.751  0.00  0.00    +0.333 C 
ATOM     17  N   LIG    1       29.925 -19.222   8.075  0.00  0.00    -0.080 NA
ENDBRANCH  11  12
ENDBRANCH   1  11
TORSDOF 3
ENDMDL
MODEL 5
REMARK VINA RESULT:      -6.8      1.809      2.312
REMARK  Name = *****
REMARK                            x       y       z     vdW  Elec       q    Type
REMARK                         _______ _______ _______ _____ _____    ______ ____
ROOT
ATOM      1  O   LIG    1       27.345 -20.644   5.951  0.00  0.00    -0.474 OA
ENDROOT
BRANCH   1   2
ATOM      2  C   LIG    1       25.994 -20.663   6.222  0.00  0.00    +0.158 A 
ATOM      3  C   LIG    1       25.390 -21.099   7.416  0.00  0.00    +0.084 A 
ATOM      4 CL   LIG    1       26.227 -21.869   8.721  0.00  0.00    -0.080 Cl
ATOM      5  C   LIG    1       23.999 -21.034   7.581  0.00  0.00    +0.024 A 
ATOM      6  C   LIG    1       23.174 -20.621   6.542  0.00  0.00    +0.003 A 
ATOM      7  C   LIG    1       23.742 -20.272   5.323  0.00  0.00    +0.024 A 
ATOM      8  C   LIG    1       25.137 -20.283   5.166  0.00  0.00    +0.084 A 
ATOM      9 CL   LIG    1       25.754 -19.821   3.616  0.00  0.00    -0.080 Cl
ENDBRANCH   1   2
BRANCH   1  11
ATOM     10  C   LIG    1       28.736 -18.741   5.337  0.00  0.00    +0.065 C 
ATOM     11  C   LIG    1       28.110 -19.555   6.468  0.00  0.00    +0.284 C 
BRANCH  11  12
ATOM     12  C   LIG    1       29.232 -20.060   7.388  0.00  0.00    +0.322 C 
ATOM     13  N   LIG    1       29.531 -21.405   7.545  0.00  0.00    -0.231 N 
ATOM     14  H   LIG    1       28.749 -22.044   7.548  0.00  0.00    +0.291 HD
ATOM     15  C   LIG    1       30.513 -21.518   8.598  0.00  0.00    +0.273 C 
ATOM     16  C   LIG    1       30.997 -20.068   8.728  0.00  0.00    +0.333 C 
ATOM     17  N   LIG    1       29.978 -19.221   8.046  0.00  0.00    -0.080 NA
ENDBRANCH  11  12
ENDBRANCH   1  11
TORSDOF 3
ENDMDL
MODEL 6
REMARK VINA RESULT:      -6.7      2.520      4.197
REMARK  Name = *****
REMARK                            x       y       z     vdW  Elec       q    Type
REMARK                         _______ _______ _______ _____ _____    ______ ____
ROOT
ATOM      1  O   LIG    1       28.499 -20.340   8.284  0.00  0.00    -0.474 OA
ENDROOT
BRANCH   1   2
ATOM      2  C   LIG    1       27.655 -20.303   7.196  0.00  0.00    +0.158 A 
ATOM      3  C   LIG    1       27.914 -19.681   5.960  0.00  0.00    +0.084 A 
ATOM      4 CL   LIG    1       29.288 -18.683   5.629  0.00  0.00    -0.080 Cl
ATOM      5  C   LIG    1       26.982 -19.746   4.914  0.00  0.00    +0.024 A 
ATOM      6  C   LIG    1       25.743 -20.347   5.097  0.00  0.00    +0.003 A 
ATOM      7  C   LIG    1       25.428 -20.888   6.337  0.00  0.00    +0.024 A 
ATOM      8  C   LIG    1       26.376 -20.875   7.373  0.00  0.00    +0.084 A 
ATOM      9 CL   LIG    1       25.898 -21.583   8.880  0.00  0.00    -0.080 Cl
ENDBRANCH   1   2
BRANCH   1  11
ATOM     10  C   LIG    1       30.586 -21.535   8.669  0.00  0.00    +0.065 C 
ATOM     11  C   LIG    1       29.904 -20.325   8.034  0.00  0.00    +0.284 C 
BRANCH  11  12
ATOM     12  C   LIG    1       30.548 -19.047   8.595  0.00  0.00    +0.322 C 
ATOM     13  N   LIG    1       31.811 -18.613   8.224  0.00  0.00    -0.231 N 
ATOM     14  H   LIG    1       32.507 -19.327   8.071  0.00  0.00    +0.291 HD
ATOM     15  C   LIG    1       32.154 -17.489   9.064  0.00  0.00    +0.273 C 
ATOM     16  C   LIG    1       30.792 -17.121   9.663  0.00  0.00    +0.333 C 
ATOM     17  N   LIG    1       29.901 -18.295   9.437  0.00  0.00    -0.080 NA
ENDBRANCH  11  12
ENDBRANCH   1  11
TORSDOF 3
ENDMDL
MODEL 7
REMARK VINA RESULT:      -6.6      0.516      2.335
REMARK  Name = *****
REMARK                            x       y       z     vdW  Elec       q    Type
REMARK                         _______ _______ _______ _____ _____    ______ ____
ROOT
ATOM      1  O   LIG    1       26.134 -22.244   6.563  0.00  0.00    -0.474 OA
ENDROOT
BRANCH   1   2
ATOM      2  C   LIG    1       25.207 -21.502   5.863  0.00  0.00    +0.158 A 
ATOM      3  C   LIG    1       25.470 -20.360   5.084  0.00  0.00    +0.084 A 
ATOM      4 CL   LIG    1       27.001 -19.558   4.996  0.00  0.00    -0.080 Cl
ATOM      5  C   LIG    1       24.439 -19.712   4.389  0.00  0.00    +0.024 A 
ATOM      6  C   LIG    1       23.119 -20.124   4.521  0.00  0.00    +0.003 A 
ATOM      7  C   LIG    1       22.823 -21.194   5.357  0.00  0.00    +0.024 A 
ATOM      8  C   LIG    1       23.855 -21.882   6.015  0.00  0.00    +0.084 A 
ATOM      9 CL   LIG    1       23.392 -23.208   7.027  0.00  0.00    -0.080 Cl
ENDBRANCH   1   2
BRANCH   1  11
ATOM     10  C   LIG    1       25.466 -20.830   8.431  0.00  0.00    +0.065 C 
ATOM     11  C   LIG    1       26.518 -21.777   7.856  0.00  0.00    +0.284 C 
BRANCH  11  12
ATOM     12  C   LIG    1       27.863 -21.037   7.795  0.00  0.00    +0.322 C 
ATOM     13  N   LIG    1       28.971 -21.540   7.130  0.00  0.00    -0.231 N 
ATOM     14  H   LIG    1       29.113 -22.538   7.179  0.00  0.00    +0.291 HD
ATOM     15  C   LIG    1       30.090 -20.673   7.420  0.00  0.00    +0.273 C 
ATOM     16  C   LIG    1       29.385 -19.438   7.995  0.00  0.00    +0.333 C 
ATOM     17  N   LIG    1       28.004 -19.871   8.354  0.00  0.00    -0.080 NA
ENDBRANCH  11  12
ENDBRANCH   1  11
TORSDOF 3
ENDMDL
MODEL 8
REMARK VINA RESULT:      -6.6      2.919      5.427
REMARK  Name = *****
REMARK                            x       y       z     vdW  Elec       q    Type
REMARK                         _______ _______ _______ _____ _____    ______ ____
ROOT
ATOM      1  O   LIG    1       27.587 -21.759   7.431  0.00  0.00    -0.474 OA
ENDROOT
BRANCH   1   2
ATOM      2  C   LIG    1       28.384 -20.729   6.980  0.00  0.00    +0.158 A 
ATOM      3  C   LIG    1       28.069 -19.821   5.952  0.00  0.00    +0.084 A 
ATOM      4 CL   LIG    1       26.678 -19.934   4.928  0.00  0.00    -0.080 Cl
ATOM      5  C   LIG    1       28.955 -18.789   5.610  0.00  0.00    +0.024 A 
ATOM      6  C   LIG    1       30.203 -18.689   6.212  0.00  0.00    +0.003 A 
ATOM      7  C   LIG    1       30.573 -19.630   7.165  0.00  0.00    +0.024 A 
ATOM      8  C   LIG    1       29.671 -20.634   7.553  0.00  0.00    +0.084 A 
ATOM      9 CL   LIG    1       30.215 -21.754   8.756  0.00  0.00    -0.080 Cl
ENDBRANCH   1   2
BRANCH   1  11
ATOM     10  C   LIG    1       25.722 -21.103   8.855  0.00  0.00    +0.065 C 
ATOM     11  C   LIG    1       26.177 -21.541   7.463  0.00  0.00    +0.284 C 
BRANCH  11  12
ATOM     12  C   LIG    1       25.415 -22.818   7.077  0.00  0.00    +0.322 C 
ATOM     13  N   LIG    1       24.047 -22.843   6.852  0.00  0.00    -0.231 N 
ATOM     14  H   LIG    1       23.482 -22.254   7.446  0.00  0.00    +0.291 HD
ATOM     15  C   LIG    1       23.654 -24.222   6.679  0.00  0.00    +0.273 C 
ATOM     16  C   LIG    1       25.008 -24.905   6.450  0.00  0.00    +0.333 C 
ATOM     17  N   LIG    1       26.048 -23.943   6.915  0.00  0.00    -0.080 NA
ENDBRANCH  11  12
ENDBRANCH   1  11
TORSDOF 3
ENDMDL
MODEL 9
REMARK VINA RESULT:      -6.6      2.654      4.748
REMARK  Name = *****
REMARK                            x       y       z     vdW  Elec       q    Type
REMARK                         _______ _______ _______ _____ _____    ______ ____
ROOT
ATOM      1  O   LIG    1       24.533 -20.596   6.358  0.00  0.00    -0.474 OA
ENDROOT
BRANCH   1   2
ATOM      2  C   LIG    1       25.906 -20.631   6.477  0.00  0.00    +0.158 A 
ATOM      3  C   LIG    1       26.636 -21.186   7.544  0.00  0.00    +0.084 A 
ATOM      4 CL   LIG    1       25.938 -21.782   9.011  0.00  0.00    -0.080 Cl
ATOM      5  C   LIG    1       28.039 -21.190   7.529  0.00  0.00    +0.024 A 
ATOM      6  C   LIG    1       28.744 -20.568   6.506  0.00  0.00    +0.003 A 
ATOM      7  C   LIG    1       28.044 -19.934   5.487  0.00  0.00    +0.024 A 
ATOM      8  C   LIG    1       26.640 -19.972   5.466  0.00  0.00    +0.084 A 
ATOM      9 CL   LIG    1       25.854 -19.163   4.152  0.00  0.00    -0.080 Cl
ENDBRANCH   1   2
BRANCH   1  11
ATOM     10  C   LIG    1       22.438 -21.109   5.227  0.00  0.00    +0.065 C 
ATOM     11  C   LIG    1       23.937 -21.385   5.328  0.00  0.00    +0.284 C 
BRANCH  11  12
ATOM     12  C   LIG    1       24.144 -22.883   5.594  0.00  0.00    +0.322 C 
ATOM     13  N   LIG    1       24.966 -23.682   4.813  0.00  0.00    -0.231 N 
ATOM     14  H   LIG    1       24.973 -23.489   3.823  0.00  0.00    +0.291 HD
ATOM     15  C   LIG    1       24.791 -25.049   5.246  0.00  0.00    +0.273 C 
ATOM     16  C   LIG    1       24.083 -24.861   6.593  0.00  0.00    +0.333 C 
ATOM     17  N   LIG    1       23.565 -23.463   6.604  0.00  0.00    -0.080 NA
ENDBRANCH  11  12
ENDBRANCH   1  11
TORSDOF 3
ENDMDL
