MODEL 1
REMARK VINA RESULT:      -0.0      0.000      0.000
REMARK  Name = *****
REMARK                            x       y       z     vdW  Elec       q    Type
REMARK                         _______ _______ _______ _____ _____    ______ ____
ROOT
ATOM      1  C   LIG    1       24.082 -16.163   3.915  0.00  0.00    +0.168 C 
ATOM      2  C   LIG    1       25.159 -15.198   3.937  0.00  0.00    +0.097 C 
ATOM      3  C   LIG    1       26.479 -15.647   3.752  0.00  0.00    +0.052 C 
ATOM      4  C   LIG    1       27.627 -14.715   3.879  0.00  0.00    +0.204 C 
ATOM      5  C   LIG    1       27.366 -13.347   4.364  0.00  0.00    +0.122 C 
ATOM      6  C   LIG    1       26.075 -12.983   4.414  0.00  0.00    +0.105 C 
ATOM      7  O   LIG    1       28.773 -15.058   3.605  0.00  0.00    -0.286 OA
ATOM      8  C   LIG    1       26.731 -16.963   3.411  0.00  0.00    +0.054 C 
ATOM      9  C   LIG    1       25.686 -17.880   3.376  0.00  0.00    +0.149 C 
ATOM     10  F   LIG    1       26.057 -19.125   3.040  0.00  0.00    -0.203 F 
ATOM     11  N   LIG    1       24.978 -13.776   4.093  0.00  0.00    -0.340 NA
ATOM     12  C   LIG    1       24.338 -17.563   3.704  0.00  0.00    +0.110 C 
ENDROOT
BRANCH  12  13
ATOM     13  N   LIG    1       23.329 -18.576   3.773  0.00  0.00    -0.322 NA
ATOM     14  C   LIG    1       21.921 -18.101   3.711  0.00  0.00    +0.123 C 
ATOM     15  C   LIG    1       20.955 -19.311   3.532  0.00  0.00    +0.068 C 
ATOM     16  C   LIG    1       19.527 -18.823   3.315  0.00  0.00    +0.025 C 
ATOM     17  N   LIG    1       21.021 -20.212   4.702  0.00  0.00    -0.310 NA
ATOM     18  H   LIG    1       20.841 -19.660   5.542  0.00  0.00    +0.122 HD
ATOM     19  C   LIG    1       22.402 -20.728   4.777  0.00  0.00    +0.100 C 
ATOM     20  C   LIG    1       23.497 -19.634   4.819  0.00  0.00    +0.120 C 
ENDBRANCH  12  13
BRANCH  11  21
ATOM     21  C   LIG    1       23.963 -13.092   3.240  0.00  0.00    +0.088 C 
ATOM     22  C   LIG    1       23.802 -11.579   3.227  0.00  0.00    +0.027 C 
ATOM     23  C   LIG    1       24.361 -12.274   2.032  0.00  0.00    +0.027 C 
ENDBRANCH  11  21
BRANCH   1  25
ATOM     24  C   LIG    1       22.436 -15.537   5.551  0.00  0.00    +0.277 C 
ATOM     25  O   LIG    1       22.825 -15.643   4.177  0.00  0.00    -0.491 OA
ENDBRANCH   1  25
BRANCH   5  26
ATOM     26  C   LIG    1       28.432 -12.379   4.672  0.00  0.00    +0.342 C 
ATOM     27  O   LIG    1       29.071 -11.780   3.801  0.00  0.00    -0.245 OA
BRANCH  26  28
ATOM     28  O   LIG    1       28.692 -12.218   5.985  0.00  0.00    -0.477 OA
ATOM     29  H   LIG    1       29.165 -11.380   6.201  0.00  0.00    +0.295 HD
ENDBRANCH  26  28
ENDBRANCH   5  26
TORSDOF 5
ENDMDL
