MODEL 1
REMARK VINA RESULT:       4.7      0.000      0.000
REMARK  Name = *****
REMARK                            x       y       z     vdW  Elec       q    Type
REMARK                         _______ _______ _______ _____ _____    ______ ____
ROOT
ATOM      1  C   LIG    1       26.862 -17.163   3.720  0.00  0.00    +0.038 A 
ATOM      2  C   LIG    1       25.457 -17.158   3.588  0.00  0.00    +0.048 A 
ATOM      3  C   LIG    1       24.635 -18.165   4.163  0.00  0.00    +0.057 A 
ATOM      4  N   LIG    1       23.193 -18.017   4.144  0.00  0.00    -0.238 N 
ATOM      5  C   LIG    1       22.355 -19.205   4.213  0.00  0.00    +0.055 A 
ATOM      6  C   LIG    1       22.834 -20.448   4.668  0.00  0.00    +0.035 A 
ATOM      7  S   LIG    1       24.455 -20.697   5.334  0.00  0.00    -0.086 S 
ATOM      8  C   LIG    1       21.986 -21.572   4.752  0.00  0.00    +0.017 A 
ATOM      9  C   LIG    1       20.641 -21.484   4.421  0.00  0.00    +0.001 A 
ATOM     10  C   LIG    1       20.137 -20.269   3.992  0.00  0.00    +0.002 A 
ATOM     11  C   LIG    1       20.983 -19.156   3.881  0.00  0.00    +0.025 A 
ATOM     12  C   LIG    1       22.598 -16.731   4.221  0.00  0.00    +0.225 C 
ATOM     13  O   LIG    1       21.551 -16.390   3.669  0.00  0.00    -0.275 OA
ATOM     14  C   LIG    1       25.284 -19.267   4.727  0.00  0.00    +0.035 A 
ATOM     15  C   LIG    1       26.678 -19.266   4.874  0.00  0.00    +0.019 A 
ATOM     16  C   LIG    1       27.455 -18.213   4.403  0.00  0.00    +0.024 A 
ENDROOT
BRANCH   1  18
ATOM     17  C   LIG    1       27.654 -14.810   3.792  0.00  0.00    +0.405 C 
ATOM     18  N   LIG    1       27.588 -16.061   3.230  0.00  0.00    -0.251 N 
ATOM     19  H   LIG    1       28.085 -16.150   2.358  0.00  0.00    +0.158 HD
ATOM     20  O   LIG    1       27.329 -14.486   4.910  0.00  0.00    -0.226 OA
BRANCH  17  21
ATOM     21  O   LIG    1       28.141 -13.934   2.852  0.00  0.00    -0.450 OA
BRANCH  21  23
ATOM     22  C   LIG    1       29.104 -12.212   4.312  0.00  0.00    +0.048 C 
ATOM     23  C   LIG    1       28.081 -12.547   3.235  0.00  0.00    +0.230 C 
ENDBRANCH  21  23
ENDBRANCH  17  21
ENDBRANCH   1  18
BRANCH  12  24
ATOM     24  C   LIG    1       23.234 -15.805   5.260  0.00  0.00    +0.112 C 
BRANCH  24  25
ATOM     25  C   LIG    1       23.064 -14.327   4.884  0.00  0.00    +0.093 C 
BRANCH  25  26
ATOM     26  N   LIG    1       24.353 -13.674   4.573  0.00  0.00    -0.297 NA
ATOM     27  C   LIG    1       24.750 -13.907   3.161  0.00  0.00    +0.112 C 
ATOM     28  C   LIG    1       23.913 -13.120   2.136  0.00  0.00    +0.175 C 
ATOM     29  O   LIG    1       23.934 -11.714   2.412  0.00  0.00    -0.377 OA
ATOM     30  C   LIG    1       23.483 -11.447   3.744  0.00  0.00    +0.175 C 
ATOM     31  C   LIG    1       24.325 -12.208   4.782  0.00  0.00    +0.112 C 
ENDBRANCH  25  26
ENDBRANCH  24  25
ENDBRANCH  12  24
TORSDOF 6
ENDMDL
