MODEL 1
REMARK VINA RESULT:      -8.0      0.000      0.000
REMARK  Name = *****
REMARK                            x       y       z     vdW  Elec       q    Type
REMARK                         _______ _______ _______ _____ _____    ______ ____
ROOT
ATOM      1  CA  LIG    1       25.431 -20.671   5.607  0.00  0.00    +0.128 C 
ATOM      2  N   LIG    1       24.402 -21.527   5.981  0.00  0.00    -0.249 N 
ATOM      3  C   LIG    1       24.244 -22.095   7.336  0.00  0.00    +0.169 C 
ATOM      4  CA  LIG    1       24.001 -23.481   6.682  0.00  0.00    +0.191 C 
ATOM      5  S   LIG    1       25.656 -21.925   8.433  0.00  0.00    -0.131 S 
ATOM      6  C   LIG    1       26.873 -21.850   7.167  0.00  0.00    +0.110 C 
ATOM      7  C   LIG    1       24.324 -22.748   5.374  0.00  0.00    +0.244 C 
ATOM      8  O   LIG    1       24.732 -23.097   4.260  0.00  0.00    -0.273 OA
ATOM      9  C   LIG    1       26.678 -20.789   6.134  0.00  0.00    +0.033 C 
ENDROOT
BRANCH   4  10
ATOM     10  N   LIG    1       24.955 -24.599   6.997  0.00  0.00    -0.301 N 
ATOM     11  H   LIG    1       25.889 -24.385   7.321  0.00  0.00    +0.149 HD
ATOM     12  C   LIG    1       24.747 -25.876   6.514  0.00  0.00    +0.218 C 
ATOM     13  O   LIG    1       23.766 -26.152   5.831  0.00  0.00    -0.275 OA
BRANCH  12  14
ATOM     14  C   LIG    1       25.828 -26.878   6.902  0.00  0.00    +0.138 C 
BRANCH  14  15
ATOM     15  C   LIG    1       25.275 -28.269   6.875  0.00  0.00    -0.002 A 
ATOM     16  S   LIG    1       25.155 -29.104   5.382  0.00  0.00    -0.101 S 
ATOM     17  C   LIG    1       24.488 -30.485   6.132  0.00  0.00    +0.045 A 
ATOM     18  C   LIG    1       24.373 -30.328   7.495  0.00  0.00    +0.008 A 
ATOM     19  C   LIG    1       24.831 -29.049   7.927  0.00  0.00    +0.012 A 
ENDBRANCH  14  15
ENDBRANCH  12  14
ENDBRANCH   4  10
BRANCH   1  21
ATOM     20  O   LIG    1       24.217 -18.913   4.457  0.00  0.00    -0.244 OA
ATOM     21  C   LIG    1       25.093 -19.759   4.460  0.00  0.00    +0.352 C 
BRANCH  21  22
ATOM     22  OXT LIG    1       25.881 -19.982   3.395  0.00  0.00    -0.476 OA
ATOM     23  HXT LIG    1       26.692 -20.422   3.729  0.00  0.00    +0.295 HD
ENDBRANCH  21  22
ENDBRANCH   1  21
BRANCH   9  24
ATOM     24  C   LIG    1       27.905 -19.983   5.710  0.00  0.00    +0.392 C 
BRANCH  24  25
ATOM     25  N   LIG    1       29.093 -19.861   6.664  0.00  0.00    -0.200 N 
ATOM     26  C   LIG    1       29.655 -18.629   6.800  0.00  0.00    +0.309 A 
ATOM     27  C   LIG    1       30.709 -18.429   7.697  0.00  0.00    +0.070 A 
ATOM     28  C   LIG    1       31.145 -19.466   8.513  0.00  0.00    +0.012 A 
ATOM     29  C   LIG    1       30.565 -20.700   8.376  0.00  0.00    +0.070 A 
ATOM     30  C   LIG    1       29.636 -20.874   7.378  0.00  0.00    +0.309 A 
ENDBRANCH  24  25
ENDBRANCH   9  24
TORSDOF 7
ENDMDL
MODEL 2
REMARK VINA RESULT:      -7.4      6.040     10.175
REMARK  Name = *****
REMARK                            x       y       z     vdW  Elec       q    Type
REMARK                         _______ _______ _______ _____ _____    ______ ____
ROOT
ATOM      1  CA  LIG    1       25.341 -31.556  11.126  0.00  0.00    +0.128 C 
ATOM      2  N   LIG    1       25.857 -31.785   9.857  0.00  0.00    -0.249 N 
ATOM      3  C   LIG    1       26.650 -30.802   9.091  0.00  0.00    +0.169 C 
ATOM      4  CA  LIG    1       25.771 -31.118   7.852  0.00  0.00    +0.191 C 
ATOM      5  S   LIG    1       26.636 -29.118   9.715  0.00  0.00    -0.131 S 
ATOM      6  C   LIG    1       25.070 -29.222  10.508  0.00  0.00    +0.110 C 
ATOM      7  C   LIG    1       24.980 -31.996   8.831  0.00  0.00    +0.244 C 
ATOM      8  O   LIG    1       23.826 -32.438   8.865  0.00  0.00    -0.273 OA
ATOM      9  C   LIG    1       24.913 -30.322  11.504  0.00  0.00    +0.033 C 
ENDROOT
BRANCH   4  10
ATOM     10  N   LIG    1       24.958 -30.009   7.247  0.00  0.00    -0.301 N 
ATOM     11  H   LIG    1       24.183 -29.615   7.765  0.00  0.00    +0.149 HD
ATOM     12  C   LIG    1       24.980 -29.762   5.889  0.00  0.00    +0.218 C 
ATOM     13  O   LIG    1       25.681 -30.421   5.128  0.00  0.00    -0.275 OA
BRANCH  12  14
ATOM     14  C   LIG    1       24.073 -28.622   5.442  0.00  0.00    +0.138 C 
BRANCH  14  15
ATOM     15  C   LIG    1       24.689 -27.304   5.795  0.00  0.00    -0.002 A 
ATOM     16  S   LIG    1       26.371 -27.065   5.562  0.00  0.00    -0.101 S 
ATOM     17  C   LIG    1       26.293 -25.465   6.154  0.00  0.00    +0.045 A 
ATOM     18  C   LIG    1       25.012 -25.106   6.505  0.00  0.00    +0.008 A 
ATOM     19  C   LIG    1       24.082 -26.167   6.295  0.00  0.00    +0.012 A 
ENDBRANCH  14  15
ENDBRANCH  12  14
ENDBRANCH   4  10
BRANCH   1  21
ATOM     20  O   LIG    1       25.928 -33.283  12.724  0.00  0.00    -0.244 OA
ATOM     21  C   LIG    1       25.129 -32.800  11.944  0.00  0.00    +0.352 C 
BRANCH  21  22
ATOM     22  OXT LIG    1       23.924 -33.349  11.714  0.00  0.00    -0.476 OA
ATOM     23  HXT LIG    1       23.465 -33.399  12.580  0.00  0.00    +0.295 HD
ENDBRANCH  21  22
ENDBRANCH   1  21
BRANCH   9  24
ATOM     24  C   LIG    1       24.224 -29.985  12.826  0.00  0.00    +0.392 C 
BRANCH  24  25
ATOM     25  N   LIG    1       23.320 -28.755  12.912  0.00  0.00    -0.200 N 
ATOM     26  C   LIG    1       22.000 -28.935  12.637  0.00  0.00    +0.309 A 
ATOM     27  C   LIG    1       21.102 -27.868  12.751  0.00  0.00    +0.070 A 
ATOM     28  C   LIG    1       21.535 -26.632  13.218  0.00  0.00    +0.012 A 
ATOM     29  C   LIG    1       22.865 -26.464  13.502  0.00  0.00    +0.070 A 
ATOM     30  C   LIG    1       23.723 -27.504  13.233  0.00  0.00    +0.309 A 
ENDBRANCH  24  25
ENDBRANCH   9  24
TORSDOF 7
ENDMDL
MODEL 3
REMARK VINA RESULT:      -7.3      3.288      4.112
REMARK  Name = *****
REMARK                            x       y       z     vdW  Elec       q    Type
REMARK                         _______ _______ _______ _____ _____    ______ ____
ROOT
ATOM      1  CA  LIG    1       23.382 -19.112   4.888  0.00  0.00    +0.128 C 
ATOM      2  N   LIG    1       23.035 -20.078   5.824  0.00  0.00    -0.249 N 
ATOM      3  C   LIG    1       23.995 -20.749   6.724  0.00  0.00    +0.169 C 
ATOM      4  CA  LIG    1       23.336 -22.103   6.352  0.00  0.00    +0.191 C 
ATOM      5  S   LIG    1       25.733 -20.531   6.326  0.00  0.00    -0.131 S 
ATOM      6  C   LIG    1       25.502 -20.262   4.603  0.00  0.00    +0.110 C 
ATOM      7  C   LIG    1       22.513 -21.256   5.372  0.00  0.00    +0.244 C 
ATOM      8  O   LIG    1       21.897 -21.491   4.326  0.00  0.00    -0.273 OA
ATOM      9  C   LIG    1       24.572 -19.155   4.233  0.00  0.00    +0.033 C 
ENDROOT
BRANCH   4  10
ATOM     10  N   LIG    1       24.177 -23.151   5.682  0.00  0.00    -0.301 N 
ATOM     11  H   LIG    1       24.668 -22.929   4.825  0.00  0.00    +0.149 HD
ATOM     12  C   LIG    1       24.016 -24.492   5.969  0.00  0.00    +0.218 C 
ATOM     13  O   LIG    1       23.198 -24.877   6.798  0.00  0.00    -0.275 OA
BRANCH  12  14
ATOM     14  C   LIG    1       24.929 -25.419   5.176  0.00  0.00    +0.138 C 
BRANCH  14  15
ATOM     15  C   LIG    1       24.918 -26.792   5.775  0.00  0.00    -0.002 A 
ATOM     16  S   LIG    1       25.910 -27.132   7.132  0.00  0.00    -0.101 S 
ATOM     17  C   LIG    1       25.377 -28.752   7.198  0.00  0.00    +0.045 A 
ATOM     18  C   LIG    1       24.447 -29.031   6.221  0.00  0.00    +0.008 A 
ATOM     19  C   LIG    1       24.178 -27.897   5.400  0.00  0.00    +0.012 A 
ENDBRANCH  14  15
ENDBRANCH  12  14
ENDBRANCH   4  10
BRANCH   1  21
ATOM     20  O   LIG    1       22.166 -17.013   4.946  0.00  0.00    -0.244 OA
ATOM     21  C   LIG    1       22.274 -18.157   4.542  0.00  0.00    +0.352 C 
BRANCH  21  22
ATOM     22  OXT LIG    1       21.374 -18.714   3.713  0.00  0.00    -0.476 OA
ATOM     23  HXT LIG    1       20.991 -17.986   3.179  0.00  0.00    +0.295 HD
ENDBRANCH  21  22
ENDBRANCH   1  21
BRANCH   9  24
ATOM     24  C   LIG    1       25.004 -18.217   3.107  0.00  0.00    +0.392 C 
BRANCH  24  25
ATOM     25  N   LIG    1       25.526 -16.821   3.448  0.00  0.00    -0.200 N 
ATOM     26  C   LIG    1       26.876 -16.667   3.530  0.00  0.00    +0.309 A 
ATOM     27  C   LIG    1       27.429 -15.407   3.781  0.00  0.00    +0.070 A 
ATOM     28  C   LIG    1       26.612 -14.286   3.875  0.00  0.00    +0.012 A 
ATOM     29  C   LIG    1       25.254 -14.451   3.779  0.00  0.00    +0.070 A 
ATOM     30  C   LIG    1       24.760 -15.729   3.678  0.00  0.00    +0.309 A 
ENDBRANCH  24  25
ENDBRANCH   9  24
TORSDOF 7
ENDMDL
MODEL 4
REMARK VINA RESULT:      -7.2      5.182      9.632
REMARK  Name = *****
REMARK                            x       y       z     vdW  Elec       q    Type
REMARK                         _______ _______ _______ _____ _____    ______ ____
ROOT
ATOM      1  CA  LIG    1       24.086 -31.009  10.031  0.00  0.00    +0.128 C 
ATOM      2  N   LIG    1       24.593 -31.072   8.740  0.00  0.00    -0.249 N 
ATOM      3  C   LIG    1       26.021 -30.911   8.397  0.00  0.00    +0.169 C 
ATOM      4  CA  LIG    1       25.598 -29.940   7.262  0.00  0.00    +0.191 C 
ATOM      5  S   LIG    1       27.076 -30.263   9.697  0.00  0.00    -0.131 S 
ATOM      6  C   LIG    1       25.814 -29.381  10.546  0.00  0.00    +0.110 C 
ATOM      7  C   LIG    1       24.189 -30.126   7.841  0.00  0.00    +0.244 C 
ATOM      8  O   LIG    1       23.145 -29.464   7.815  0.00  0.00    -0.273 OA
ATOM      9  C   LIG    1       24.626 -30.181  10.965  0.00  0.00    +0.033 C 
ENDROOT
BRANCH   4  10
ATOM     10  N   LIG    1       26.086 -28.521   7.312  0.00  0.00    -0.301 N 
ATOM     11  H   LIG    1       26.185 -28.056   8.206  0.00  0.00    +0.149 HD
ATOM     12  C   LIG    1       26.048 -27.709   6.196  0.00  0.00    +0.218 C 
ATOM     13  O   LIG    1       25.637 -28.122   5.116  0.00  0.00    -0.275 OA
BRANCH  12  14
ATOM     14  C   LIG    1       26.553 -26.291   6.433  0.00  0.00    +0.138 C 
BRANCH  14  15
ATOM     15  C   LIG    1       25.397 -25.346   6.558  0.00  0.00    -0.002 A 
ATOM     16  S   LIG    1       25.677 -23.724   7.038  0.00  0.00    -0.101 S 
ATOM     17  C   LIG    1       24.015 -23.343   6.954  0.00  0.00    +0.045 A 
ATOM     18  C   LIG    1       23.258 -24.419   6.550  0.00  0.00    +0.008 A 
ATOM     19  C   LIG    1       24.056 -25.577   6.317  0.00  0.00    +0.012 A 
ENDBRANCH  14  15
ENDBRANCH  12  14
ENDBRANCH   4  10
BRANCH   1  21
ATOM     20  O   LIG    1       22.718 -32.896  10.702  0.00  0.00    -0.244 OA
ATOM     21  C   LIG    1       22.809 -31.776  10.235  0.00  0.00    +0.352 C 
BRANCH  21  22
ATOM     22  OXT LIG    1       21.736 -31.075   9.830  0.00  0.00    -0.476 OA
ATOM     23  HXT LIG    1       21.024 -31.725   9.651  0.00  0.00    +0.295 HD
ENDBRANCH  21  22
ENDBRANCH   1  21
BRANCH   9  24
ATOM     24  C   LIG    1       24.078 -29.947  12.371  0.00  0.00    +0.392 C 
BRANCH  24  25
ATOM     25  N   LIG    1       23.274 -28.681  12.667  0.00  0.00    -0.200 N 
ATOM     26  C   LIG    1       21.931 -28.737  12.460  0.00  0.00    +0.309 A 
ATOM     27  C   LIG    1       21.123 -27.636  12.763  0.00  0.00    +0.070 A 
ATOM     28  C   LIG    1       21.671 -26.500  13.347  0.00  0.00    +0.012 A 
ATOM     29  C   LIG    1       23.025 -26.458  13.561  0.00  0.00    +0.070 A 
ATOM     30  C   LIG    1       23.787 -27.509  13.111  0.00  0.00    +0.309 A 
ENDBRANCH  24  25
ENDBRANCH   9  24
TORSDOF 7
ENDMDL
MODEL 5
REMARK VINA RESULT:      -7.1      6.805      9.993
REMARK  Name = *****
REMARK                            x       y       z     vdW  Elec       q    Type
REMARK                         _______ _______ _______ _____ _____    ______ ____
ROOT
ATOM      1  CA  LIG    1       25.479 -30.503  10.195  0.00  0.00    +0.128 C 
ATOM      2  N   LIG    1       25.079 -30.476  11.525  0.00  0.00    -0.249 N 
ATOM      3  C   LIG    1       23.758 -30.930  12.007  0.00  0.00    +0.169 C 
ATOM      4  CA  LIG    1       23.661 -29.629  12.846  0.00  0.00    +0.191 C 
ATOM      5  S   LIG    1       22.510 -31.204  10.745  0.00  0.00    -0.131 S 
ATOM      6  C   LIG    1       23.170 -30.071   9.574  0.00  0.00    +0.110 C 
ATOM      7  C   LIG    1       24.975 -29.262  12.143  0.00  0.00    +0.244 C 
ATOM      8  O   LIG    1       25.560 -28.202  11.893  0.00  0.00    -0.273 OA
ATOM      9  C   LIG    1       24.594 -30.289   9.185  0.00  0.00    +0.033 C 
ENDROOT
BRANCH   4  10
ATOM     10  N   LIG    1       22.539 -28.673  12.559  0.00  0.00    -0.301 N 
ATOM     11  H   LIG    1       22.253 -28.506  11.602  0.00  0.00    +0.149 HD
ATOM     12  C   LIG    1       22.134 -27.740  13.494  0.00  0.00    +0.218 C 
ATOM     13  O   LIG    1       22.658 -27.672  14.600  0.00  0.00    -0.275 OA
BRANCH  12  14
ATOM     14  C   LIG    1       21.005 -26.830  13.026  0.00  0.00    +0.138 C 
BRANCH  14  15
ATOM     15  C   LIG    1       19.737 -27.169  13.746  0.00  0.00    -0.002 A 
ATOM     16  S   LIG    1       19.456 -28.784  14.252  0.00  0.00    -0.101 S 
ATOM     17  C   LIG    1       17.939 -28.379  14.923  0.00  0.00    +0.045 A 
ATOM     18  C   LIG    1       17.653 -27.040  14.785  0.00  0.00    +0.008 A 
ATOM     19  C   LIG    1       18.693 -26.338  14.108  0.00  0.00    +0.012 A 
ENDBRANCH  14  15
ENDBRANCH  12  14
ENDBRANCH   4  10
BRANCH   1  21
ATOM     20  O   LIG    1       27.748 -29.664  10.021  0.00  0.00    -0.244 OA
ATOM     21  C   LIG    1       26.966 -30.596   9.996  0.00  0.00    +0.352 C 
BRANCH  21  22
ATOM     22  OXT LIG    1       27.361 -31.861   9.773  0.00  0.00    -0.476 OA
ATOM     23  HXT LIG    1       27.476 -31.956   8.803  0.00  0.00    +0.295 HD
ENDBRANCH  21  22
ENDBRANCH   1  21
BRANCH   9  24
ATOM     24  C   LIG    1       24.945 -30.181   7.702  0.00  0.00    +0.392 C 
BRANCH  24  25
ATOM     25  N   LIG    1       25.115 -28.801   7.066  0.00  0.00    -0.200 N 
ATOM     26  C   LIG    1       24.339 -28.517   5.984  0.00  0.00    +0.309 A 
ATOM     27  C   LIG    1       24.398 -27.255   5.384  0.00  0.00    +0.070 A 
ATOM     28  C   LIG    1       25.192 -26.253   5.931  0.00  0.00    +0.012 A 
ATOM     29  C   LIG    1       25.960 -26.545   7.027  0.00  0.00    +0.070 A 
ATOM     30  C   LIG    1       25.973 -27.841   7.485  0.00  0.00    +0.309 A 
ENDBRANCH  24  25
ENDBRANCH   9  24
TORSDOF 7
ENDMDL
MODEL 6
REMARK VINA RESULT:      -6.9      6.464      9.574
REMARK  Name = *****
REMARK                            x       y       z     vdW  Elec       q    Type
REMARK                         _______ _______ _______ _____ _____    ______ ____
ROOT
ATOM      1  CA  LIG    1       25.061 -31.640   7.751  0.00  0.00    +0.128 C 
ATOM      2  N   LIG    1       25.178 -32.238   8.999  0.00  0.00    -0.249 N 
ATOM      3  C   LIG    1       24.187 -32.101  10.085  0.00  0.00    +0.169 C 
ATOM      4  CA  LIG    1       25.358 -31.818  11.064  0.00  0.00    +0.191 C 
ATOM      5  S   LIG    1       22.953 -30.814   9.868  0.00  0.00    -0.131 S 
ATOM      6  C   LIG    1       23.932 -29.782   8.836  0.00  0.00    +0.110 C 
ATOM      7  C   LIG    1       26.222 -31.867   9.797  0.00  0.00    +0.244 C 
ATOM      8  O   LIG    1       27.327 -31.409   9.481  0.00  0.00    -0.273 OA
ATOM      9  C   LIG    1       24.478 -30.421   7.602  0.00  0.00    +0.033 C 
ENDROOT
BRANCH   4  10
ATOM     10  N   LIG    1       25.399 -30.493  11.770  0.00  0.00    -0.301 N 
ATOM     11  H   LIG    1       25.932 -29.730  11.374  0.00  0.00    +0.149 HD
ATOM     12  C   LIG    1       25.058 -30.380  13.103  0.00  0.00    +0.218 C 
ATOM     13  O   LIG    1       24.686 -31.351  13.755  0.00  0.00    -0.275 OA
BRANCH  12  14
ATOM     14  C   LIG    1       25.186 -28.970  13.668  0.00  0.00    +0.138 C 
BRANCH  14  15
ATOM     15  C   LIG    1       23.915 -28.210  13.450  0.00  0.00    -0.002 A 
ATOM     16  S   LIG    1       23.888 -26.514  13.706  0.00  0.00    -0.101 S 
ATOM     17  C   LIG    1       22.235 -26.412  13.292  0.00  0.00    +0.045 A 
ATOM     18  C   LIG    1       21.712 -27.637  12.946  0.00  0.00    +0.008 A 
ATOM     19  C   LIG    1       22.683 -28.677  13.033  0.00  0.00    +0.012 A 
ENDBRANCH  14  15
ENDBRANCH  12  14
ENDBRANCH   4  10
BRANCH   1  21
ATOM     20  O   LIG    1       25.319 -33.231   5.939  0.00  0.00    -0.244 OA
ATOM     21  C   LIG    1       25.786 -32.359   6.647  0.00  0.00    +0.352 C 
BRANCH  21  22
ATOM     22  OXT LIG    1       27.052 -31.928   6.518  0.00  0.00    -0.476 OA
ATOM     23  HXT LIG    1       27.369 -31.702   7.419  0.00  0.00    +0.295 HD
ENDBRANCH  21  22
ENDBRANCH   1  21
BRANCH   9  24
ATOM     24  C   LIG    1       24.402 -29.623   6.301  0.00  0.00    +0.392 C 
BRANCH  24  25
ATOM     25  N   LIG    1       24.829 -28.155   6.290  0.00  0.00    -0.200 N 
ATOM     26  C   LIG    1       24.130 -27.312   5.484  0.00  0.00    +0.309 A 
ATOM     27  C   LIG    1       24.426 -25.945   5.464  0.00  0.00    +0.070 A 
ATOM     28  C   LIG    1       25.387 -25.421   6.322  0.00  0.00    +0.012 A 
ATOM     29  C   LIG    1       26.078 -26.278   7.139  0.00  0.00    +0.070 A 
ATOM     30  C   LIG    1       25.846 -27.627   7.011  0.00  0.00    +0.309 A 
ENDBRANCH  24  25
ENDBRANCH   9  24
TORSDOF 7
ENDMDL
MODEL 7
REMARK VINA RESULT:      -6.9      3.546      9.283
REMARK  Name = *****
REMARK                            x       y       z     vdW  Elec       q    Type
REMARK                         _______ _______ _______ _____ _____    ______ ____
ROOT
ATOM      1  CA  LIG    1       25.459 -30.232   6.672  0.00  0.00    +0.128 C 
ATOM      2  N   LIG    1       25.388 -29.344   5.606  0.00  0.00    -0.249 N 
ATOM      3  C   LIG    1       26.035 -28.016   5.584  0.00  0.00    +0.169 C 
ATOM      4  CA  LIG    1       24.704 -27.421   5.052  0.00  0.00    +0.191 C 
ATOM      5  S   LIG    1       26.647 -27.410   7.160  0.00  0.00    -0.131 S 
ATOM      6  C   LIG    1       25.521 -28.314   8.163  0.00  0.00    +0.110 C 
ATOM      7  C   LIG    1       24.165 -28.842   5.265  0.00  0.00    +0.244 C 
ATOM      8  O   LIG    1       23.041 -29.328   5.440  0.00  0.00    -0.273 OA
ATOM      9  C   LIG    1       25.504 -29.793   7.958  0.00  0.00    +0.033 C 
ENDROOT
BRANCH   4  10
ATOM     10  N   LIG    1       24.002 -26.381   5.877  0.00  0.00    -0.301 N 
ATOM     11  H   LIG    1       23.145 -26.619   6.362  0.00  0.00    +0.149 HD
ATOM     12  C   LIG    1       24.260 -25.036   5.707  0.00  0.00    +0.218 C 
ATOM     13  O   LIG    1       25.088 -24.639   4.893  0.00  0.00    -0.275 OA
BRANCH  12  14
ATOM     14  C   LIG    1       23.437 -24.119   6.604  0.00  0.00    +0.138 C 
BRANCH  14  15
ATOM     15  C   LIG    1       24.278 -22.977   7.086  0.00  0.00    -0.002 A 
ATOM     16  S   LIG    1       23.687 -21.373   6.951  0.00  0.00    -0.101 S 
ATOM     17  C   LIG    1       25.103 -20.723   7.648  0.00  0.00    +0.045 A 
ATOM     18  C   LIG    1       26.005 -21.703   7.997  0.00  0.00    +0.008 A 
ATOM     19  C   LIG    1       25.528 -23.007   7.676  0.00  0.00    +0.012 A 
ENDBRANCH  14  15
ENDBRANCH  12  14
ENDBRANCH   4  10
BRANCH   1  21
ATOM     20  O   LIG    1       26.190 -32.439   5.980  0.00  0.00    -0.244 OA
ATOM     21  C   LIG    1       25.293 -31.676   6.289  0.00  0.00    +0.352 C 
BRANCH  21  22
ATOM     22  OXT LIG    1       24.004 -32.056   6.319  0.00  0.00    -0.476 OA
ATOM     23  HXT LIG    1       23.993 -33.000   6.585  0.00  0.00    +0.295 HD
ENDBRANCH  21  22
ENDBRANCH   1  21
BRANCH   9  24
ATOM     24  C   LIG    1       25.466 -30.677   9.203  0.00  0.00    +0.392 C 
BRANCH  24  25
ATOM     25  N   LIG    1       24.474 -30.361  10.322  0.00  0.00    -0.200 N 
ATOM     26  C   LIG    1       24.974 -29.789  11.451  0.00  0.00    +0.309 A 
ATOM     27  C   LIG    1       24.119 -29.419  12.494  0.00  0.00    +0.070 A 
ATOM     28  C   LIG    1       22.743 -29.562  12.360  0.00  0.00    +0.012 A 
ATOM     29  C   LIG    1       22.248 -30.129  11.215  0.00  0.00    +0.070 A 
ATOM     30  C   LIG    1       23.143 -30.606  10.287  0.00  0.00    +0.309 A 
ENDBRANCH  24  25
ENDBRANCH   9  24
TORSDOF 7
ENDMDL
MODEL 8
REMARK VINA RESULT:      -6.7      7.133     10.163
REMARK  Name = *****
REMARK                            x       y       z     vdW  Elec       q    Type
REMARK                         _______ _______ _______ _____ _____    ______ ____
ROOT
ATOM      1  CA  LIG    1       26.297 -29.538  11.766  0.00  0.00    +0.128 C 
ATOM      2  N   LIG    1       25.731 -29.273  13.007  0.00  0.00    -0.249 N 
ATOM      3  C   LIG    1       24.522 -29.940  13.530  0.00  0.00    +0.169 C 
ATOM      4  CA  LIG    1       23.981 -28.546  13.945  0.00  0.00    +0.191 C 
ATOM      5  S   LIG    1       23.565 -30.885  12.340  0.00  0.00    -0.131 S 
ATOM      6  C   LIG    1       24.058 -29.966  10.925  0.00  0.00    +0.110 C 
ATOM      7  C   LIG    1       25.236 -28.021  13.237  0.00  0.00    +0.244 C 
ATOM      8  O   LIG    1       25.555 -26.944  12.718  0.00  0.00    -0.273 OA
ATOM      9  C   LIG    1       25.529 -29.863  10.692  0.00  0.00    +0.033 C 
ENDROOT
BRANCH   4  10
ATOM     10  N   LIG    1       22.698 -28.063  13.332  0.00  0.00    -0.301 N 
ATOM     11  H   LIG    1       22.518 -28.227  12.350  0.00  0.00    +0.149 HD
ATOM     12  C   LIG    1       21.931 -27.092  13.946  0.00  0.00    +0.218 C 
ATOM     13  O   LIG    1       22.254 -26.605  15.024  0.00  0.00    -0.275 OA
BRANCH  12  14
ATOM     14  C   LIG    1       20.679 -26.698  13.171  0.00  0.00    +0.138 C 
BRANCH  14  15
ATOM     15  C   LIG    1       19.456 -27.190  13.882  0.00  0.00    -0.002 A 
ATOM     16  S   LIG    1       18.113 -26.142  14.083  0.00  0.00    -0.101 S 
ATOM     17  C   LIG    1       17.221 -27.337  14.913  0.00  0.00    +0.045 A 
ATOM     18  C   LIG    1       17.917 -28.520  15.023  0.00  0.00    +0.008 A 
ATOM     19  C   LIG    1       19.208 -28.437  14.423  0.00  0.00    +0.012 A 
ENDBRANCH  14  15
ENDBRANCH  12  14
ENDBRANCH   4  10
BRANCH   1  21
ATOM     20  O   LIG    1       28.663 -30.016  12.001  0.00  0.00    -0.244 OA
ATOM     21  C   LIG    1       27.770 -29.252  11.682  0.00  0.00    +0.352 C 
BRANCH  21  22
ATOM     22  OXT LIG    1       28.014 -28.020  11.204  0.00  0.00    -0.476 OA
ATOM     23  HXT LIG    1       28.695 -28.116  10.505  0.00  0.00    +0.295 HD
ENDBRANCH  21  22
ENDBRANCH   1  21
BRANCH   9  24
ATOM     24  C   LIG    1       26.032 -30.058   9.263  0.00  0.00    +0.392 C 
BRANCH  24  25
ATOM     25  N   LIG    1       25.556 -29.113   8.160  0.00  0.00    -0.200 N 
ATOM     26  C   LIG    1       26.192 -27.915   8.052  0.00  0.00    +0.309 A 
ATOM     27  C   LIG    1       25.849 -27.022   7.031  0.00  0.00    +0.070 A 
ATOM     28  C   LIG    1       24.909 -27.379   6.072  0.00  0.00    +0.012 A 
ATOM     29  C   LIG    1       24.281 -28.592   6.183  0.00  0.00    +0.070 A 
ATOM     30  C   LIG    1       24.553 -29.365   7.287  0.00  0.00    +0.309 A 
ENDBRANCH  24  25
ENDBRANCH   9  24
TORSDOF 7
ENDMDL
MODEL 9
REMARK VINA RESULT:      -6.4      3.724     10.411
REMARK  Name = *****
REMARK                            x       y       z     vdW  Elec       q    Type
REMARK                         _______ _______ _______ _____ _____    ______ ____
ROOT
ATOM      1  CA  LIG    1       24.852 -31.121   7.647  0.00  0.00    +0.128 C 
ATOM      2  N   LIG    1       25.263 -30.285   6.617  0.00  0.00    -0.249 N 
ATOM      3  C   LIG    1       26.086 -29.073   6.806  0.00  0.00    +0.169 C 
ATOM      4  CA  LIG    1       25.103 -28.309   5.879  0.00  0.00    +0.191 C 
ATOM      5  S   LIG    1       26.259 -28.493   8.497  0.00  0.00    -0.131 S 
ATOM      6  C   LIG    1       24.745 -29.166   9.086  0.00  0.00    +0.110 C 
ATOM      7  C   LIG    1       24.305 -29.620   5.905  0.00  0.00    +0.244 C 
ATOM      8  O   LIG    1       23.122 -29.920   5.712  0.00  0.00    -0.273 OA
ATOM      9  C   LIG    1       24.559 -30.633   8.882  0.00  0.00    +0.033 C 
ENDROOT
BRANCH   4  10
ATOM     10  N   LIG    1       24.352 -27.137   6.441  0.00  0.00    -0.301 N 
ATOM     11  H   LIG    1       23.580 -27.293   7.078  0.00  0.00    +0.149 HD
ATOM     12  C   LIG    1       24.419 -25.891   5.849  0.00  0.00    +0.218 C 
ATOM     13  O   LIG    1       25.111 -25.689   4.857  0.00  0.00    -0.275 OA
BRANCH  12  14
ATOM     14  C   LIG    1       23.570 -24.824   6.530  0.00  0.00    +0.138 C 
BRANCH  14  15
ATOM     15  C   LIG    1       24.302 -23.518   6.552  0.00  0.00    -0.002 A 
ATOM     16  S   LIG    1       25.847 -23.426   7.291  0.00  0.00    -0.101 S 
ATOM     17  C   LIG    1       25.990 -21.762   6.936  0.00  0.00    +0.045 A 
ATOM     18  C   LIG    1       24.896 -21.284   6.251  0.00  0.00    +0.008 A 
ATOM     19  C   LIG    1       23.921 -22.299   6.025  0.00  0.00    +0.012 A 
ENDBRANCH  14  15
ENDBRANCH  12  14
ENDBRANCH   4  10
BRANCH   1  21
ATOM     20  O   LIG    1       23.508 -32.996   6.898  0.00  0.00    -0.244 OA
ATOM     21  C   LIG    1       24.588 -32.540   7.227  0.00  0.00    +0.352 C 
BRANCH  21  22
ATOM     22  OXT LIG    1       25.705 -33.287   7.258  0.00  0.00    -0.476 OA
ATOM     23  HXT LIG    1       26.010 -33.303   8.189  0.00  0.00    +0.295 HD
ENDBRANCH  21  22
ENDBRANCH   1  21
BRANCH   9  24
ATOM     24  C   LIG    1       23.990 -31.441  10.047  0.00  0.00    +0.392 C 
BRANCH  24  25
ATOM     25  N   LIG    1       22.478 -31.632  10.165  0.00  0.00    -0.200 N 
ATOM     26  C   LIG    1       21.747 -30.561  10.576  0.00  0.00    +0.309 A 
ATOM     27  C   LIG    1       20.353 -30.644  10.653  0.00  0.00    +0.070 A 
ATOM     28  C   LIG    1       19.693 -31.796  10.238  0.00  0.00    +0.012 A 
ATOM     29  C   LIG    1       20.438 -32.865   9.815  0.00  0.00    +0.070 A 
ATOM     30  C   LIG    1       21.808 -32.778   9.899  0.00  0.00    +0.309 A 
ENDBRANCH  24  25
ENDBRANCH   9  24
TORSDOF 7
ENDMDL
