MODEL 1
REMARK VINA RESULT:      -7.9      0.000      0.000
REMARK  Name = *****
REMARK                            x       y       z     vdW  Elec       q    Type
REMARK                         _______ _______ _______ _____ _____    ______ ____
ROOT
ATOM      1  C   LIG    1       24.073 -22.659   7.295  0.00  0.00    +0.136 A 
ATOM      2  C   LIG    1       25.437 -22.695   7.622  0.00  0.00    +0.101 A 
ATOM      3  C   LIG    1       26.250 -23.730   7.125  0.00  0.00    +0.020 A 
ATOM      4  C   LIG    1       25.695 -24.785   6.410  0.00  0.00    +0.024 A 
ATOM      5  C   LIG    1       24.321 -24.840   6.220  0.00  0.00    +0.028 A 
ATOM      6  C   LIG    1       23.543 -23.725   6.552  0.00  0.00    +0.069 A 
ENDROOT
BRANCH   5   7
ATOM      7  N   LIG    1       23.756 -25.918   5.527  0.00  0.00    -0.358 N 
ATOM      8  H   LIG    1       24.339 -26.222   4.750  0.00  0.00    +0.142 HD
ATOM      9  H   LIG    1       23.528 -26.698   6.137  0.00  0.00    +0.142 HD
ENDBRANCH   5   7
BRANCH   2  10
ATOM     10  C   LIG    1       26.140 -21.760   8.540  0.00  0.00    +0.343 C 
ATOM     11  O   LIG    1       25.617 -21.343   9.556  0.00  0.00    -0.245 OA
BRANCH  10  12
ATOM     12  O   LIG    1       27.432 -21.563   8.185  0.00  0.00    -0.460 OA
BRANCH  12  13
ATOM     13  C   LIG    1       27.679 -20.282   7.578  0.00  0.00    +0.247 C 
BRANCH  13  14
ATOM     14  C   LIG    1       29.180 -19.989   7.421  0.00  0.00    +0.125 C 
BRANCH  14  15
ATOM     15  N   LIG    1       29.878 -19.613   8.669  0.00  0.00    -0.300 NA
BRANCH  15  16
ATOM     16  C   LIG    1       31.178 -20.290   8.800  0.00  0.00    +0.081 C 
ATOM     17  C   LIG    1       31.048 -21.780   9.114  0.00  0.00    +0.020 C 
ENDBRANCH  15  16
BRANCH  15  18
ATOM     18  C   LIG    1       30.024 -18.155   8.863  0.00  0.00    +0.081 C 
ATOM     19  C   LIG    1       30.393 -17.662  10.262  0.00  0.00    +0.020 C 
ENDBRANCH  15  18
ENDBRANCH  14  15
ENDBRANCH  13  14
ENDBRANCH  12  13
ENDBRANCH  10  12
ENDBRANCH   2  10
BRANCH   1  20
ATOM     20  O   LIG    1       23.314 -21.598   7.716  0.00  0.00    -0.491 OA
BRANCH  20  21
ATOM     21  C   LIG    1       23.398 -20.359   7.001  0.00  0.00    +0.229 C 
BRANCH  21  23
ATOM     22  C   LIG    1       22.413 -19.245   4.961  0.00  0.00    +0.007 C 
ATOM     23  C   LIG    1       22.979 -20.528   5.540  0.00  0.00    +0.037 C 
ENDBRANCH  21  23
ENDBRANCH  20  21
ENDBRANCH   1  20
TORSDOF 11
ENDMDL
MODEL 2
REMARK VINA RESULT:      -7.9      0.895      1.728
REMARK  Name = *****
REMARK                            x       y       z     vdW  Elec       q    Type
REMARK                         _______ _______ _______ _____ _____    ______ ____
ROOT
ATOM      1  C   LIG    1       23.853 -23.183   6.827  0.00  0.00    +0.136 A 
ATOM      2  C   LIG    1       25.173 -22.955   7.245  0.00  0.00    +0.101 A 
ATOM      3  C   LIG    1       26.144 -23.958   7.079  0.00  0.00    +0.020 A 
ATOM      4  C   LIG    1       25.787 -25.219   6.615  0.00  0.00    +0.024 A 
ATOM      5  C   LIG    1       24.454 -25.504   6.352  0.00  0.00    +0.028 A 
ATOM      6  C   LIG    1       23.524 -24.457   6.341  0.00  0.00    +0.069 A 
ENDROOT
BRANCH   5   7
ATOM      7  N   LIG    1       24.088 -26.782   5.914  0.00  0.00    -0.358 N 
ATOM      8  H   LIG    1       24.783 -27.189   5.293  0.00  0.00    +0.142 HD
ATOM      9  H   LIG    1       23.875 -27.413   6.682  0.00  0.00    +0.142 HD
ENDBRANCH   5   7
BRANCH   2  10
ATOM     10  C   LIG    1       25.669 -21.741   7.946  0.00  0.00    +0.343 C 
ATOM     11  O   LIG    1       25.522 -21.584   9.143  0.00  0.00    -0.245 OA
BRANCH  10  12
ATOM     12  O   LIG    1       26.402 -20.941   7.134  0.00  0.00    -0.460 OA
BRANCH  12  13
ATOM     13  C   LIG    1       27.519 -20.315   7.790  0.00  0.00    +0.247 C 
BRANCH  13  14
ATOM     14  C   LIG    1       28.819 -21.119   7.628  0.00  0.00    +0.125 C 
BRANCH  14  15
ATOM     15  N   LIG    1       30.050 -20.306   7.534  0.00  0.00    -0.300 NA
BRANCH  15  16
ATOM     16  C   LIG    1       29.757 -18.866   7.457  0.00  0.00    +0.081 C 
ATOM     17  C   LIG    1       30.502 -18.047   8.510  0.00  0.00    +0.020 C 
ENDBRANCH  15  16
BRANCH  15  18
ATOM     18  C   LIG    1       31.039 -20.584   8.597  0.00  0.00    +0.081 C 
ATOM     19  C   LIG    1       31.061 -21.993   9.189  0.00  0.00    +0.020 C 
ENDBRANCH  15  18
ENDBRANCH  14  15
ENDBRANCH  13  14
ENDBRANCH  12  13
ENDBRANCH  10  12
ENDBRANCH   2  10
BRANCH   1  20
ATOM     20  O   LIG    1       22.939 -22.165   6.917  0.00  0.00    -0.491 OA
BRANCH  20  21
ATOM     21  C   LIG    1       22.588 -21.443   5.730  0.00  0.00    +0.229 C 
BRANCH  21  23
ATOM     22  C   LIG    1       22.355 -19.138   4.727  0.00  0.00    +0.007 C 
ATOM     23  C   LIG    1       22.963 -19.965   5.843  0.00  0.00    +0.037 C 
ENDBRANCH  21  23
ENDBRANCH  20  21
ENDBRANCH   1  20
TORSDOF 11
ENDMDL
MODEL 3
REMARK VINA RESULT:      -7.8      1.191      1.944
REMARK  Name = *****
REMARK                            x       y       z     vdW  Elec       q    Type
REMARK                         _______ _______ _______ _____ _____    ______ ____
ROOT
ATOM      1  C   LIG    1       25.191 -21.804   5.966  0.00  0.00    +0.136 A 
ATOM      2  C   LIG    1       25.810 -22.057   7.200  0.00  0.00    +0.101 A 
ATOM      3  C   LIG    1       26.126 -23.378   7.567  0.00  0.00    +0.020 A 
ATOM      4  C   LIG    1       25.725 -24.448   6.776  0.00  0.00    +0.024 A 
ATOM      5  C   LIG    1       24.970 -24.215   5.634  0.00  0.00    +0.028 A 
ATOM      6  C   LIG    1       24.817 -22.901   5.176  0.00  0.00    +0.069 A 
ENDROOT
BRANCH   5   7
ATOM      7  N   LIG    1       24.538 -25.294   4.853  0.00  0.00    -0.358 N 
ATOM      8  H   LIG    1       23.642 -25.111   4.407  0.00  0.00    +0.142 HD
ATOM      9  H   LIG    1       25.232 -25.582   4.168  0.00  0.00    +0.142 HD
ENDBRANCH   5   7
BRANCH   2  10
ATOM     10  C   LIG    1       26.118 -21.047   8.246  0.00  0.00    +0.343 C 
ATOM     11  O   LIG    1       25.247 -20.546   8.931  0.00  0.00    -0.245 OA
BRANCH  10  12
ATOM     12  O   LIG    1       27.451 -20.879   8.424  0.00  0.00    -0.460 OA
BRANCH  12  13
ATOM     13  C   LIG    1       28.082 -20.102   7.390  0.00  0.00    +0.247 C 
BRANCH  13  14
ATOM     14  C   LIG    1       29.490 -20.616   7.051  0.00  0.00    +0.125 C 
BRANCH  14  15
ATOM     15  N   LIG    1       30.600 -19.804   7.596  0.00  0.00    -0.300 NA
BRANCH  15  16
ATOM     16  C   LIG    1       30.207 -18.401   7.804  0.00  0.00    +0.081 C 
ATOM     17  C   LIG    1       30.427 -17.925   9.239  0.00  0.00    +0.020 C 
ENDBRANCH  15  16
BRANCH  15  18
ATOM     18  C   LIG    1       31.214 -20.364   8.818  0.00  0.00    +0.081 C 
ATOM     19  C   LIG    1       31.005 -21.853   9.094  0.00  0.00    +0.020 C 
ENDBRANCH  15  18
ENDBRANCH  14  15
ENDBRANCH  13  14
ENDBRANCH  12  13
ENDBRANCH  10  12
ENDBRANCH   2  10
BRANCH   1  20
ATOM     20  O   LIG    1       24.968 -20.506   5.586  0.00  0.00    -0.491 OA
BRANCH  20  21
ATOM     21  C   LIG    1       23.967 -20.238   4.595  0.00  0.00    +0.229 C 
BRANCH  21  23
ATOM     22  C   LIG    1       22.179 -18.457   4.545  0.00  0.00    +0.007 C 
ATOM     23  C   LIG    1       22.679 -19.714   5.230  0.00  0.00    +0.037 C 
ENDBRANCH  21  23
ENDBRANCH  20  21
ENDBRANCH   1  20
TORSDOF 11
ENDMDL
MODEL 4
REMARK VINA RESULT:      -7.1      1.539      3.322
REMARK  Name = *****
REMARK                            x       y       z     vdW  Elec       q    Type
REMARK                         _______ _______ _______ _____ _____    ______ ____
ROOT
ATOM      1  C   LIG    1       24.360 -22.762   6.884  0.00  0.00    +0.136 A 
ATOM      2  C   LIG    1       24.753 -21.561   7.494  0.00  0.00    +0.101 A 
ATOM      3  C   LIG    1       24.000 -20.392   7.287  0.00  0.00    +0.020 A 
ATOM      4  C   LIG    1       22.940 -20.382   6.388  0.00  0.00    +0.024 A 
ATOM      5  C   LIG    1       22.645 -21.525   5.658  0.00  0.00    +0.028 A 
ATOM      6  C   LIG    1       23.272 -22.730   5.998  0.00  0.00    +0.069 A 
ENDROOT
BRANCH   5   7
ATOM      7  N   LIG    1       21.597 -21.509   4.730  0.00  0.00    -0.358 N 
ATOM      8  H   LIG    1       20.943 -20.750   4.903  0.00  0.00    +0.142 HD
ATOM      9  H   LIG    1       21.927 -21.491   3.768  0.00  0.00    +0.142 HD
ENDBRANCH   5   7
BRANCH   2  10
ATOM     10  C   LIG    1       25.975 -21.358   8.316  0.00  0.00    +0.343 C 
ATOM     11  O   LIG    1       25.917 -21.143   9.511  0.00  0.00    -0.245 OA
BRANCH  10  12
ATOM     12  O   LIG    1       27.111 -21.583   7.613  0.00  0.00    -0.460 OA
BRANCH  12  13
ATOM     13  C   LIG    1       27.764 -20.382   7.165  0.00  0.00    +0.247 C 
BRANCH  13  14
ATOM     14  C   LIG    1       29.296 -20.485   7.244  0.00  0.00    +0.125 C 
BRANCH  14  15
ATOM     15  N   LIG    1       29.906 -19.858   8.436  0.00  0.00    -0.300 NA
BRANCH  15  16
ATOM     16  C   LIG    1       31.193 -20.477   8.788  0.00  0.00    +0.081 C 
ATOM     17  C   LIG    1       31.063 -21.949   9.177  0.00  0.00    +0.020 C 
ENDBRANCH  15  16
BRANCH  15  18
ATOM     18  C   LIG    1       30.037 -18.389   8.344  0.00  0.00    +0.081 C 
ATOM     19  C   LIG    1       30.218 -17.614   9.649  0.00  0.00    +0.020 C 
ENDBRANCH  15  18
ENDBRANCH  14  15
ENDBRANCH  13  14
ENDBRANCH  12  13
ENDBRANCH  10  12
ENDBRANCH   2  10
BRANCH   1  20
ATOM     20  O   LIG    1       25.054 -23.911   7.164  0.00  0.00    -0.491 OA
BRANCH  20  21
ATOM     21  C   LIG    1       24.678 -25.126   6.501  0.00  0.00    +0.229 C 
BRANCH  21  23
ATOM     22  C   LIG    1       26.098 -26.755   5.196  0.00  0.00    +0.007 C 
ATOM     23  C   LIG    1       25.798 -26.164   6.561  0.00  0.00    +0.037 C 
ENDBRANCH  21  23
ENDBRANCH  20  21
ENDBRANCH   1  20
TORSDOF 11
ENDMDL
MODEL 5
REMARK VINA RESULT:      -7.1      2.220      6.281
REMARK  Name = *****
REMARK                            x       y       z     vdW  Elec       q    Type
REMARK                         _______ _______ _______ _____ _____    ______ ____
ROOT
ATOM      1  C   LIG    1       25.882 -20.699   5.735  0.00  0.00    +0.136 A 
ATOM      2  C   LIG    1       25.719 -21.216   7.029  0.00  0.00    +0.101 A 
ATOM      3  C   LIG    1       26.666 -20.920   8.026  0.00  0.00    +0.020 A 
ATOM      4  C   LIG    1       27.826 -20.219   7.715  0.00  0.00    +0.024 A 
ATOM      5  C   LIG    1       28.072 -19.843   6.401  0.00  0.00    +0.028 A 
ATOM      6  C   LIG    1       27.051 -19.975   5.453  0.00  0.00    +0.069 A 
ENDROOT
BRANCH   5   7
ATOM      7  N   LIG    1       29.254 -19.164   6.081  0.00  0.00    -0.358 N 
ATOM      8  H   LIG    1       29.878 -19.729   5.510  0.00  0.00    +0.142 HD
ATOM      9  H   LIG    1       29.080 -18.262   5.646  0.00  0.00    +0.142 HD
ENDBRANCH   5   7
BRANCH   2  10
ATOM     10  C   LIG    1       24.647 -22.147   7.469  0.00  0.00    +0.343 C 
ATOM     11  O   LIG    1       23.525 -21.757   7.730  0.00  0.00    -0.245 OA
BRANCH  10  12
ATOM     12  O   LIG    1       25.031 -23.445   7.399  0.00  0.00    -0.460 OA
BRANCH  12  13
ATOM     13  C   LIG    1       24.781 -24.057   6.121  0.00  0.00    +0.247 C 
BRANCH  13  14
ATOM     14  C   LIG    1       24.045 -25.400   6.251  0.00  0.00    +0.125 C 
BRANCH  14  15
ATOM     15  N   LIG    1       24.910 -26.562   6.545  0.00  0.00    -0.300 NA
BRANCH  15  16
ATOM     16  C   LIG    1       24.315 -27.825   6.079  0.00  0.00    +0.081 C 
ATOM     17  C   LIG    1       24.474 -28.967   7.082  0.00  0.00    +0.020 C 
ENDBRANCH  15  16
BRANCH  15  18
ATOM     18  C   LIG    1       26.296 -26.423   6.054  0.00  0.00    +0.081 C 
ATOM     19  C   LIG    1       26.667 -27.159   4.767  0.00  0.00    +0.020 C 
ENDBRANCH  15  18
ENDBRANCH  14  15
ENDBRANCH  13  14
ENDBRANCH  12  13
ENDBRANCH  10  12
ENDBRANCH   2  10
BRANCH   1  20
ATOM     20  O   LIG    1       24.907 -20.926   4.798  0.00  0.00    -0.491 OA
BRANCH  20  21
ATOM     21  C   LIG    1       24.195 -19.806   4.254  0.00  0.00    +0.229 C 
BRANCH  21  23
ATOM     22  C   LIG    1       22.154 -18.343   4.505  0.00  0.00    +0.007 C 
ATOM     23  C   LIG    1       22.831 -19.635   4.921  0.00  0.00    +0.037 C 
ENDBRANCH  21  23
ENDBRANCH  20  21
ENDBRANCH   1  20
TORSDOF 11
ENDMDL
MODEL 6
REMARK VINA RESULT:      -6.9      1.853      6.001
REMARK  Name = *****
REMARK                            x       y       z     vdW  Elec       q    Type
REMARK                         _______ _______ _______ _____ _____    ______ ____
ROOT
ATOM      1  C   LIG    1       26.650 -20.205   5.938  0.00  0.00    +0.136 A 
ATOM      2  C   LIG    1       26.619 -20.516   7.306  0.00  0.00    +0.101 A 
ATOM      3  C   LIG    1       27.705 -20.167   8.128  0.00  0.00    +0.020 A 
ATOM      4  C   LIG    1       28.862 -19.624   7.581  0.00  0.00    +0.024 A 
ATOM      5  C   LIG    1       28.963 -19.462   6.206  0.00  0.00    +0.028 A 
ATOM      6  C   LIG    1       27.821 -19.636   5.415  0.00  0.00    +0.069 A 
ENDROOT
BRANCH   5   7
ATOM      7  N   LIG    1       30.139 -18.945   5.650  0.00  0.00    -0.358 N 
ATOM      8  H   LIG    1       30.616 -19.623   5.061  0.00  0.00    +0.142 HD
ATOM      9  H   LIG    1       29.984 -18.074   5.148  0.00  0.00    +0.142 HD
ENDBRANCH   5   7
BRANCH   2  10
ATOM     10  C   LIG    1       25.549 -21.275   8.005  0.00  0.00    +0.343 C 
ATOM     11  O   LIG    1       24.463 -20.782   8.243  0.00  0.00    -0.245 OA
BRANCH  10  12
ATOM     12  O   LIG    1       25.880 -22.574   8.198  0.00  0.00    -0.460 OA
BRANCH  12  13
ATOM     13  C   LIG    1       26.218 -23.274   6.987  0.00  0.00    +0.247 C 
BRANCH  13  14
ATOM     14  C   LIG    1       25.633 -24.695   6.951  0.00  0.00    +0.125 C 
BRANCH  14  15
ATOM     15  N   LIG    1       24.474 -24.872   6.049  0.00  0.00    -0.300 NA
BRANCH  15  16
ATOM     16  C   LIG    1       24.433 -26.221   5.462  0.00  0.00    +0.081 C 
ATOM     17  C   LIG    1       25.748 -26.624   4.796  0.00  0.00    +0.020 C 
ENDBRANCH  15  16
BRANCH  15  18
ATOM     18  C   LIG    1       23.175 -24.526   6.661  0.00  0.00    +0.081 C 
ATOM     19  C   LIG    1       22.719 -23.070   6.574  0.00  0.00    +0.020 C 
ENDBRANCH  15  18
ENDBRANCH  14  15
ENDBRANCH  13  14
ENDBRANCH  12  13
ENDBRANCH  10  12
ENDBRANCH   2  10
BRANCH   1  20
ATOM     20  O   LIG    1       25.549 -20.475   5.167  0.00  0.00    -0.491 OA
BRANCH  20  21
ATOM     21  C   LIG    1       25.315 -19.685   3.994  0.00  0.00    +0.229 C 
BRANCH  21  23
ATOM     22  C   LIG    1       23.043 -19.709   5.095  0.00  0.00    +0.007 C 
ATOM     23  C   LIG    1       23.860 -19.223   3.913  0.00  0.00    +0.037 C 
ENDBRANCH  21  23
ENDBRANCH  20  21
ENDBRANCH   1  20
TORSDOF 11
ENDMDL
MODEL 7
REMARK VINA RESULT:      -6.9      2.543      6.724
REMARK  Name = *****
REMARK                            x       y       z     vdW  Elec       q    Type
REMARK                         _______ _______ _______ _____ _____    ______ ____
ROOT
ATOM      1  C   LIG    1       25.578 -20.816   5.878  0.00  0.00    +0.136 A 
ATOM      2  C   LIG    1       24.215 -21.149   5.847  0.00  0.00    +0.101 A 
ATOM      3  C   LIG    1       23.404 -20.682   4.798  0.00  0.00    +0.020 A 
ATOM      4  C   LIG    1       23.908 -19.795   3.854  0.00  0.00    +0.024 A 
ATOM      5  C   LIG    1       25.212 -19.333   3.970  0.00  0.00    +0.028 A 
ATOM      6  C   LIG    1       26.067 -19.937   4.900  0.00  0.00    +0.069 A 
ENDROOT
BRANCH   5   7
ATOM      7  N   LIG    1       25.712 -18.416   3.038  0.00  0.00    -0.358 N 
ATOM      8  H   LIG    1       25.224 -17.525   3.077  0.00  0.00    +0.142 HD
ATOM      9  H   LIG    1       26.717 -18.283   3.122  0.00  0.00    +0.142 HD
ENDBRANCH   5   7
BRANCH   2  10
ATOM     10  C   LIG    1       23.480 -21.916   6.887  0.00  0.00    +0.343 C 
ATOM     11  O   LIG    1       23.111 -21.400   7.925  0.00  0.00    -0.245 OA
BRANCH  10  12
ATOM     12  O   LIG    1       23.161 -23.167   6.477  0.00  0.00    -0.460 OA
BRANCH  12  13
ATOM     13  C   LIG    1       24.160 -24.154   6.792  0.00  0.00    +0.247 C 
BRANCH  13  14
ATOM     14  C   LIG    1       23.916 -25.485   6.064  0.00  0.00    +0.125 C 
BRANCH  14  15
ATOM     15  N   LIG    1       24.855 -26.572   6.416  0.00  0.00    -0.300 NA
BRANCH  15  16
ATOM     16  C   LIG    1       24.386 -27.883   5.938  0.00  0.00    +0.081 C 
ATOM     17  C   LIG    1       24.423 -28.962   7.018  0.00  0.00    +0.020 C 
ENDBRANCH  15  16
BRANCH  15  18
ATOM     18  C   LIG    1       26.248 -26.326   5.992  0.00  0.00    +0.081 C 
ATOM     19  C   LIG    1       26.812 -27.206   4.876  0.00  0.00    +0.020 C 
ENDBRANCH  15  18
ENDBRANCH  14  15
ENDBRANCH  13  14
ENDBRANCH  12  13
ENDBRANCH  10  12
ENDBRANCH   2  10
BRANCH   1  20
ATOM     20  O   LIG    1       26.373 -21.349   6.860  0.00  0.00    -0.491 OA
BRANCH  20  21
ATOM     21  C   LIG    1       26.774 -20.515   7.954  0.00  0.00    +0.229 C 
BRANCH  21  23
ATOM     22  C   LIG    1       29.096 -21.102   7.159  0.00  0.00    +0.007 C 
ATOM     23  C   LIG    1       28.219 -20.041   7.795  0.00  0.00    +0.037 C 
ENDBRANCH  21  23
ENDBRANCH  20  21
ENDBRANCH   1  20
TORSDOF 11
ENDMDL
MODEL 8
REMARK VINA RESULT:      -6.7      2.271      6.763
REMARK  Name = *****
REMARK                            x       y       z     vdW  Elec       q    Type
REMARK                         _______ _______ _______ _____ _____    ______ ____
ROOT
ATOM      1  C   LIG    1       28.837 -21.013   7.279  0.00  0.00    +0.136 A 
ATOM      2  C   LIG    1       28.955 -19.915   6.413  0.00  0.00    +0.101 A 
ATOM      3  C   LIG    1       30.129 -19.142   6.418  0.00  0.00    +0.020 A 
ATOM      4  C   LIG    1       31.129 -19.379   7.353  0.00  0.00    +0.024 A 
ATOM      5  C   LIG    1       30.951 -20.361   8.318  0.00  0.00    +0.028 A 
ATOM      6  C   LIG    1       29.872 -21.245   8.198  0.00  0.00    +0.069 A 
ENDROOT
BRANCH   5   7
ATOM      7  N   LIG    1       31.944 -20.581   9.281  0.00  0.00    -0.358 N 
ATOM      8  H   LIG    1       32.365 -19.713   9.603  0.00  0.00    +0.142 HD
ATOM      9  H   LIG    1       31.612 -21.136  10.065  0.00  0.00    +0.142 HD
ENDBRANCH   5   7
BRANCH   2  10
ATOM     10  C   LIG    1       27.897 -19.406   5.500  0.00  0.00    +0.343 C 
ATOM     11  O   LIG    1       28.102 -18.489   4.728  0.00  0.00    -0.245 OA
BRANCH  10  12
ATOM     12  O   LIG    1       26.775 -20.164   5.538  0.00  0.00    -0.460 OA
BRANCH  12  13
ATOM     13  C   LIG    1       25.876 -19.926   4.440  0.00  0.00    +0.247 C 
BRANCH  13  14
ATOM     14  C   LIG    1       24.738 -20.958   4.383  0.00  0.00    +0.125 C 
BRANCH  14  15
ATOM     15  N   LIG    1       23.387 -20.390   4.188  0.00  0.00    -0.300 NA
BRANCH  15  16
ATOM     16  C   LIG    1       22.479 -20.736   5.294  0.00  0.00    +0.081 C 
ATOM     17  C   LIG    1       23.170 -20.743   6.656  0.00  0.00    +0.020 C 
ENDBRANCH  15  16
BRANCH  15  18
ATOM     18  C   LIG    1       23.375 -18.935   3.935  0.00  0.00    +0.081 C 
ATOM     19  C   LIG    1       22.132 -18.154   4.362  0.00  0.00    +0.020 C 
ENDBRANCH  15  18
ENDBRANCH  14  15
ENDBRANCH  13  14
ENDBRANCH  12  13
ENDBRANCH  10  12
ENDBRANCH   2  10
BRANCH   1  20
ATOM     20  O   LIG    1       27.722 -21.807   7.202  0.00  0.00    -0.491 OA
BRANCH  20  21
ATOM     21  C   LIG    1       26.797 -21.808   8.297  0.00  0.00    +0.229 C 
BRANCH  21  23
ATOM     22  C   LIG    1       25.926 -23.699   6.870  0.00  0.00    +0.007 C 
ATOM     23  C   LIG    1       25.666 -22.811   8.071  0.00  0.00    +0.037 C 
ENDBRANCH  21  23
ENDBRANCH  20  21
ENDBRANCH   1  20
TORSDOF 11
ENDMDL
MODEL 9
REMARK VINA RESULT:      -6.5      2.281      3.028
REMARK  Name = *****
REMARK                            x       y       z     vdW  Elec       q    Type
REMARK                         _______ _______ _______ _____ _____    ______ ____
ROOT
ATOM      1  C   LIG    1       25.000 -20.707   5.842  0.00  0.00    +0.136 A 
ATOM      2  C   LIG    1       25.243 -21.340   7.071  0.00  0.00    +0.101 A 
ATOM      3  C   LIG    1       24.302 -22.247   7.589  0.00  0.00    +0.020 A 
ATOM      4  C   LIG    1       23.078 -22.437   6.958  0.00  0.00    +0.024 A 
ATOM      5  C   LIG    1       22.764 -21.694   5.828  0.00  0.00    +0.028 A 
ATOM      6  C   LIG    1       23.766 -20.933   5.213  0.00  0.00    +0.069 A 
ENDROOT
BRANCH   5   7
ATOM      7  N   LIG    1       21.520 -21.860   5.208  0.00  0.00    -0.358 N 
ATOM      8  H   LIG    1       21.607 -22.010   4.205  0.00  0.00    +0.142 HD
ATOM      9  H   LIG    1       20.965 -22.596   5.637  0.00  0.00    +0.142 HD
ENDBRANCH   5   7
BRANCH   2  10
ATOM     10  C   LIG    1       26.403 -21.091   7.967  0.00  0.00    +0.343 C 
ATOM     11  O   LIG    1       26.355 -20.276   8.868  0.00  0.00    -0.245 OA
BRANCH  10  12
ATOM     12  O   LIG    1       27.419 -21.959   7.746  0.00  0.00    -0.460 OA
BRANCH  12  13
ATOM     13  C   LIG    1       28.551 -21.371   7.079  0.00  0.00    +0.247 C 
BRANCH  13  14
ATOM     14  C   LIG    1       29.660 -20.961   8.060  0.00  0.00    +0.125 C 
BRANCH  14  15
ATOM     15  N   LIG    1       30.169 -19.583   7.888  0.00  0.00    -0.300 NA
BRANCH  15  16
ATOM     16  C   LIG    1       31.326 -19.310   8.757  0.00  0.00    +0.081 C 
ATOM     17  C   LIG    1       31.626 -17.819   8.902  0.00  0.00    +0.020 C 
ENDBRANCH  15  16
BRANCH  15  18
ATOM     18  C   LIG    1       30.469 -19.221   6.487  0.00  0.00    +0.081 C 
ATOM     19  C   LIG    1       29.439 -18.372   5.742  0.00  0.00    +0.020 C 
ENDBRANCH  15  18
ENDBRANCH  14  15
ENDBRANCH  13  14
ENDBRANCH  12  13
ENDBRANCH  10  12
ENDBRANCH   2  10
BRANCH   1  20
ATOM     20  O   LIG    1       25.965 -19.891   5.309  0.00  0.00    -0.491 OA
BRANCH  20  21
ATOM     21  C   LIG    1       25.983 -19.675   3.892  0.00  0.00    +0.229 C 
BRANCH  21  23
ATOM     22  C   LIG    1       26.183 -17.229   3.303  0.00  0.00    +0.007 C 
ATOM     23  C   LIG    1       25.237 -18.396   3.512  0.00  0.00    +0.037 C 
ENDBRANCH  21  23
ENDBRANCH  20  21
ENDBRANCH   1  20
TORSDOF 11
ENDMDL
