MODEL 1
REMARK VINA RESULT:      -4.4      0.000      0.000
REMARK  Name = *****
REMARK                            x       y       z     vdW  Elec       q    Type
REMARK                         _______ _______ _______ _____ _____    ______ ____
ROOT
ATOM      1  C   LIG    1       25.656 -18.332   4.186  0.00  0.00    -0.003 C 
ENDROOT
BRANCH   1   2
ATOM      2  C   LIG    1       26.746 -19.437   4.529  0.00  0.00    -0.008 C 
ATOM      3  C   LIG    1       28.214 -18.988   4.453  0.00  0.00    +0.004 C 
ATOM      4  C   LIG    1       28.746 -18.452   5.766  0.00  0.00    +0.000 C 
ATOM      5  C   LIG    1       28.731 -19.543   6.822  0.00  0.00    +0.000 C 
ATOM      6  C   LIG    1       27.360 -20.172   7.017  0.00  0.00    +0.000 C 
ATOM      7  C   LIG    1       26.525 -20.380   5.741  0.00  0.00    +0.004 C 
ENDBRANCH   1   2
BRANCH   1   8
ATOM      8  C   LIG    1       24.430 -18.958   3.358  0.00  0.00    -0.008 C 
ATOM      9  C   LIG    1       24.323 -20.502   3.329  0.00  0.00    +0.004 C 
ATOM     10  C   LIG    1       23.791 -21.105   4.625  0.00  0.00    +0.000 C 
ATOM     11  C   LIG    1       22.444 -20.505   5.008  0.00  0.00    +0.000 C 
ATOM     12  C   LIG    1       22.506 -18.983   5.057  0.00  0.00    +0.000 C 
ATOM     13  C   LIG    1       23.031 -18.412   3.743  0.00  0.00    +0.004 C 
ENDBRANCH   1   8
BRANCH   1  14
ATOM     14  C   LIG    1       26.123 -17.052   3.416  0.00  0.00    +0.022 C 
BRANCH  14  15
ATOM     15  C   LIG    1       26.317 -15.715   4.149  0.00  0.00    +0.054 C 
ATOM     16  N   LIG    1       27.467 -14.962   3.604  0.00  0.00    -0.313 NA
ATOM     17  H   LIG    1       27.737 -14.256   4.285  0.00  0.00    +0.122 HD
ATOM     18  C   LIG    1       27.177 -14.292   2.336  0.00  0.00    +0.081 C 
ATOM     19  C   LIG    1       25.981 -13.353   2.443  0.00  0.00    +0.015 C 
ATOM     20  C   LIG    1       24.755 -14.092   2.954  0.00  0.00    +0.003 C 
ATOM     21  C   LIG    1       25.075 -14.821   4.257  0.00  0.00    +0.019 C 
ENDBRANCH  14  15
ENDBRANCH   1  14
TORSDOF 4
ENDMDL
MODEL 2
REMARK VINA RESULT:      -1.7      1.883      4.527
REMARK  Name = *****
REMARK                            x       y       z     vdW  Elec       q    Type
REMARK                         _______ _______ _______ _____ _____    ______ ____
ROOT
ATOM      1  C   LIG    1       24.806 -16.005   3.891  0.00  0.00    -0.003 C 
ENDROOT
BRANCH   1   2
ATOM      2  C   LIG    1       24.374 -17.446   3.378  0.00  0.00    -0.008 C 
ATOM      3  C   LIG    1       25.501 -18.481   3.238  0.00  0.00    +0.004 C 
ATOM      4  C   LIG    1       25.722 -19.300   4.493  0.00  0.00    +0.000 C 
ATOM      5  C   LIG    1       24.484 -20.118   4.811  0.00  0.00    +0.000 C 
ATOM      6  C   LIG    1       23.223 -19.276   4.936  0.00  0.00    +0.000 C 
ATOM      7  C   LIG    1       23.091 -18.108   3.944  0.00  0.00    +0.004 C 
ENDBRANCH   1   2
BRANCH   1   8
ATOM      8  C   LIG    1       23.526 -15.077   4.175  0.00  0.00    -0.008 C 
ATOM      9  C   LIG    1       23.594 -14.154   5.416  0.00  0.00    +0.004 C 
ATOM     10  C   LIG    1       24.476 -12.926   5.221  0.00  0.00    +0.000 C 
ATOM     11  C   LIG    1       24.044 -12.116   4.005  0.00  0.00    +0.000 C 
ATOM     12  C   LIG    1       23.972 -12.985   2.755  0.00  0.00    +0.000 C 
ATOM     13  C   LIG    1       23.074 -14.199   2.980  0.00  0.00    +0.004 C 
ENDBRANCH   1   8
BRANCH   1  14
ATOM     14  C   LIG    1       25.788 -15.170   3.003  0.00  0.00    +0.022 C 
BRANCH  14  15
ATOM     15  C   LIG    1       27.286 -15.097   3.335  0.00  0.00    +0.054 C 
ATOM     16  N   LIG    1       27.945 -13.981   2.621  0.00  0.00    -0.313 NA
ATOM     17  H   LIG    1       28.949 -14.145   2.630  0.00  0.00    +0.122 HD
ATOM     18  C   LIG    1       27.687 -12.672   3.223  0.00  0.00    +0.081 C 
ATOM     19  C   LIG    1       28.094 -12.625   4.692  0.00  0.00    +0.015 C 
ATOM     20  C   LIG    1       27.405 -13.725   5.482  0.00  0.00    +0.003 C 
ATOM     21  C   LIG    1       27.645 -15.084   4.827  0.00  0.00    +0.019 C 
ENDBRANCH  14  15
ENDBRANCH   1  14
TORSDOF 4
ENDMDL
MODEL 3
REMARK VINA RESULT:      -1.6      1.906      5.241
REMARK  Name = *****
REMARK                            x       y       z     vdW  Elec       q    Type
REMARK                         _______ _______ _______ _____ _____    ______ ____
ROOT
ATOM      1  C   LIG    1       25.505 -18.224   4.202  0.00  0.00    -0.003 C 
ENDROOT
BRANCH   1   2
ATOM      2  C   LIG    1       26.169 -17.034   3.385  0.00  0.00    -0.008 C 
ATOM      3  C   LIG    1       25.234 -15.881   2.987  0.00  0.00    +0.004 C 
ATOM      4  C   LIG    1       25.177 -14.772   4.018  0.00  0.00    +0.000 C 
ATOM      5  C   LIG    1       26.543 -14.127   4.170  0.00  0.00    +0.000 C 
ATOM      6  C   LIG    1       27.643 -15.121   4.512  0.00  0.00    +0.000 C 
ATOM      7  C   LIG    1       27.556 -16.490   3.815  0.00  0.00    +0.004 C 
ENDBRANCH   1   2
BRANCH   1   8
ATOM      8  C   LIG    1       26.419 -19.545   4.159  0.00  0.00    -0.008 C 
ATOM      9  C   LIG    1       27.768 -19.485   4.915  0.00  0.00    +0.004 C 
ATOM     10  C   LIG    1       27.628 -19.597   6.429  0.00  0.00    +0.000 C 
ATOM     11  C   LIG    1       26.874 -20.860   6.829  0.00  0.00    +0.000 C 
ATOM     12  C   LIG    1       25.532 -20.955   6.112  0.00  0.00    +0.000 C 
ATOM     13  C   LIG    1       25.708 -20.850   4.599  0.00  0.00    +0.004 C 
ENDBRANCH   1   8
BRANCH   1  14
ATOM     14  C   LIG    1       24.052 -18.661   3.818  0.00  0.00    +0.022 C 
BRANCH  14  15
ATOM     15  C   LIG    1       22.908 -18.591   4.842  0.00  0.00    +0.054 C 
ATOM     16  N   LIG    1       21.656 -18.104   4.222  0.00  0.00    -0.313 NA
ATOM     17  H   LIG    1       21.032 -17.796   4.964  0.00  0.00    +0.122 HD
ATOM     18  C   LIG    1       20.964 -19.121   3.431  0.00  0.00    +0.081 C 
ATOM     19  C   LIG    1       20.654 -20.372   4.246  0.00  0.00    +0.015 C 
ATOM     20  C   LIG    1       21.919 -20.942   4.866  0.00  0.00    +0.003 C 
ATOM     21  C   LIG    1       22.658 -19.866   5.659  0.00  0.00    +0.019 C 
ENDBRANCH  14  15
ENDBRANCH   1  14
TORSDOF 4
ENDMDL
