MODEL 1
REMARK VINA RESULT:      -9.2      0.000      0.000
REMARK  Name = *****
REMARK                            x       y       z     vdW  Elec       q    Type
REMARK                         _______ _______ _______ _____ _____    ______ ____
ROOT
ATOM      1  O   LIG    1       27.339 -19.827   6.248  0.00  0.00    -0.226 OA
ATOM      2  C   LIG    1       26.948 -20.983   6.400  0.00  0.00    +0.413 C 
ATOM      3  N   LIG    1       25.663 -21.450   6.047  0.00  0.00    -0.188 N 
ATOM      4  C   LIG    1       25.258 -22.814   6.291  0.00  0.00    +0.148 A 
ATOM      5  C   LIG    1       23.912 -23.187   6.383  0.00  0.00    +0.053 A 
ATOM      6  C   LIG    1       23.584 -24.538   6.580  0.00  0.00    +0.020 A 
ATOM      7  C   LIG    1       24.585 -25.491   6.687  0.00  0.00    +0.021 A 
ATOM      8  C   LIG    1       25.887 -25.055   6.595  0.00  0.00    +0.113 A 
ATOM      9  S   LIG    1       22.572 -22.036   6.345  0.00  0.00    -0.084 S 
ATOM     10  C   LIG    1       23.342 -20.766   5.381  0.00  0.00    +0.035 A 
ATOM     11  C   LIG    1       22.479 -19.906   4.675  0.00  0.00    +0.017 A 
ATOM     12  C   LIG    1       22.980 -18.869   3.896  0.00  0.00    +0.001 A 
ATOM     13  C   LIG    1       24.351 -18.689   3.815  0.00  0.00    +0.002 A 
ATOM     14  C   LIG    1       25.211 -19.537   4.520  0.00  0.00    +0.025 A 
ATOM     15  N   LIG    1       26.227 -23.763   6.393  0.00  0.00    -0.238 NA
ATOM     16  C   LIG    1       24.735 -20.588   5.337  0.00  0.00    +0.060 A 
ENDROOT
BRANCH   2  17
ATOM     17  O   LIG    1       27.770 -21.906   6.987  0.00  0.00    -0.448 OA
BRANCH  17  18
ATOM     18  C   LIG    1       28.370 -21.526   8.237  0.00  0.00    +0.262 C 
BRANCH  18  19
ATOM     19  C   LIG    1       29.853 -21.223   8.049  0.00  0.00    +0.201 C 
BRANCH  19  20
ATOM     20  O   LIG    1       30.210 -20.013   8.719  0.00  0.00    -0.375 OA
BRANCH  20  21
ATOM     21  C   LIG    1       30.848 -19.113   7.804  0.00  0.00    +0.175 C 
BRANCH  21  22
ATOM     22  C   LIG    1       31.943 -18.314   8.527  0.00  0.00    +0.112 C 
BRANCH  22  23
ATOM     23  N   LIG    1       31.556 -16.933   8.880  0.00  0.00    -0.300 NA
ATOM     24  C   LIG    1       30.329 -16.834   9.686  0.00  0.00    +0.084 C 
ATOM     25  C   LIG    1       30.485 -17.385  11.102  0.00  0.00    +0.015 C 
ATOM     26  C   LIG    1       31.634 -16.693  11.829  0.00  0.00    +0.002 C 
ATOM     27  C   LIG    1       32.911 -16.698  10.992  0.00  0.00    +0.015 C 
ATOM     28  C   LIG    1       32.655 -16.224   9.557  0.00  0.00    +0.084 C 
ENDBRANCH  22  23
ENDBRANCH  21  22
ENDBRANCH  20  21
ENDBRANCH  19  20
ENDBRANCH  18  19
ENDBRANCH  17  18
ENDBRANCH   2  17
TORSDOF 7
ENDMDL
MODEL 2
REMARK VINA RESULT:      -8.2      3.498      8.830
REMARK  Name = *****
REMARK                            x       y       z     vdW  Elec       q    Type
REMARK                         _______ _______ _______ _____ _____    ______ ____
ROOT
ATOM      1  O   LIG    1       23.755 -23.743   6.187  0.00  0.00    -0.226 OA
ATOM      2  C   LIG    1       24.838 -23.232   6.466  0.00  0.00    +0.413 C 
ATOM      3  N   LIG    1       25.224 -21.921   6.110  0.00  0.00    -0.188 N 
ATOM      4  C   LIG    1       26.528 -21.398   6.438  0.00  0.00    +0.148 A 
ATOM      5  C   LIG    1       27.102 -20.329   5.739  0.00  0.00    +0.053 A 
ATOM      6  C   LIG    1       28.357 -19.841   6.136  0.00  0.00    +0.020 A 
ATOM      7  C   LIG    1       29.023 -20.417   7.206  0.00  0.00    +0.021 A 
ATOM      8  C   LIG    1       28.408 -21.469   7.843  0.00  0.00    +0.113 A 
ATOM      9  S   LIG    1       26.369 -19.587   4.313  0.00  0.00    -0.084 S 
ATOM     10  C   LIG    1       24.671 -19.937   4.675  0.00  0.00    +0.035 A 
ATOM     11  C   LIG    1       23.718 -19.087   4.083  0.00  0.00    +0.017 A 
ATOM     12  C   LIG    1       22.357 -19.281   4.295  0.00  0.00    +0.001 A 
ATOM     13  C   LIG    1       21.942 -20.324   5.105  0.00  0.00    +0.002 A 
ATOM     14  C   LIG    1       22.887 -21.175   5.689  0.00  0.00    +0.025 A 
ATOM     15  N   LIG    1       27.195 -21.949   7.489  0.00  0.00    -0.238 NA
ATOM     16  C   LIG    1       24.276 -21.020   5.479  0.00  0.00    +0.060 A 
ENDROOT
BRANCH   2  17
ATOM     17  O   LIG    1       25.783 -23.964   7.134  0.00  0.00    -0.448 OA
BRANCH  17  18
ATOM     18  C   LIG    1       25.649 -25.392   7.067  0.00  0.00    +0.262 C 
BRANCH  18  19
ATOM     19  C   LIG    1       26.312 -25.934   5.804  0.00  0.00    +0.201 C 
BRANCH  19  20
ATOM     20  O   LIG    1       25.351 -26.578   4.965  0.00  0.00    -0.375 OA
BRANCH  20  21
ATOM     21  C   LIG    1       24.459 -27.372   5.757  0.00  0.00    +0.175 C 
BRANCH  21  22
ATOM     22  C   LIG    1       24.852 -28.853   5.669  0.00  0.00    +0.112 C 
BRANCH  22  23
ATOM     23  N   LIG    1       23.991 -29.760   6.455  0.00  0.00    -0.300 NA
ATOM     24  C   LIG    1       24.048 -31.169   6.032  0.00  0.00    +0.084 C 
ATOM     25  C   LIG    1       25.391 -31.837   6.323  0.00  0.00    +0.015 C 
ATOM     26  C   LIG    1       25.739 -31.731   7.804  0.00  0.00    +0.002 C 
ATOM     27  C   LIG    1       25.612 -30.295   8.309  0.00  0.00    +0.015 C 
ATOM     28  C   LIG    1       24.279 -29.660   7.895  0.00  0.00    +0.084 C 
ENDBRANCH  22  23
ENDBRANCH  21  22
ENDBRANCH  20  21
ENDBRANCH  19  20
ENDBRANCH  18  19
ENDBRANCH  17  18
ENDBRANCH   2  17
TORSDOF 7
ENDMDL
MODEL 3
REMARK VINA RESULT:      -7.8      5.566      9.371
REMARK  Name = *****
REMARK                            x       y       z     vdW  Elec       q    Type
REMARK                         _______ _______ _______ _____ _____    ______ ____
ROOT
ATOM      1  O   LIG    1       24.997 -28.397   5.103  0.00  0.00    -0.226 OA
ATOM      2  C   LIG    1       25.278 -28.369   6.301  0.00  0.00    +0.413 C 
ATOM      3  N   LIG    1       25.284 -29.497   7.152  0.00  0.00    -0.188 N 
ATOM      4  C   LIG    1       25.586 -29.384   8.558  0.00  0.00    +0.148 A 
ATOM      5  C   LIG    1       25.172 -30.343   9.490  0.00  0.00    +0.053 A 
ATOM      6  C   LIG    1       25.536 -30.195  10.838  0.00  0.00    +0.020 A 
ATOM      7  C   LIG    1       26.293 -29.106  11.241  0.00  0.00    +0.021 A 
ATOM      8  C   LIG    1       26.660 -28.197  10.276  0.00  0.00    +0.113 A 
ATOM      9  S   LIG    1       24.136 -31.716   9.087  0.00  0.00    -0.084 S 
ATOM     10  C   LIG    1       24.587 -31.896   7.384  0.00  0.00    +0.035 A 
ATOM     11  C   LIG    1       24.399 -33.173   6.820  0.00  0.00    +0.017 A 
ATOM     12  C   LIG    1       24.713 -33.419   5.488  0.00  0.00    +0.001 A 
ATOM     13  C   LIG    1       25.219 -32.390   4.712  0.00  0.00    +0.002 A 
ATOM     14  C   LIG    1       25.400 -31.119   5.268  0.00  0.00    +0.025 A 
ATOM     15  N   LIG    1       26.333 -28.324   8.972  0.00  0.00    -0.238 NA
ATOM     16  C   LIG    1       25.074 -30.828   6.612  0.00  0.00    +0.060 A 
ENDROOT
BRANCH   2  17
ATOM     17  O   LIG    1       25.573 -27.176   6.901  0.00  0.00    -0.448 OA
BRANCH  17  18
ATOM     18  C   LIG    1       26.320 -26.232   6.117  0.00  0.00    +0.262 C 
BRANCH  18  19
ATOM     19  C   LIG    1       25.705 -24.840   6.224  0.00  0.00    +0.201 C 
BRANCH  19  20
ATOM     20  O   LIG    1       24.348 -24.919   6.662  0.00  0.00    -0.375 OA
BRANCH  20  21
ATOM     21  C   LIG    1       23.753 -23.615   6.664  0.00  0.00    +0.175 C 
BRANCH  21  22
ATOM     22  C   LIG    1       24.505 -22.691   5.696  0.00  0.00    +0.112 C 
BRANCH  22  23
ATOM     23  N   LIG    1       24.678 -21.307   6.186  0.00  0.00    -0.300 NA
ATOM     24  C   LIG    1       25.463 -20.442   5.290  0.00  0.00    +0.084 C 
ATOM     25  C   LIG    1       24.752 -20.122   3.977  0.00  0.00    +0.015 C 
ATOM     26  C   LIG    1       23.390 -19.488   4.238  0.00  0.00    +0.002 C 
ATOM     27  C   LIG    1       22.570 -20.312   5.229  0.00  0.00    +0.015 C 
ATOM     28  C   LIG    1       23.380 -20.676   6.478  0.00  0.00    +0.084 C 
ENDBRANCH  22  23
ENDBRANCH  21  22
ENDBRANCH  20  21
ENDBRANCH  19  20
ENDBRANCH  18  19
ENDBRANCH  17  18
ENDBRANCH   2  17
TORSDOF 7
ENDMDL
MODEL 4
REMARK VINA RESULT:      -7.5      5.971     10.101
REMARK  Name = *****
REMARK                            x       y       z     vdW  Elec       q    Type
REMARK                         _______ _______ _______ _____ _____    ______ ____
ROOT
ATOM      1  O   LIG    1       24.340 -28.398   7.218  0.00  0.00    -0.226 OA
ATOM      2  C   LIG    1       24.857 -29.296   6.555  0.00  0.00    +0.413 C 
ATOM      3  N   LIG    1       25.253 -30.550   7.070  0.00  0.00    -0.188 N 
ATOM      4  C   LIG    1       25.891 -31.544   6.241  0.00  0.00    +0.148 A 
ATOM      5  C   LIG    1       26.684 -32.566   6.776  0.00  0.00    +0.053 A 
ATOM      6  C   LIG    1       27.241 -33.526   5.918  0.00  0.00    +0.020 A 
ATOM      7  C   LIG    1       27.013 -33.458   4.552  0.00  0.00    +0.021 A 
ATOM      8  C   LIG    1       26.232 -32.424   4.091  0.00  0.00    +0.113 A 
ATOM      9  S   LIG    1       27.100 -32.686   8.489  0.00  0.00    -0.084 S 
ATOM     10  C   LIG    1       25.683 -31.865   9.164  0.00  0.00    +0.035 A 
ATOM     11  C   LIG    1       25.347 -32.189  10.492  0.00  0.00    +0.017 A 
ATOM     12  C   LIG    1       24.258 -31.594  11.120  0.00  0.00    +0.001 A 
ATOM     13  C   LIG    1       23.497 -30.673  10.421  0.00  0.00    +0.002 A 
ATOM     14  C   LIG    1       23.833 -30.344   9.103  0.00  0.00    +0.025 A 
ATOM     15  N   LIG    1       25.674 -31.495   4.898  0.00  0.00    -0.238 NA
ATOM     16  C   LIG    1       24.944 -30.914   8.441  0.00  0.00    +0.060 A 
ENDROOT
BRANCH   2  17
ATOM     17  O   LIG    1       25.123 -29.093   5.228  0.00  0.00    -0.448 OA
BRANCH  17  18
ATOM     18  C   LIG    1       25.120 -27.729   4.776  0.00  0.00    +0.262 C 
BRANCH  18  19
ATOM     19  C   LIG    1       26.475 -27.076   5.035  0.00  0.00    +0.201 C 
BRANCH  19  20
ATOM     20  O   LIG    1       26.308 -25.781   5.615  0.00  0.00    -0.375 OA
BRANCH  20  21
ATOM     21  C   LIG    1       25.131 -25.154   5.092  0.00  0.00    +0.175 C 
BRANCH  21  22
ATOM     22  C   LIG    1       25.080 -23.682   5.526  0.00  0.00    +0.112 C 
BRANCH  22  23
ATOM     23  N   LIG    1       24.512 -23.464   6.873  0.00  0.00    -0.300 NA
ATOM     24  C   LIG    1       25.202 -22.430   7.661  0.00  0.00    +0.084 C 
ATOM     25  C   LIG    1       25.011 -21.018   7.112  0.00  0.00    +0.015 C 
ATOM     26  C   LIG    1       23.529 -20.675   7.003  0.00  0.00    +0.002 C 
ATOM     27  C   LIG    1       22.755 -21.764   6.262  0.00  0.00    +0.015 C 
ATOM     28  C   LIG    1       23.073 -23.161   6.806  0.00  0.00    +0.084 C 
ENDBRANCH  22  23
ENDBRANCH  21  22
ENDBRANCH  20  21
ENDBRANCH  19  20
ENDBRANCH  18  19
ENDBRANCH  17  18
ENDBRANCH   2  17
TORSDOF 7
ENDMDL
MODEL 5
REMARK VINA RESULT:      -7.2      3.751      8.723
REMARK  Name = *****
REMARK                            x       y       z     vdW  Elec       q    Type
REMARK                         _______ _______ _______ _____ _____    ______ ____
ROOT
ATOM      1  O   LIG    1       23.506 -23.525   6.173  0.00  0.00    -0.226 OA
ATOM      2  C   LIG    1       24.614 -23.072   6.457  0.00  0.00    +0.413 C 
ATOM      3  N   LIG    1       25.079 -21.793   6.081  0.00  0.00    -0.188 N 
ATOM      4  C   LIG    1       26.408 -21.341   6.417  0.00  0.00    +0.148 A 
ATOM      5  C   LIG    1       27.051 -20.321   5.706  0.00  0.00    +0.053 A 
ATOM      6  C   LIG    1       28.327 -19.899   6.110  0.00  0.00    +0.020 A 
ATOM      7  C   LIG    1       28.946 -20.491   7.201  0.00  0.00    +0.021 A 
ATOM      8  C   LIG    1       28.262 -21.493   7.849  0.00  0.00    +0.113 A 
ATOM      9  S   LIG    1       26.381 -19.566   4.256  0.00  0.00    -0.084 S 
ATOM     10  C   LIG    1       24.661 -19.810   4.601  0.00  0.00    +0.035 A 
ATOM     11  C   LIG    1       23.767 -18.918   3.980  0.00  0.00    +0.017 A 
ATOM     12  C   LIG    1       22.394 -19.028   4.177  0.00  0.00    +0.001 A 
ATOM     13  C   LIG    1       21.909 -20.029   5.000  0.00  0.00    +0.002 A 
ATOM     14  C   LIG    1       22.796 -20.922   5.614  0.00  0.00    +0.025 A 
ATOM     15  N   LIG    1       27.028 -21.908   7.488  0.00  0.00    -0.238 NA
ATOM     16  C   LIG    1       24.194 -20.852   5.420  0.00  0.00    +0.060 A 
ENDROOT
BRANCH   2  17
ATOM     17  O   LIG    1       25.505 -23.844   7.152  0.00  0.00    -0.448 OA
BRANCH  17  18
ATOM     18  C   LIG    1       26.088 -24.947   6.439  0.00  0.00    +0.262 C 
BRANCH  18  19
ATOM     19  C   LIG    1       25.290 -26.225   6.682  0.00  0.00    +0.201 C 
BRANCH  19  20
ATOM     20  O   LIG    1       26.129 -27.251   7.215  0.00  0.00    -0.375 OA
BRANCH  20  21
ATOM     21  C   LIG    1       25.365 -28.438   7.454  0.00  0.00    +0.175 C 
BRANCH  21  22
ATOM     22  C   LIG    1       25.853 -29.131   8.734  0.00  0.00    +0.112 C 
BRANCH  22  23
ATOM     23  N   LIG    1       25.480 -30.557   8.836  0.00  0.00    -0.300 NA
ATOM     24  C   LIG    1       25.891 -31.203  10.093  0.00  0.00    +0.084 C 
ATOM     25  C   LIG    1       25.132 -30.692  11.316  0.00  0.00    +0.015 C 
ATOM     26  C   LIG    1       23.627 -30.851  11.126  0.00  0.00    +0.002 C 
ATOM     27  C   LIG    1       23.166 -30.267   9.792  0.00  0.00    +0.015 C 
ATOM     28  C   LIG    1       24.036 -30.751   8.625  0.00  0.00    +0.084 C 
ENDBRANCH  22  23
ENDBRANCH  21  22
ENDBRANCH  20  21
ENDBRANCH  19  20
ENDBRANCH  18  19
ENDBRANCH  17  18
ENDBRANCH   2  17
TORSDOF 7
ENDMDL
MODEL 6
REMARK VINA RESULT:      -7.0      5.563      9.537
REMARK  Name = *****
REMARK                            x       y       z     vdW  Elec       q    Type
REMARK                         _______ _______ _______ _____ _____    ______ ____
ROOT
ATOM      1  O   LIG    1       23.836 -29.512   5.987  0.00  0.00    -0.226 OA
ATOM      2  C   LIG    1       24.470 -29.196   6.994  0.00  0.00    +0.413 C 
ATOM      3  N   LIG    1       24.502 -29.946   8.190  0.00  0.00    -0.188 N 
ATOM      4  C   LIG    1       25.237 -29.495   9.348  0.00  0.00    +0.148 A 
ATOM      5  C   LIG    1       24.939 -29.941  10.641  0.00  0.00    +0.053 A 
ATOM      6  C   LIG    1       25.719 -29.495  11.719  0.00  0.00    +0.020 A 
ATOM      7  C   LIG    1       26.771 -28.618  11.505  0.00  0.00    +0.021 A 
ATOM      8  C   LIG    1       27.004 -28.214  10.211  0.00  0.00    +0.113 A 
ATOM      9  S   LIG    1       23.568 -30.989  11.024  0.00  0.00    -0.084 S 
ATOM     10  C   LIG    1       23.430 -31.822   9.467  0.00  0.00    +0.035 A 
ATOM     11  C   LIG    1       22.820 -33.090   9.490  0.00  0.00    +0.017 A 
ATOM     12  C   LIG    1       22.653 -33.825   8.321  0.00  0.00    +0.001 A 
ATOM     13  C   LIG    1       23.100 -33.296   7.122  0.00  0.00    +0.002 A 
ATOM     14  C   LIG    1       23.700 -32.032   7.095  0.00  0.00    +0.025 A 
ATOM     15  N   LIG    1       26.276 -28.638   9.155  0.00  0.00    -0.238 NA
ATOM     16  C   LIG    1       23.867 -31.250   8.261  0.00  0.00    +0.060 A 
ENDROOT
BRANCH   2  17
ATOM     17  O   LIG    1       25.174 -28.023   7.013  0.00  0.00    -0.448 OA
BRANCH  17  18
ATOM     18  C   LIG    1       25.583 -27.501   5.738  0.00  0.00    +0.262 C 
BRANCH  18  19
ATOM     19  C   LIG    1       24.960 -26.129   5.496  0.00  0.00    +0.201 C 
BRANCH  19  20
ATOM     20  O   LIG    1       23.946 -25.856   6.465  0.00  0.00    -0.375 OA
BRANCH  20  21
ATOM     21  C   LIG    1       23.660 -24.453   6.497  0.00  0.00    +0.175 C 
BRANCH  21  22
ATOM     22  C   LIG    1       24.944 -23.659   6.775  0.00  0.00    +0.112 C 
BRANCH  22  23
ATOM     23  N   LIG    1       24.745 -22.443   7.592  0.00  0.00    -0.300 NA
ATOM     24  C   LIG    1       25.913 -22.059   8.401  0.00  0.00    +0.084 C 
ATOM     25  C   LIG    1       27.096 -21.570   7.568  0.00  0.00    +0.015 C 
ATOM     26  C   LIG    1       26.686 -20.404   6.675  0.00  0.00    +0.002 C 
ATOM     27  C   LIG    1       25.426 -20.728   5.875  0.00  0.00    +0.015 C 
ATOM     28  C   LIG    1       24.317 -21.304   6.763  0.00  0.00    +0.084 C 
ENDBRANCH  22  23
ENDBRANCH  21  22
ENDBRANCH  20  21
ENDBRANCH  19  20
ENDBRANCH  18  19
ENDBRANCH  17  18
ENDBRANCH   2  17
TORSDOF 7
ENDMDL
MODEL 7
REMARK VINA RESULT:      -6.8      5.663      9.473
REMARK  Name = *****
REMARK                            x       y       z     vdW  Elec       q    Type
REMARK                         _______ _______ _______ _____ _____    ______ ____
ROOT
ATOM      1  O   LIG    1       25.998 -27.064   7.600  0.00  0.00    -0.226 OA
ATOM      2  C   LIG    1       25.524 -28.147   7.257  0.00  0.00    +0.413 C 
ATOM      3  N   LIG    1       25.724 -29.365   7.943  0.00  0.00    -0.188 N 
ATOM      4  C   LIG    1       25.169 -30.607   7.460  0.00  0.00    +0.148 A 
ATOM      5  C   LIG    1       25.695 -31.852   7.825  0.00  0.00    +0.053 A 
ATOM      6  C   LIG    1       25.082 -33.023   7.354  0.00  0.00    +0.020 A 
ATOM      7  C   LIG    1       23.969 -32.946   6.531  0.00  0.00    +0.021 A 
ATOM      8  C   LIG    1       23.508 -31.692   6.205  0.00  0.00    +0.113 A 
ATOM      9  S   LIG    1       27.158 -32.049   8.796  0.00  0.00    -0.084 S 
ATOM     10  C   LIG    1       27.079 -30.530   9.705  0.00  0.00    +0.035 A 
ATOM     11  C   LIG    1       27.743 -30.509  10.945  0.00  0.00    +0.017 A 
ATOM     12  C   LIG    1       27.751 -29.364  11.734  0.00  0.00    +0.001 A 
ATOM     13  C   LIG    1       27.090 -28.233  11.286  0.00  0.00    +0.002 A 
ATOM     14  C   LIG    1       26.434 -28.249  10.050  0.00  0.00    +0.025 A 
ATOM     15  N   LIG    1       24.072 -30.550   6.656  0.00  0.00    -0.238 NA
ATOM     16  C   LIG    1       26.423 -29.388   9.215  0.00  0.00    +0.060 A 
ENDROOT
BRANCH   2  17
ATOM     17  O   LIG    1       24.778 -28.229   6.113  0.00  0.00    -0.448 OA
BRANCH  17  18
ATOM     18  C   LIG    1       25.271 -27.505   4.974  0.00  0.00    +0.262 C 
BRANCH  18  19
ATOM     19  C   LIG    1       24.790 -26.057   5.010  0.00  0.00    +0.201 C 
BRANCH  19  20
ATOM     20  O   LIG    1       25.878 -25.170   5.277  0.00  0.00    -0.375 OA
BRANCH  20  21
ATOM     21  C   LIG    1       25.457 -24.128   6.166  0.00  0.00    +0.175 C 
BRANCH  21  22
ATOM     22  C   LIG    1       24.502 -23.170   5.441  0.00  0.00    +0.112 C 
BRANCH  22  23
ATOM     23  N   LIG    1       25.017 -21.793   5.294  0.00  0.00    -0.300 NA
ATOM     24  C   LIG    1       24.364 -21.012   4.230  0.00  0.00    +0.084 C 
ATOM     25  C   LIG    1       22.907 -20.668   4.536  0.00  0.00    +0.015 C 
ATOM     26  C   LIG    1       22.792 -19.925   5.862  0.00  0.00    +0.002 C 
ATOM     27  C   LIG    1       23.528 -20.658   6.981  0.00  0.00    +0.015 C 
ATOM     28  C   LIG    1       24.950 -21.055   6.566  0.00  0.00    +0.084 C 
ENDBRANCH  22  23
ENDBRANCH  21  22
ENDBRANCH  20  21
ENDBRANCH  19  20
ENDBRANCH  18  19
ENDBRANCH  17  18
ENDBRANCH   2  17
TORSDOF 7
ENDMDL
MODEL 8
REMARK VINA RESULT:      -6.7      6.025     10.197
REMARK  Name = *****
REMARK                            x       y       z     vdW  Elec       q    Type
REMARK                         _______ _______ _______ _____ _____    ______ ____
ROOT
ATOM      1  O   LIG    1       26.295 -28.152   9.168  0.00  0.00    -0.226 OA
ATOM      2  C   LIG    1       25.757 -29.027   8.490  0.00  0.00    +0.413 C 
ATOM      3  N   LIG    1       25.262 -30.248   9.001  0.00  0.00    -0.188 N 
ATOM      4  C   LIG    1       24.677 -31.247   8.140  0.00  0.00    +0.148 A 
ATOM      5  C   LIG    1       24.600 -32.596   8.508  0.00  0.00    +0.053 A 
ATOM      6  C   LIG    1       23.980 -33.511   7.642  0.00  0.00    +0.020 A 
ATOM      7  C   LIG    1       23.455 -33.082   6.432  0.00  0.00    +0.021 A 
ATOM      8  C   LIG    1       23.572 -31.746   6.129  0.00  0.00    +0.113 A 
ATOM      9  S   LIG    1       25.313 -33.250   9.986  0.00  0.00    -0.084 S 
ATOM     10  C   LIG    1       25.244 -31.787  10.982  0.00  0.00    +0.035 A 
ATOM     11  C   LIG    1       25.224 -31.981  12.376  0.00  0.00    +0.017 A 
ATOM     12  C   LIG    1       25.180 -30.899  13.249  0.00  0.00    +0.001 A 
ATOM     13  C   LIG    1       25.152 -29.616  12.731  0.00  0.00    +0.002 A 
ATOM     14  C   LIG    1       25.179 -29.419  11.346  0.00  0.00    +0.025 A 
ATOM     15  N   LIG    1       24.152 -30.844   6.951  0.00  0.00    -0.238 NA
ATOM     16  C   LIG    1       25.243 -30.495  10.431  0.00  0.00    +0.060 A 
ENDROOT
BRANCH   2  17
ATOM     17  O   LIG    1       25.647 -28.865   7.136  0.00  0.00    -0.448 OA
BRANCH  17  18
ATOM     18  C   LIG    1       25.526 -27.515   6.661  0.00  0.00    +0.262 C 
BRANCH  18  19
ATOM     19  C   LIG    1       24.285 -27.364   5.786  0.00  0.00    +0.201 C 
BRANCH  19  20
ATOM     20  O   LIG    1       24.177 -26.029   5.288  0.00  0.00    -0.375 OA
BRANCH  20  21
ATOM     21  C   LIG    1       25.377 -25.298   5.572  0.00  0.00    +0.175 C 
BRANCH  21  22
ATOM     22  C   LIG    1       25.065 -23.801   5.702  0.00  0.00    +0.112 C 
BRANCH  22  23
ATOM     23  N   LIG    1       24.427 -23.419   6.979  0.00  0.00    -0.300 NA
ATOM     24  C   LIG    1       25.107 -22.326   7.693  0.00  0.00    +0.084 C 
ATOM     25  C   LIG    1       25.000 -20.977   6.984  0.00  0.00    +0.015 C 
ATOM     26  C   LIG    1       23.540 -20.605   6.746  0.00  0.00    +0.002 C 
ATOM     27  C   LIG    1       22.772 -21.745   6.080  0.00  0.00    +0.015 C 
ATOM     28  C   LIG    1       23.006 -23.083   6.790  0.00  0.00    +0.084 C 
ENDBRANCH  22  23
ENDBRANCH  21  22
ENDBRANCH  20  21
ENDBRANCH  19  20
ENDBRANCH  18  19
ENDBRANCH  17  18
ENDBRANCH   2  17
TORSDOF 7
ENDMDL
MODEL 9
REMARK VINA RESULT:      -6.5      7.722     11.199
REMARK  Name = *****
REMARK                            x       y       z     vdW  Elec       q    Type
REMARK                         _______ _______ _______ _____ _____    ______ ____
ROOT
ATOM      1  O   LIG    1       25.722 -30.269   8.835  0.00  0.00    -0.226 OA
ATOM      2  C   LIG    1       24.597 -30.423   9.309  0.00  0.00    +0.413 C 
ATOM      3  N   LIG    1       24.213 -30.028  10.610  0.00  0.00    -0.188 N 
ATOM      4  C   LIG    1       22.884 -30.276  11.115  0.00  0.00    +0.148 A 
ATOM      5  C   LIG    1       22.603 -30.323  12.486  0.00  0.00    +0.053 A 
ATOM      6  C   LIG    1       21.281 -30.526  12.911  0.00  0.00    +0.020 A 
ATOM      7  C   LIG    1       20.264 -30.684  11.981  0.00  0.00    +0.021 A 
ATOM      8  C   LIG    1       20.610 -30.635  10.651  0.00  0.00    +0.113 A 
ATOM      9  S   LIG    1       23.841 -30.218  13.742  0.00  0.00    -0.084 S 
ATOM     10  C   LIG    1       25.040 -29.266  12.853  0.00  0.00    +0.035 A 
ATOM     11  C   LIG    1       25.944 -28.517  13.630  0.00  0.00    +0.017 A 
ATOM     12  C   LIG    1       26.932 -27.743  13.031  0.00  0.00    +0.001 A 
ATOM     13  C   LIG    1       27.018 -27.710  11.650  0.00  0.00    +0.002 A 
ATOM     14  C   LIG    1       26.126 -28.459  10.875  0.00  0.00    +0.025 A 
ATOM     15  N   LIG    1       21.873 -30.428  10.217  0.00  0.00    -0.238 NA
ATOM     16  C   LIG    1       25.123 -29.272  11.450  0.00  0.00    +0.060 A 
ENDROOT
BRANCH   2  17
ATOM     17  O   LIG    1       23.631 -31.053   8.574  0.00  0.00    -0.448 OA
BRANCH  17  18
ATOM     18  C   LIG    1       24.072 -32.121   7.720  0.00  0.00    +0.262 C 
BRANCH  18  19
ATOM     19  C   LIG    1       23.837 -31.768   6.254  0.00  0.00    +0.201 C 
BRANCH  19  20
ATOM     20  O   LIG    1       23.408 -30.412   6.124  0.00  0.00    -0.375 OA
BRANCH  20  21
ATOM     21  C   LIG    1       24.474 -29.604   5.611  0.00  0.00    +0.175 C 
BRANCH  21  22
ATOM     22  C   LIG    1       24.352 -28.169   6.143  0.00  0.00    +0.112 C 
BRANCH  22  23
ATOM     23  N   LIG    1       24.944 -27.141   5.262  0.00  0.00    -0.300 NA
ATOM     24  C   LIG    1       24.105 -25.945   5.078  0.00  0.00    +0.084 C 
ATOM     25  C   LIG    1       23.968 -25.097   6.342  0.00  0.00    +0.015 C 
ATOM     26  C   LIG    1       25.338 -24.686   6.870  0.00  0.00    +0.002 C 
ATOM     27  C   LIG    1       26.272 -25.888   6.999  0.00  0.00    +0.015 C 
ATOM     28  C   LIG    1       26.283 -26.743   5.727  0.00  0.00    +0.084 C 
ENDBRANCH  22  23
ENDBRANCH  21  22
ENDBRANCH  20  21
ENDBRANCH  19  20
ENDBRANCH  18  19
ENDBRANCH  17  18
ENDBRANCH   2  17
TORSDOF 7
ENDMDL
