MODEL 1
REMARK VINA RESULT:      -6.0      0.000      0.000
REMARK  Name = *****
REMARK                            x       y       z     vdW  Elec       q    Type
REMARK                         _______ _______ _______ _____ _____    ______ ____
ROOT
ATOM      1  C   LIG    1       25.068 -29.156  12.519  0.00  0.00    -0.002 C 
ATOM      2  C   LIG    1       25.414 -29.750  11.306  0.00  0.00    -0.016 C 
ATOM      3  C   LIG    1       24.522 -30.480  10.359  0.00  0.00    +0.015 C 
ATOM      4  C   LIG    1       24.655 -30.277   9.027  0.00  0.00    +0.078 C 
ATOM      5  C   LIG    1       25.666 -29.242   8.608  0.00  0.00    +0.203 C 
ATOM      6  N   LIG    1       25.483 -28.369   7.658  0.00  0.00    -0.229 N 
ATOM      7  C   LIG    1       26.917 -29.375   9.426  0.00  0.00    +0.078 C 
ATOM      8  C   LIG    1       26.766 -29.721  10.719  0.00  0.00    +0.015 C 
ENDROOT
BRANCH   1  12
ATOM      9  C   LIG    1       20.761 -29.483  13.664  0.00  0.00    +0.030 A 
ATOM     10  C   LIG    1       21.721 -30.411  14.099  0.00  0.00    +0.024 A 
ATOM     11  C   LIG    1       23.103 -30.335  13.750  0.00  0.00    +0.010 A 
ATOM     12  C   LIG    1       23.601 -29.323  12.911  0.00  0.00    -0.017 A 
ATOM     13  C   LIG    1       22.673 -28.346  12.552  0.00  0.00    +0.010 A 
ATOM     14  C   LIG    1       21.324 -28.396  12.986  0.00  0.00    +0.024 A 
BRANCH   9  15
ATOM     15  N   LIG    1       19.390 -29.655  13.871  0.00  0.00    -0.330 N 
BRANCH  15  17
ATOM     16  C   LIG    1       19.001 -31.238  11.873  0.00  0.00    +0.024 C 
ATOM     17  C   LIG    1       18.571 -30.728  13.248  0.00  0.00    +0.102 C 
ENDBRANCH  15  17
BRANCH  15  18
ATOM     18  C   LIG    1       18.700 -28.877  14.933  0.00  0.00    +0.102 C 
ATOM     19  C   LIG    1       17.564 -28.005  14.402  0.00  0.00    +0.024 C 
ENDBRANCH  15  18
ENDBRANCH   9  15
ENDBRANCH   1  12
BRANCH   1  20
ATOM     20  C   LIG    1       26.098 -28.249  13.364  0.00  0.00    +0.012 A 
ATOM     21  C   LIG    1       27.326 -28.538  14.053  0.00  0.00    +0.125 A 
ATOM     22  C   LIG    1       28.012 -27.532  14.827  0.00  0.00    +0.032 A 
ATOM     23  C   LIG    1       27.576 -26.224  14.934  0.00  0.00    +0.031 A 
ATOM     24  C   LIG    1       26.429 -25.899  14.261  0.00  0.00    +0.117 A 
ATOM     25  C   LIG    1       25.709 -26.880  13.533  0.00  0.00    +0.040 A 
BRANCH  21  26
ATOM     26  S   LIG    1       28.313 -30.042  14.062  0.00  0.00    +0.110 S 
ATOM     27  O   LIG    1       27.405 -31.185  13.964  0.00  0.00    -0.142 OA
ATOM     28  O   LIG    1       29.293 -30.012  15.128  0.00  0.00    -0.142 OA
BRANCH  26  29
ATOM     29  O   LIG    1       29.199 -30.006  12.720  0.00  0.00    -0.250 OA
ATOM     30  H   LIG    1       29.831 -29.253  12.842  0.00  0.00    +0.245 HD
ENDBRANCH  26  29
ENDBRANCH  21  26
BRANCH  24  31
ATOM     31  S   LIG    1       25.835 -24.229  14.322  0.00  0.00    +0.110 S 
ATOM     32  O   LIG    1       25.147 -23.967  13.084  0.00  0.00    -0.142 OA
ATOM     33  O   LIG    1       26.940 -23.399  14.757  0.00  0.00    -0.142 OA
BRANCH  31  34
ATOM     34  O   LIG    1       24.728 -24.201  15.497  0.00  0.00    -0.250 OA
ATOM     35  H   LIG    1       25.139 -23.868  16.321  0.00  0.00    +0.245 HD
ENDBRANCH  31  34
ENDBRANCH  24  31
ENDBRANCH   1  20
BRANCH   6  36
ATOM     36  C   LIG    1       26.264 -27.070   7.669  0.00  0.00    +0.347 C 
ATOM     37  C   LIG    1       25.774 -26.078   6.634  0.00  0.00    +0.082 C 
ENDBRANCH   6  36
BRANCH   6  38
ATOM     38  C   LIG    1       24.310 -28.535   6.704  0.00  0.00    +0.347 C 
ATOM     39  C   LIG    1       24.597 -29.259   5.402  0.00  0.00    +0.082 C 
ENDBRANCH   6  38
TORSDOF 11
ENDMDL
MODEL 2
REMARK VINA RESULT:      -5.5      3.429      7.294
REMARK  Name = *****
REMARK                            x       y       z     vdW  Elec       q    Type
REMARK                         _______ _______ _______ _____ _____    ______ ____
ROOT
ATOM      1  C   LIG    1       24.037 -29.874  11.983  0.00  0.00    -0.002 C 
ATOM      2  C   LIG    1       25.112 -29.628  12.837  0.00  0.00    -0.016 C 
ATOM      3  C   LIG    1       26.509 -29.261  12.465  0.00  0.00    +0.015 C 
ATOM      4  C   LIG    1       27.160 -28.310  13.177  0.00  0.00    +0.078 C 
ATOM      5  C   LIG    1       26.368 -27.631  14.262  0.00  0.00    +0.203 C 
ATOM      6  N   LIG    1       26.404 -26.353  14.517  0.00  0.00    -0.229 N 
ATOM      7  C   LIG    1       25.551 -28.637  15.018  0.00  0.00    +0.078 C 
ATOM      8  C   LIG    1       25.031 -29.658  14.308  0.00  0.00    +0.015 C 
ENDROOT
BRANCH   1  12
ATOM      9  C   LIG    1       24.945 -29.743   7.609  0.00  0.00    +0.030 A 
ATOM     10  C   LIG    1       25.842 -29.253   8.573  0.00  0.00    +0.024 A 
ATOM     11  C   LIG    1       25.581 -29.279   9.976  0.00  0.00    +0.010 A 
ATOM     12  C   LIG    1       24.376 -29.782  10.496  0.00  0.00    -0.017 A 
ATOM     13  C   LIG    1       23.522 -30.355   9.555  0.00  0.00    +0.010 A 
ATOM     14  C   LIG    1       23.845 -30.397   8.174  0.00  0.00    +0.024 A 
BRANCH   9  15
ATOM     15  N   LIG    1       25.132 -29.564   6.236  0.00  0.00    -0.330 N 
BRANCH  15  17
ATOM     16  C   LIG    1       24.369 -27.111   6.009  0.00  0.00    +0.024 C 
ATOM     17  C   LIG    1       25.299 -28.244   5.572  0.00  0.00    +0.102 C 
ENDBRANCH  15  17
BRANCH  15  18
ATOM     18  C   LIG    1       25.403 -30.740   5.369  0.00  0.00    +0.102 C 
ATOM     19  C   LIG    1       26.272 -31.800   6.044  0.00  0.00    +0.024 C 
ENDBRANCH  15  18
ENDBRANCH   9  15
ENDBRANCH   1  12
BRANCH   1  20
ATOM     20  C   LIG    1       22.535 -30.096  12.523  0.00  0.00    +0.012 A 
ATOM     21  C   LIG    1       21.694 -31.255  12.639  0.00  0.00    +0.125 A 
ATOM     22  C   LIG    1       20.323 -31.151  13.080  0.00  0.00    +0.032 A 
ATOM     23  C   LIG    1       19.732 -29.961  13.458  0.00  0.00    +0.031 A 
ATOM     24  C   LIG    1       20.514 -28.838  13.398  0.00  0.00    +0.117 A 
ATOM     25  C   LIG    1       21.848 -28.904  12.922  0.00  0.00    +0.040 A 
BRANCH  21  26
ATOM     26  S   LIG    1       22.090 -32.993  12.399  0.00  0.00    +0.110 S 
ATOM     27  O   LIG    1       23.366 -33.266  13.061  0.00  0.00    -0.142 OA
ATOM     28  O   LIG    1       21.923 -33.376  11.012  0.00  0.00    -0.142 OA
BRANCH  26  29
ATOM     29  O   LIG    1       20.952 -33.825  13.171  0.00  0.00    -0.250 OA
ATOM     30  H   LIG    1       21.258 -33.882  14.111  0.00  0.00    +0.245 HD
ENDBRANCH  26  29
ENDBRANCH  21  26
BRANCH  24  31
ATOM     31  S   LIG    1       19.831 -27.282  13.906  0.00  0.00    +0.110 S 
ATOM     32  O   LIG    1       20.761 -26.680  14.827  0.00  0.00    -0.142 OA
ATOM     33  O   LIG    1       18.453 -27.523  14.281  0.00  0.00    -0.142 OA
BRANCH  31  34
ATOM     34  O   LIG    1       19.808 -26.360  12.581  0.00  0.00    -0.250 OA
ATOM     35  H   LIG    1       18.961 -26.494  12.107  0.00  0.00    +0.245 HD
ENDBRANCH  31  34
ENDBRANCH  24  31
ENDBRANCH   1  20
BRANCH   6  36
ATOM     36  C   LIG    1       25.227 -25.689  15.205  0.00  0.00    +0.347 C 
ATOM     37  C   LIG    1       24.016 -25.557  14.306  0.00  0.00    +0.082 C 
ENDBRANCH   6  36
BRANCH   6  38
ATOM     38  C   LIG    1       27.494 -25.496  13.894  0.00  0.00    +0.347 C 
ATOM     39  C   LIG    1       28.112 -24.436  14.787  0.00  0.00    +0.082 C 
ENDBRANCH   6  38
TORSDOF 11
ENDMDL
MODEL 3
REMARK VINA RESULT:      -5.4      4.383      7.456
REMARK  Name = *****
REMARK                            x       y       z     vdW  Elec       q    Type
REMARK                         _______ _______ _______ _____ _____    ______ ____
ROOT
ATOM      1  C   LIG    1       24.365 -29.704   7.863  0.00  0.00    -0.002 C 
ATOM      2  C   LIG    1       24.265 -30.663   6.855  0.00  0.00    -0.016 C 
ATOM      3  C   LIG    1       24.479 -30.474   5.391  0.00  0.00    +0.015 C 
ATOM      4  C   LIG    1       25.155 -31.415   4.689  0.00  0.00    +0.078 C 
ATOM      5  C   LIG    1       25.716 -32.564   5.485  0.00  0.00    +0.203 C 
ATOM      6  N   LIG    1       26.896 -33.087   5.300  0.00  0.00    -0.229 N 
ATOM      7  C   LIG    1       24.717 -33.030   6.503  0.00  0.00    +0.078 C 
ATOM      8  C   LIG    1       23.954 -32.084   7.085  0.00  0.00    +0.015 C 
ENDROOT
BRANCH   1  12
ATOM      9  C   LIG    1       25.265 -25.623   6.281  0.00  0.00    +0.030 A 
ATOM     10  C   LIG    1       26.158 -26.313   7.118  0.00  0.00    +0.024 A 
ATOM     11  C   LIG    1       25.899 -27.616   7.641  0.00  0.00    +0.010 A 
ATOM     12  C   LIG    1       24.700 -28.298   7.370  0.00  0.00    -0.017 A 
ATOM     13  C   LIG    1       23.851 -27.661   6.466  0.00  0.00    +0.010 A 
ATOM     14  C   LIG    1       24.173 -26.405   5.890  0.00  0.00    +0.024 A 
BRANCH   9  15
ATOM     15  N   LIG    1       25.449 -24.289   5.910  0.00  0.00    -0.330 N 
BRANCH  15  17
ATOM     16  C   LIG    1       24.698 -22.074   4.822  0.00  0.00    +0.024 C 
ATOM     17  C   LIG    1       24.697 -23.603   4.826  0.00  0.00    +0.102 C 
ENDBRANCH  15  17
BRANCH  15  18
ATOM     18  C   LIG    1       26.281 -23.395   6.757  0.00  0.00    +0.102 C 
ATOM     19  C   LIG    1       25.497 -22.738   7.892  0.00  0.00    +0.024 C 
ENDBRANCH  15  18
ENDBRANCH   9  15
ENDBRANCH   1  12
BRANCH   1  20
ATOM     20  C   LIG    1       24.274 -30.081   9.428  0.00  0.00    +0.012 A 
ATOM     21  C   LIG    1       25.256 -30.464  10.404  0.00  0.00    +0.125 A 
ATOM     22  C   LIG    1       24.879 -30.846  11.744  0.00  0.00    +0.032 A 
ATOM     23  C   LIG    1       23.574 -30.836  12.201  0.00  0.00    +0.031 A 
ATOM     24  C   LIG    1       22.613 -30.440  11.310  0.00  0.00    +0.117 A 
ATOM     25  C   LIG    1       22.950 -30.106   9.974  0.00  0.00    +0.040 A 
BRANCH  21  26
ATOM     26  S   LIG    1       27.051 -30.475  10.288  0.00  0.00    +0.110 S 
ATOM     27  O   LIG    1       27.450 -31.633   9.489  0.00  0.00    -0.142 OA
ATOM     28  O   LIG    1       27.656 -30.277  11.590  0.00  0.00    -0.142 OA
BRANCH  26  29
ATOM     29  O   LIG    1       27.457 -29.153   9.467  0.00  0.00    -0.250 OA
ATOM     30  H   LIG    1       26.907 -28.425   9.852  0.00  0.00    +0.245 HD
ENDBRANCH  26  29
ENDBRANCH  21  26
BRANCH  24  31
ATOM     31  S   LIG    1       20.922 -30.365  11.841  0.00  0.00    +0.110 S 
ATOM     32  O   LIG    1       20.732 -29.103  12.511  0.00  0.00    -0.142 OA
ATOM     33  O   LIG    1       20.628 -31.619  12.505  0.00  0.00    -0.142 OA
BRANCH  31  34
ATOM     34  O   LIG    1       20.039 -30.325  10.490  0.00  0.00    -0.250 OA
ATOM     35  H   LIG    1       19.765 -29.402  10.310  0.00  0.00    +0.245 HD
ENDBRANCH  31  34
ENDBRANCH  24  31
ENDBRANCH   1  20
BRANCH   6  36
ATOM     36  C   LIG    1       27.582 -33.818   6.437  0.00  0.00    +0.347 C 
ATOM     37  C   LIG    1       29.091 -33.811   6.317  0.00  0.00    +0.082 C 
ENDBRANCH   6  36
BRANCH   6  38
ATOM     38  C   LIG    1       27.682 -32.738   4.046  0.00  0.00    +0.347 C 
ATOM     39  C   LIG    1       27.449 -33.621   2.834  0.00  0.00    +0.082 C 
ENDBRANCH   6  38
TORSDOF 11
ENDMDL
MODEL 4
REMARK VINA RESULT:      -5.3      4.742      9.056
REMARK  Name = *****
REMARK                            x       y       z     vdW  Elec       q    Type
REMARK                         _______ _______ _______ _____ _____    ______ ____
ROOT
ATOM      1  C   LIG    1       25.614 -29.576   7.982  0.00  0.00    -0.002 C 
ATOM      2  C   LIG    1       26.330 -29.602   9.178  0.00  0.00    -0.016 C 
ATOM      3  C   LIG    1       26.833 -28.440   9.967  0.00  0.00    +0.015 C 
ATOM      4  C   LIG    1       26.729 -28.457  11.318  0.00  0.00    +0.078 C 
ATOM      5  C   LIG    1       26.024 -29.645  11.917  0.00  0.00    +0.203 C 
ATOM      6  N   LIG    1       25.175 -29.582  12.904  0.00  0.00    -0.229 N 
ATOM      7  C   LIG    1       26.454 -30.908  11.230  0.00  0.00    +0.078 C 
ATOM      8  C   LIG    1       26.691 -30.831   9.906  0.00  0.00    +0.015 C 
ENDROOT
BRANCH   1  12
ATOM      9  C   LIG    1       24.800 -25.547   6.226  0.00  0.00    +0.030 A 
ATOM     10  C   LIG    1       25.971 -25.822   6.953  0.00  0.00    +0.024 A 
ATOM     11  C   LIG    1       26.259 -27.097   7.527  0.00  0.00    +0.010 A 
ATOM     12  C   LIG    1       25.363 -28.175   7.424  0.00  0.00    -0.017 A 
ATOM     13  C   LIG    1       24.244 -27.938   6.626  0.00  0.00    +0.010 A 
ATOM     14  C   LIG    1       24.025 -26.688   5.992  0.00  0.00    +0.024 A 
BRANCH   9  15
ATOM     15  N   LIG    1       24.448 -24.261   5.811  0.00  0.00    -0.330 N 
BRANCH  15  17
ATOM     16  C   LIG    1       24.396 -22.232   4.219  0.00  0.00    +0.024 C 
ATOM     17  C   LIG    1       24.712 -23.709   4.456  0.00  0.00    +0.102 C 
ENDBRANCH  15  17
BRANCH  15  18
ATOM     18  C   LIG    1       23.566 -23.424   6.666  0.00  0.00    +0.102 C 
ATOM     19  C   LIG    1       24.337 -22.457   7.563  0.00  0.00    +0.024 C 
ENDBRANCH  15  18
ENDBRANCH   9  15
ENDBRANCH   1  12
BRANCH   1  20
ATOM     20  C   LIG    1       24.982 -30.903   7.321  0.00  0.00    +0.012 A 
ATOM     21  C   LIG    1       24.022 -31.868   7.781  0.00  0.00    +0.125 A 
ATOM     22  C   LIG    1       23.700 -33.042   7.005  0.00  0.00    +0.032 A 
ATOM     23  C   LIG    1       24.246 -33.307   5.763  0.00  0.00    +0.031 A 
ATOM     24  C   LIG    1       25.138 -32.391   5.273  0.00  0.00    +0.117 A 
ATOM     25  C   LIG    1       25.509 -31.255   6.036  0.00  0.00    +0.040 A 
BRANCH  21  26
ATOM     26  S   LIG    1       22.978 -31.844   9.246  0.00  0.00    +0.110 S 
ATOM     27  O   LIG    1       22.588 -30.458   9.505  0.00  0.00    -0.142 OA
ATOM     28  O   LIG    1       23.569 -32.620  10.317  0.00  0.00    -0.142 OA
BRANCH  26  29
ATOM     29  O   LIG    1       21.647 -32.661   8.863  0.00  0.00    -0.250 OA
ATOM     30  H   LIG    1       21.159 -32.085   8.222  0.00  0.00    +0.245 HD
ENDBRANCH  26  29
ENDBRANCH  21  26
BRANCH  24  31
ATOM     31  S   LIG    1       25.847 -32.649   3.668  0.00  0.00    +0.110 S 
ATOM     32  O   LIG    1       27.157 -33.218   3.858  0.00  0.00    -0.142 OA
ATOM     33  O   LIG    1       25.663 -31.423   2.918  0.00  0.00    -0.142 OA
BRANCH  31  34
ATOM     34  O   LIG    1       24.935 -33.779   2.962  0.00  0.00    -0.250 OA
ATOM     35  H   LIG    1       24.469 -34.296   3.651  0.00  0.00    +0.245 HD
ENDBRANCH  31  34
ENDBRANCH  24  31
ENDBRANCH   1  20
BRANCH   6  36
ATOM     36  C   LIG    1       24.135 -30.672  13.073  0.00  0.00    +0.347 C 
ATOM     37  C   LIG    1       24.279 -31.428  14.377  0.00  0.00    +0.082 C 
ENDBRANCH   6  36
BRANCH   6  38
ATOM     38  C   LIG    1       25.060 -28.299  13.712  0.00  0.00    +0.347 C 
ATOM     39  C   LIG    1       23.841 -27.437  13.441  0.00  0.00    +0.082 C 
ENDBRANCH   6  38
TORSDOF 11
ENDMDL
MODEL 5
REMARK VINA RESULT:      -5.2      1.145      3.357
REMARK  Name = *****
REMARK                            x       y       z     vdW  Elec       q    Type
REMARK                         _______ _______ _______ _____ _____    ______ ____
ROOT
ATOM      1  C   LIG    1       24.733 -29.519  12.664  0.00  0.00    -0.002 C 
ATOM      2  C   LIG    1       25.122 -30.118  11.466  0.00  0.00    -0.016 C 
ATOM      3  C   LIG    1       24.257 -30.809  10.467  0.00  0.00    +0.015 C 
ATOM      4  C   LIG    1       24.469 -30.603   9.145  0.00  0.00    +0.078 C 
ATOM      5  C   LIG    1       25.539 -29.604   8.791  0.00  0.00    +0.203 C 
ATOM      6  N   LIG    1       25.441 -28.719   7.839  0.00  0.00    -0.229 N 
ATOM      7  C   LIG    1       26.738 -29.790   9.674  0.00  0.00    +0.078 C 
ATOM      8  C   LIG    1       26.504 -30.137  10.954  0.00  0.00    +0.015 C 
ENDROOT
BRANCH   1  12
ATOM      9  C   LIG    1       20.351 -29.697  13.525  0.00  0.00    +0.030 A 
ATOM     10  C   LIG    1       21.288 -30.438  14.264  0.00  0.00    +0.024 A 
ATOM     11  C   LIG    1       22.693 -30.405  14.013  0.00  0.00    +0.010 A 
ATOM     12  C   LIG    1       23.241 -29.633  12.974  0.00  0.00    -0.017 A 
ATOM     13  C   LIG    1       22.330 -28.823  12.297  0.00  0.00    +0.010 A 
ATOM     14  C   LIG    1       20.950 -28.808  12.626  0.00  0.00    +0.024 A 
BRANCH   9  15
ATOM     15  N   LIG    1       18.971 -29.860  13.666  0.00  0.00    -0.330 N 
BRANCH  15  17
ATOM     16  C   LIG    1       18.285 -31.495  11.794  0.00  0.00    +0.024 C 
ATOM     17  C   LIG    1       18.221 -31.079  13.263  0.00  0.00    +0.102 C 
ENDBRANCH  15  17
BRANCH  15  18
ATOM     18  C   LIG    1       18.188 -28.875  14.456  0.00  0.00    +0.102 C 
ATOM     19  C   LIG    1       16.682 -28.968  14.213  0.00  0.00    +0.024 C 
ENDBRANCH  15  18
ENDBRANCH   9  15
ENDBRANCH   1  12
BRANCH   1  20
ATOM     20  C   LIG    1       25.749 -28.656  13.571  0.00  0.00    +0.012 A 
ATOM     21  C   LIG    1       25.611 -27.426  14.300  0.00  0.00    +0.125 A 
ATOM     22  C   LIG    1       26.736 -26.814  14.966  0.00  0.00    +0.032 A 
ATOM     23  C   LIG    1       28.002 -27.369  14.990  0.00  0.00    +0.031 A 
ATOM     24  C   LIG    1       28.165 -28.561  14.337  0.00  0.00    +0.117 A 
ATOM     25  C   LIG    1       27.088 -29.160  13.634  0.00  0.00    +0.040 A 
BRANCH  21  26
ATOM     26  S   LIG    1       24.138 -26.455  14.650  0.00  0.00    +0.110 S 
ATOM     27  O   LIG    1       24.558 -25.193  15.259  0.00  0.00    -0.142 OA
ATOM     28  O   LIG    1       23.134 -27.258  15.319  0.00  0.00    -0.142 OA
BRANCH  26  29
ATOM     29  O   LIG    1       23.476 -26.113  13.225  0.00  0.00    -0.250 OA
ATOM     30  H   LIG    1       23.607 -26.924  12.673  0.00  0.00    +0.245 HD
ENDBRANCH  26  29
ENDBRANCH  21  26
BRANCH  24  31
ATOM     31  S   LIG    1       29.753 -29.350  14.361  0.00  0.00    +0.110 S 
ATOM     32  O   LIG    1       29.574 -30.673  14.902  0.00  0.00    -0.142 OA
ATOM     33  O   LIG    1       30.684 -28.414  14.959  0.00  0.00    -0.142 OA
BRANCH  31  34
ATOM     34  O   LIG    1       30.181 -29.521  12.814  0.00  0.00    -0.250 OA
ATOM     35  H   LIG    1       30.359 -30.467  12.630  0.00  0.00    +0.245 HD
ENDBRANCH  31  34
ENDBRANCH  24  31
ENDBRANCH   1  20
BRANCH   6  36
ATOM     36  C   LIG    1       26.269 -27.451   7.902  0.00  0.00    +0.347 C 
ATOM     37  C   LIG    1       25.887 -26.443   6.838  0.00  0.00    +0.082 C 
ENDBRANCH   6  36
BRANCH   6  38
ATOM     38  C   LIG    1       24.317 -28.836   6.821  0.00  0.00    +0.347 C 
ATOM     39  C   LIG    1       24.621 -29.635   5.568  0.00  0.00    +0.082 C 
ENDBRANCH   6  38
TORSDOF 11
ENDMDL
MODEL 6
REMARK VINA RESULT:      -5.2      4.185      7.684
REMARK  Name = *****
REMARK                            x       y       z     vdW  Elec       q    Type
REMARK                         _______ _______ _______ _____ _____    ______ ____
ROOT
ATOM      1  C   LIG    1       24.920 -30.732   9.618  0.00  0.00    -0.002 C 
ATOM      2  C   LIG    1       24.047 -31.693  10.126  0.00  0.00    -0.016 C 
ATOM      3  C   LIG    1       23.796 -32.036  11.555  0.00  0.00    +0.015 C 
ATOM      4  C   LIG    1       22.529 -32.268  11.973  0.00  0.00    +0.078 C 
ATOM      5  C   LIG    1       21.444 -32.078  10.946  0.00  0.00    +0.203 C 
ATOM      6  N   LIG    1       20.295 -31.506  11.179  0.00  0.00    -0.229 N 
ATOM      7  C   LIG    1       21.866 -32.657   9.628  0.00  0.00    +0.078 C 
ATOM      8  C   LIG    1       23.168 -32.539   9.300  0.00  0.00    +0.015 C 
ENDROOT
BRANCH   1  12
ATOM      9  C   LIG    1       27.155 -28.429  12.728  0.00  0.00    +0.030 A 
ATOM     10  C   LIG    1       27.813 -29.173  11.734  0.00  0.00    +0.024 A 
ATOM     11  C   LIG    1       27.128 -29.919  10.728  0.00  0.00    +0.010 A 
ATOM     12  C   LIG    1       25.724 -29.983  10.680  0.00  0.00    -0.017 A 
ATOM     13  C   LIG    1       25.065 -29.174  11.604  0.00  0.00    +0.010 A 
ATOM     14  C   LIG    1       25.771 -28.370  12.537  0.00  0.00    +0.024 A 
BRANCH   9  15
ATOM     15  N   LIG    1       27.825 -27.839  13.803  0.00  0.00    -0.330 N 
BRANCH  15  17
ATOM     16  C   LIG    1       27.476 -25.293  13.585  0.00  0.00    +0.024 C 
ATOM     17  C   LIG    1       27.429 -26.558  14.443  0.00  0.00    +0.102 C 
ENDBRANCH  15  17
BRANCH  15  18
ATOM     18  C   LIG    1       28.877 -28.601  14.525  0.00  0.00    +0.102 C 
ATOM     19  C   LIG    1       28.329 -29.801  15.297  0.00  0.00    +0.024 C 
ENDBRANCH  15  18
ENDBRANCH   9  15
ENDBRANCH   1  12
BRANCH   1  20
ATOM     20  C   LIG    1       24.969 -30.346   8.054  0.00  0.00    +0.012 A 
ATOM     21  C   LIG    1       25.025 -31.128   6.850  0.00  0.00    +0.125 A 
ATOM     22  C   LIG    1       25.159 -30.509   5.553  0.00  0.00    +0.032 A 
ATOM     23  C   LIG    1       25.202 -29.141   5.363  0.00  0.00    +0.031 A 
ATOM     24  C   LIG    1       25.114 -28.359   6.484  0.00  0.00    +0.117 A 
ATOM     25  C   LIG    1       25.031 -28.942   7.774  0.00  0.00    +0.040 A 
BRANCH  21  26
ATOM     26  S   LIG    1       24.853 -32.905   6.624  0.00  0.00    +0.110 S 
ATOM     27  O   LIG    1       23.440 -33.201   6.396  0.00  0.00    -0.142 OA
ATOM     28  O   LIG    1       25.566 -33.629   7.657  0.00  0.00    -0.142 OA
BRANCH  26  29
ATOM     29  O   LIG    1       25.652 -33.265   5.276  0.00  0.00    -0.250 OA
ATOM     30  H   LIG    1       25.221 -32.730   4.563  0.00  0.00    +0.245 HD
ENDBRANCH  26  29
ENDBRANCH  21  26
BRANCH  24  31
ATOM     31  S   LIG    1       25.124 -26.594   6.309  0.00  0.00    +0.110 S 
ATOM     32  O   LIG    1       25.979 -26.061   7.338  0.00  0.00    -0.142 OA
ATOM     33  O   LIG    1       23.744 -26.170   6.186  0.00  0.00    -0.142 OA
BRANCH  31  34
ATOM     34  O   LIG    1       25.840 -26.298   4.893  0.00  0.00    -0.250 OA
ATOM     35  H   LIG    1       25.334 -25.611   4.411  0.00  0.00    +0.245 HD
ENDBRANCH  31  34
ENDBRANCH  24  31
ENDBRANCH   1  20
BRANCH   6  36
ATOM     36  C   LIG    1       19.524 -30.874  10.037  0.00  0.00    +0.347 C 
ATOM     37  C   LIG    1       18.097 -31.371   9.943  0.00  0.00    +0.082 C 
ENDBRANCH   6  36
BRANCH   6  38
ATOM     38  C   LIG    1       19.866 -31.245  12.614  0.00  0.00    +0.347 C 
ATOM     39  C   LIG    1       20.135 -29.853  13.156  0.00  0.00    +0.082 C 
ENDBRANCH   6  38
TORSDOF 11
ENDMDL
MODEL 7
REMARK VINA RESULT:      -5.0      4.041      7.255
REMARK  Name = *****
REMARK                            x       y       z     vdW  Elec       q    Type
REMARK                         _______ _______ _______ _____ _____    ______ ____
ROOT
ATOM      1  C   LIG    1       23.000 -30.602  12.743  0.00  0.00    -0.002 C 
ATOM      2  C   LIG    1       24.097 -30.235  13.522  0.00  0.00    -0.016 C 
ATOM      3  C   LIG    1       25.527 -30.156  13.105  0.00  0.00    +0.015 C 
ATOM      4  C   LIG    1       26.287 -29.116  13.525  0.00  0.00    +0.078 C 
ATOM      5  C   LIG    1       25.582 -28.058  14.332  0.00  0.00    +0.203 C 
ATOM      6  N   LIG    1       25.769 -26.775  14.198  0.00  0.00    -0.229 N 
ATOM      7  C   LIG    1       24.653 -28.694  15.324  0.00  0.00    +0.078 C 
ATOM      8  C   LIG    1       24.015 -29.814  14.932  0.00  0.00    +0.015 C 
ENDROOT
BRANCH   1  12
ATOM      9  C   LIG    1       23.933 -31.624   8.494  0.00  0.00    +0.030 A 
ATOM     10  C   LIG    1       23.705 -32.612   9.467  0.00  0.00    +0.024 A 
ATOM     11  C   LIG    1       23.407 -32.318  10.831  0.00  0.00    +0.010 A 
ATOM     12  C   LIG    1       23.345 -30.997  11.308  0.00  0.00    -0.017 A 
ATOM     13  C   LIG    1       23.477 -30.011  10.332  0.00  0.00    +0.010 A 
ATOM     14  C   LIG    1       23.685 -30.330   8.965  0.00  0.00    +0.024 A 
BRANCH   9  15
ATOM     15  N   LIG    1       24.386 -31.917   7.206  0.00  0.00    -0.330 N 
BRANCH  15  17
ATOM     16  C   LIG    1       24.107 -33.298   5.046  0.00  0.00    +0.024 C 
ATOM     17  C   LIG    1       23.512 -32.343   6.081  0.00  0.00    +0.102 C 
ENDBRANCH  15  17
BRANCH  15  18
ATOM     18  C   LIG    1       25.786 -31.595   6.824  0.00  0.00    +0.102 C 
ATOM     19  C   LIG    1       26.817 -32.100   7.832  0.00  0.00    +0.024 C 
ENDBRANCH  15  18
ENDBRANCH   9  15
ENDBRANCH   1  12
BRANCH   1  20
ATOM     20  C   LIG    1       21.483 -30.480  13.273  0.00  0.00    +0.012 A 
ATOM     21  C   LIG    1       20.461 -31.450  13.557  0.00  0.00    +0.125 A 
ATOM     22  C   LIG    1       19.127 -31.050  13.939  0.00  0.00    +0.032 A 
ATOM     23  C   LIG    1       18.743 -29.732  14.099  0.00  0.00    +0.031 A 
ATOM     24  C   LIG    1       19.700 -28.779  13.875  0.00  0.00    +0.117 A 
ATOM     25  C   LIG    1       21.004 -29.142  13.451  0.00  0.00    +0.040 A 
BRANCH  21  26
ATOM     26  S   LIG    1       20.562 -33.244  13.618  0.00  0.00    +0.110 S 
ATOM     27  O   LIG    1       19.415 -33.741  14.376  0.00  0.00    -0.142 OA
ATOM     28  O   LIG    1       21.894 -33.676  13.994  0.00  0.00    -0.142 OA
BRANCH  26  29
ATOM     29  O   LIG    1       20.403 -33.756  12.101  0.00  0.00    -0.250 OA
ATOM     30  H   LIG    1       21.028 -33.201  11.570  0.00  0.00    +0.245 HD
ENDBRANCH  26  29
ENDBRANCH  21  26
BRANCH  24  31
ATOM     31  S   LIG    1       19.286 -27.070  14.101  0.00  0.00    +0.110 S 
ATOM     32  O   LIG    1       20.154 -26.544  15.124  0.00  0.00    -0.142 OA
ATOM     33  O   LIG    1       17.845 -26.993  14.227  0.00  0.00    -0.142 OA
BRANCH  31  34
ATOM     34  O   LIG    1       19.681 -26.336  12.718  0.00  0.00    -0.250 OA
ATOM     35  H   LIG    1       18.929 -25.787  12.416  0.00  0.00    +0.245 HD
ENDBRANCH  31  34
ENDBRANCH  24  31
ENDBRANCH   1  20
BRANCH   6  36
ATOM     36  C   LIG    1       24.679 -25.808  14.616  0.00  0.00    +0.347 C 
ATOM     37  C   LIG    1       23.451 -25.884  13.734  0.00  0.00    +0.082 C 
ENDBRANCH   6  36
BRANCH   6  38
ATOM     38  C   LIG    1       26.952 -26.272  13.386  0.00  0.00    +0.347 C 
ATOM     39  C   LIG    1       27.672 -25.051  13.926  0.00  0.00    +0.082 C 
ENDBRANCH   6  38
TORSDOF 11
ENDMDL
MODEL 8
REMARK VINA RESULT:      -5.0      4.664      8.319
REMARK  Name = *****
REMARK                            x       y       z     vdW  Elec       q    Type
REMARK                         _______ _______ _______ _____ _____    ______ ____
ROOT
ATOM      1  C   LIG    1       25.183 -30.182   9.350  0.00  0.00    -0.002 C 
ATOM      2  C   LIG    1       25.716 -29.960  10.619  0.00  0.00    -0.016 C 
ATOM      3  C   LIG    1       26.295 -28.696  11.158  0.00  0.00    +0.015 C 
ATOM      4  C   LIG    1       26.009 -28.318  12.427  0.00  0.00    +0.078 C 
ATOM      5  C   LIG    1       25.039 -29.192  13.178  0.00  0.00    +0.203 C 
ATOM      6  N   LIG    1       24.086 -28.748  13.950  0.00  0.00    -0.229 N 
ATOM      7  C   LIG    1       25.340 -30.640  12.927  0.00  0.00    +0.078 C 
ATOM      8  C   LIG    1       25.763 -30.969  11.691  0.00  0.00    +0.015 C 
ENDROOT
BRANCH   1  12
ATOM      9  C   LIG    1       25.313 -26.744   6.497  0.00  0.00    +0.030 A 
ATOM     10  C   LIG    1       26.272 -26.910   7.510  0.00  0.00    +0.024 A 
ATOM     11  C   LIG    1       26.257 -27.996   8.437  0.00  0.00    +0.010 A 
ATOM     12  C   LIG    1       25.249 -28.975   8.415  0.00  0.00    -0.017 A 
ATOM     13  C   LIG    1       24.349 -28.870   7.356  0.00  0.00    +0.010 A 
ATOM     14  C   LIG    1       24.438 -27.831   6.394  0.00  0.00    +0.024 A 
BRANCH   9  15
ATOM     15  N   LIG    1       25.238 -25.598   5.703  0.00  0.00    -0.330 N 
BRANCH  15  17
ATOM     16  C   LIG    1       25.973 -26.703   3.492  0.00  0.00    +0.024 C 
ATOM     17  C   LIG    1       25.200 -25.601   4.217  0.00  0.00    +0.102 C 
ENDBRANCH  15  17
BRANCH  15  18
ATOM     18  C   LIG    1       24.962 -24.280   6.333  0.00  0.00    +0.102 C 
ATOM     19  C   LIG    1       23.505 -24.109   6.760  0.00  0.00    +0.024 C 
ENDBRANCH  15  18
ENDBRANCH   9  15
ENDBRANCH   1  12
BRANCH   1  20
ATOM     20  C   LIG    1       24.433 -31.552   8.953  0.00  0.00    +0.012 A 
ATOM     21  C   LIG    1       24.769 -32.637   8.074  0.00  0.00    +0.125 A 
ATOM     22  C   LIG    1       23.849 -33.722   7.827  0.00  0.00    +0.032 A 
ATOM     23  C   LIG    1       22.612 -33.825   8.435  0.00  0.00    +0.031 A 
ATOM     24  C   LIG    1       22.270 -32.829   9.310  0.00  0.00    +0.117 A 
ATOM     25  C   LIG    1       23.134 -31.727   9.533  0.00  0.00    +0.040 A 
BRANCH  21  26
ATOM     26  S   LIG    1       26.306 -32.979   7.204  0.00  0.00    +0.110 S 
ATOM     27  O   LIG    1       26.000 -33.823   6.050  0.00  0.00    -0.142 OA
ATOM     28  O   LIG    1       27.341 -33.399   8.127  0.00  0.00    -0.142 OA
BRANCH  26  29
ATOM     29  O   LIG    1       26.833 -31.565   6.649  0.00  0.00    -0.250 OA
ATOM     30  H   LIG    1       27.672 -31.769   6.163  0.00  0.00    +0.245 HD
ENDBRANCH  26  29
ENDBRANCH  21  26
BRANCH  24  31
ATOM     31  S   LIG    1       20.714 -32.918  10.155  0.00  0.00    +0.110 S 
ATOM     32  O   LIG    1       20.987 -33.205  11.540  0.00  0.00    -0.142 OA
ATOM     33  O   LIG    1       19.849 -33.774   9.368  0.00  0.00    -0.142 OA
BRANCH  31  34
ATOM     34  O   LIG    1       20.093 -31.429  10.091  0.00  0.00    -0.250 OA
ATOM     35  H   LIG    1       20.638 -30.877   9.492  0.00  0.00    +0.245 HD
ENDBRANCH  31  34
ENDBRANCH  24  31
ENDBRANCH   1  20
BRANCH   6  36
ATOM     36  C   LIG    1       22.865 -29.608  14.208  0.00  0.00    +0.347 C 
ATOM     37  C   LIG    1       21.952 -29.713  13.005  0.00  0.00    +0.082 C 
ENDBRANCH   6  36
BRANCH   6  38
ATOM     38  C   LIG    1       24.080 -27.286  14.367  0.00  0.00    +0.347 C 
ATOM     39  C   LIG    1       22.913 -26.449  13.879  0.00  0.00    +0.082 C 
ENDBRANCH   6  38
TORSDOF 11
ENDMDL
MODEL 9
REMARK VINA RESULT:      -4.8      3.988      7.354
REMARK  Name = *****
REMARK                            x       y       z     vdW  Elec       q    Type
REMARK                         _______ _______ _______ _____ _____    ______ ____
ROOT
ATOM      1  C   LIG    1       24.735 -29.755   8.211  0.00  0.00    -0.002 C 
ATOM      2  C   LIG    1       24.514 -30.730   7.238  0.00  0.00    -0.016 C 
ATOM      3  C   LIG    1       24.512 -30.558   5.756  0.00  0.00    +0.015 C 
ATOM      4  C   LIG    1       25.101 -31.495   4.976  0.00  0.00    +0.078 C 
ATOM      5  C   LIG    1       25.795 -32.621   5.696  0.00  0.00    +0.203 C 
ATOM      6  N   LIG    1       26.947 -33.123   5.350  0.00  0.00    -0.229 N 
ATOM      7  C   LIG    1       24.963 -33.092   6.852  0.00  0.00    +0.078 C 
ATOM      8  C   LIG    1       24.269 -32.154   7.526  0.00  0.00    +0.015 C 
ENDROOT
BRANCH   1  12
ATOM      9  C   LIG    1       25.319 -25.683   6.464  0.00  0.00    +0.030 A 
ATOM     10  C   LIG    1       26.307 -26.311   7.241  0.00  0.00    +0.024 A 
ATOM     11  C   LIG    1       26.150 -27.609   7.813  0.00  0.00    +0.010 A 
ATOM     12  C   LIG    1       24.966 -28.350   7.658  0.00  0.00    -0.017 A 
ATOM     13  C   LIG    1       24.018 -27.775   6.812  0.00  0.00    +0.010 A 
ATOM     14  C   LIG    1       24.235 -26.522   6.182  0.00  0.00    +0.024 A 
BRANCH   9  15
ATOM     15  N   LIG    1       25.412 -24.353   6.047  0.00  0.00    -0.330 N 
BRANCH  15  17
ATOM     16  C   LIG    1       25.858 -22.657   7.938  0.00  0.00    +0.024 C 
ATOM     17  C   LIG    1       26.319 -23.342   6.651  0.00  0.00    +0.102 C 
ENDBRANCH  15  17
BRANCH  15  18
ATOM     18  C   LIG    1       24.742 -23.924   4.792  0.00  0.00    +0.102 C 
ATOM     19  C   LIG    1       24.439 -22.427   4.751  0.00  0.00    +0.024 C 
ENDBRANCH  15  18
ENDBRANCH   9  15
ENDBRANCH   1  12
BRANCH   1  20
ATOM     20  C   LIG    1       24.877 -30.111   9.776  0.00  0.00    +0.012 A 
ATOM     21  C   LIG    1       24.014 -30.771  10.716  0.00  0.00    +0.125 A 
ATOM     22  C   LIG    1       24.359 -30.874  12.114  0.00  0.00    +0.032 A 
ATOM     23  C   LIG    1       25.540 -30.392  12.645  0.00  0.00    +0.031 A 
ATOM     24  C   LIG    1       26.407 -29.789  11.773  0.00  0.00    +0.117 A 
ATOM     25  C   LIG    1       26.072 -29.631  10.405  0.00  0.00    +0.040 A 
BRANCH  21  26
ATOM     26  S   LIG    1       22.475 -31.659  10.437  0.00  0.00    +0.110 S 
ATOM     27  O   LIG    1       22.788 -33.080  10.287  0.00  0.00    -0.142 OA
ATOM     28  O   LIG    1       21.676 -31.005   9.421  0.00  0.00    -0.142 OA
BRANCH  26  29
ATOM     29  O   LIG    1       21.608 -31.490  11.780  0.00  0.00    -0.250 OA
ATOM     30  H   LIG    1       20.760 -31.973  11.610  0.00  0.00    +0.245 HD
ENDBRANCH  26  29
ENDBRANCH  21  26
BRANCH  24  31
ATOM     31  S   LIG    1       27.960 -29.183  12.380  0.00  0.00    +0.110 S 
ATOM     32  O   LIG    1       28.958 -29.470  11.382  0.00  0.00    -0.142 OA
ATOM     33  O   LIG    1       28.101 -29.659  13.741  0.00  0.00    -0.142 OA
BRANCH  31  34
ATOM     34  O   LIG    1       27.806 -27.577  12.452  0.00  0.00    -0.250 OA
ATOM     35  H   LIG    1       26.892 -27.328  12.203  0.00  0.00    +0.245 HD
ENDBRANCH  31  34
ENDBRANCH  24  31
ENDBRANCH   1  20
BRANCH   6  36
ATOM     36  C   LIG    1       27.805 -33.824   6.385  0.00  0.00    +0.347 C 
ATOM     37  C   LIG    1       29.277 -33.825   6.030  0.00  0.00    +0.082 C 
ENDBRANCH   6  36
BRANCH   6  38
ATOM     38  C   LIG    1       27.538 -32.776   3.992  0.00  0.00    +0.347 C 
ATOM     39  C   LIG    1       27.077 -33.620   2.819  0.00  0.00    +0.082 C 
ENDBRANCH   6  38
TORSDOF 11
ENDMDL
