MODEL 1
REMARK VINA RESULT:      -9.6      0.000      0.000
REMARK  Name = *****
REMARK                            x       y       z     vdW  Elec       q    Type
REMARK                         _______ _______ _______ _____ _____    ______ ____
ROOT
ATOM      1  C   LIG    1       27.049 -21.981   8.195  0.00  0.00    +0.158 C 
ENDROOT
BRANCH   1   2
ATOM      2  C   LIG    1       27.879 -20.943   7.457  0.00  0.00    -0.017 A 
ATOM      3  C   LIG    1       29.101 -20.494   7.989  0.00  0.00    +0.023 A 
ATOM      4  C   LIG    1       29.888 -19.532   7.327  0.00  0.00    +0.078 A 
ATOM      5  C   LIG    1       29.418 -18.990   6.121  0.00  0.00    +0.129 A 
ATOM      6  C   LIG    1       28.196 -19.406   5.591  0.00  0.00    +0.046 A 
ATOM      7  C   LIG    1       27.438 -20.373   6.255  0.00  0.00    +0.010 A 
BRANCH   4   8
ATOM      8  C   LIG    1       31.174 -19.139   7.974  0.00  0.00    +0.245 C 
ATOM      9  O   LIG    1       31.760 -18.099   7.670  0.00  0.00    -0.270 OA
ATOM     10  N   LIG    1       31.693 -19.973   8.916  0.00  0.00    -0.325 N 
ATOM     11  H   LIG    1       32.562 -19.735   9.368  0.00  0.00    +0.145 HD
ATOM     12  H   LIG    1       31.204 -20.827   9.167  0.00  0.00    +0.145 HD
ENDBRANCH   4   8
BRANCH   5  13
ATOM     13  O   LIG    1       30.135 -18.037   5.442  0.00  0.00    -0.506 OA
ATOM     14  H   LIG    1       30.413 -18.408   4.587  0.00  0.00    +0.292 HD
ENDBRANCH   5  13
ENDBRANCH   1   2
BRANCH   1  15
ATOM     15  O   LIG    1       26.025 -21.358   8.981  0.00  0.00    -0.386 OA
ATOM     16  H   LIG    1       25.172 -21.634   8.611  0.00  0.00    +0.210 HD
ENDBRANCH   1  15
BRANCH   1  17
ATOM     17  C   LIG    1       26.418 -23.070   7.283  0.00  0.00    +0.117 C 
BRANCH  17  18
ATOM     18  N   LIG    1       25.051 -23.473   7.660  0.00  0.00    -0.311 NA
ATOM     19  H   LIG    1       25.093 -24.318   8.231  0.00  0.00    +0.122 HD
BRANCH  18  21
ATOM     20  C   LIG    1       23.845 -25.174   6.371  0.00  0.00    +0.024 C 
ATOM     21  C   LIG    1       24.164 -23.677   6.503  0.00  0.00    +0.051 C 
BRANCH  21  22
ATOM     22  C   LIG    1       22.865 -22.847   6.587  0.00  0.00    +0.023 C 
BRANCH  22  23
ATOM     23  C   LIG    1       23.097 -21.373   6.949  0.00  0.00    +0.036 C 
BRANCH  23  24
ATOM     24  C   LIG    1       23.329 -20.531   5.720  0.00  0.00    -0.047 A 
ATOM     25  C   LIG    1       22.459 -19.481   5.405  0.00  0.00    +0.003 A 
ATOM     26  C   LIG    1       22.694 -18.681   4.287  0.00  0.00    +0.000 A 
ATOM     27  C   LIG    1       23.805 -18.918   3.481  0.00  0.00    +0.000 A 
ATOM     28  C   LIG    1       24.671 -19.968   3.780  0.00  0.00    +0.000 A 
ATOM     29  C   LIG    1       24.433 -20.774   4.893  0.00  0.00    +0.003 A 
ENDBRANCH  23  24
ENDBRANCH  22  23
ENDBRANCH  21  22
ENDBRANCH  18  21
ENDBRANCH  17  18
ENDBRANCH   1  17
TORSDOF 10
ENDMDL
MODEL 2
REMARK VINA RESULT:      -9.5      1.561      3.718
REMARK  Name = *****
REMARK                            x       y       z     vdW  Elec       q    Type
REMARK                         _______ _______ _______ _____ _____    ______ ____
ROOT
ATOM      1  C   LIG    1       26.804 -20.608   6.499  0.00  0.00    +0.158 C 
ENDROOT
BRANCH   1   2
ATOM      2  C   LIG    1       28.243 -20.149   6.678  0.00  0.00    -0.017 A 
ATOM      3  C   LIG    1       29.068 -20.746   7.648  0.00  0.00    +0.023 A 
ATOM      4  C   LIG    1       30.403 -20.339   7.836  0.00  0.00    +0.078 A 
ATOM      5  C   LIG    1       30.905 -19.289   7.053  0.00  0.00    +0.129 A 
ATOM      6  C   LIG    1       30.093 -18.670   6.103  0.00  0.00    +0.046 A 
ATOM      7  C   LIG    1       28.776 -19.099   5.920  0.00  0.00    +0.010 A 
BRANCH   4   8
ATOM      8  C   LIG    1       31.192 -21.051   8.884  0.00  0.00    +0.245 C 
ATOM      9  O   LIG    1       32.240 -20.584   9.334  0.00  0.00    -0.270 OA
ATOM     10  N   LIG    1       30.723 -22.248   9.330  0.00  0.00    -0.325 N 
ATOM     11  H   LIG    1       31.236 -22.753  10.036  0.00  0.00    +0.145 HD
ATOM     12  H   LIG    1       29.856 -22.627   8.961  0.00  0.00    +0.145 HD
ENDBRANCH   4   8
BRANCH   5  13
ATOM     13  O   LIG    1       32.193 -18.840   7.206  0.00  0.00    -0.506 OA
ATOM     14  H   LIG    1       32.399 -18.807   8.157  0.00  0.00    +0.292 HD
ENDBRANCH   5  13
ENDBRANCH   1   2
BRANCH   1  15
ATOM     15  O   LIG    1       26.011 -20.278   7.647  0.00  0.00    -0.386 OA
ATOM     16  H   LIG    1       26.022 -19.312   7.734  0.00  0.00    +0.210 HD
ENDBRANCH   1  15
BRANCH   1  17
ATOM     17  C   LIG    1       26.112 -20.072   5.214  0.00  0.00    +0.117 C 
BRANCH  17  18
ATOM     18  N   LIG    1       24.914 -20.824   4.801  0.00  0.00    -0.311 NA
ATOM     19  H   LIG    1       24.803 -20.754   3.788  0.00  0.00    +0.122 HD
BRANCH  18  21
ATOM     20  C   LIG    1       22.896 -19.455   4.553  0.00  0.00    +0.024 C 
ATOM     21  C   LIG    1       23.686 -20.386   5.485  0.00  0.00    +0.051 C 
BRANCH  21  22
ATOM     22  C   LIG    1       22.806 -21.563   5.956  0.00  0.00    +0.023 C 
BRANCH  22  23
ATOM     23  C   LIG    1       23.322 -22.248   7.230  0.00  0.00    +0.036 C 
BRANCH  23  24
ATOM     24  C   LIG    1       24.059 -23.524   6.913  0.00  0.00    -0.047 A 
ATOM     25  C   LIG    1       23.377 -24.623   6.379  0.00  0.00    +0.003 A 
ATOM     26  C   LIG    1       24.065 -25.791   6.054  0.00  0.00    +0.000 A 
ATOM     27  C   LIG    1       25.442 -25.868   6.251  0.00  0.00    +0.000 A 
ATOM     28  C   LIG    1       26.129 -24.783   6.792  0.00  0.00    +0.000 A 
ATOM     29  C   LIG    1       25.441 -23.616   7.125  0.00  0.00    +0.003 A 
ENDBRANCH  23  24
ENDBRANCH  22  23
ENDBRANCH  21  22
ENDBRANCH  18  21
ENDBRANCH  17  18
ENDBRANCH   1  17
TORSDOF 10
ENDMDL
MODEL 3
REMARK VINA RESULT:      -9.4      1.801      2.618
REMARK  Name = *****
REMARK                            x       y       z     vdW  Elec       q    Type
REMARK                         _______ _______ _______ _____ _____    ______ ____
ROOT
ATOM      1  C   LIG    1       27.419 -19.987   6.386  0.00  0.00    +0.158 C 
ENDROOT
BRANCH   1   2
ATOM      2  C   LIG    1       28.733 -19.785   7.123  0.00  0.00    -0.017 A 
ATOM      3  C   LIG    1       29.338 -20.851   7.812  0.00  0.00    +0.023 A 
ATOM      4  C   LIG    1       30.554 -20.691   8.504  0.00  0.00    +0.078 A 
ATOM      5  C   LIG    1       31.155 -19.424   8.527  0.00  0.00    +0.129 A 
ATOM      6  C   LIG    1       30.555 -18.349   7.871  0.00  0.00    +0.046 A 
ATOM      7  C   LIG    1       29.358 -18.532   7.176  0.00  0.00    +0.010 A 
BRANCH   4   8
ATOM      8  C   LIG    1       31.114 -21.894   9.187  0.00  0.00    +0.245 C 
ATOM      9  O   LIG    1       30.773 -22.207  10.329  0.00  0.00    -0.270 OA
ATOM     10  N   LIG    1       32.028 -22.642   8.511  0.00  0.00    -0.325 N 
ATOM     11  H   LIG    1       32.425 -23.459   8.948  0.00  0.00    +0.145 HD
ATOM     12  H   LIG    1       32.302 -22.384   7.567  0.00  0.00    +0.145 HD
ENDBRANCH   4   8
BRANCH   5  13
ATOM     13  O   LIG    1       32.330 -19.206   9.201  0.00  0.00    -0.506 OA
ATOM     14  H   LIG    1       33.026 -18.999   8.553  0.00  0.00    +0.292 HD
ENDBRANCH   5  13
ENDBRANCH   1   2
BRANCH   1  15
ATOM     15  O   LIG    1       27.645 -20.346   5.017  0.00  0.00    -0.386 OA
ATOM     16  H   LIG    1       28.274 -19.702   4.653  0.00  0.00    +0.210 HD
ENDBRANCH   1  15
BRANCH   1  17
ATOM     17  C   LIG    1       26.462 -21.020   7.046  0.00  0.00    +0.117 C 
BRANCH  17  18
ATOM     18  N   LIG    1       26.651 -22.410   6.595  0.00  0.00    -0.311 NA
ATOM     19  H   LIG    1       27.193 -22.415   5.729  0.00  0.00    +0.122 HD
BRANCH  18  21
ATOM     20  C   LIG    1       25.573 -24.593   6.884  0.00  0.00    +0.024 C 
ATOM     21  C   LIG    1       25.387 -23.142   6.415  0.00  0.00    +0.051 C 
BRANCH  21  22
ATOM     22  C   LIG    1       24.198 -22.479   7.145  0.00  0.00    +0.023 C 
BRANCH  22  23
ATOM     23  C   LIG    1       22.983 -22.226   6.242  0.00  0.00    +0.036 C 
BRANCH  23  24
ATOM     24  C   LIG    1       23.201 -21.039   5.340  0.00  0.00    -0.047 A 
ATOM     25  C   LIG    1       24.123 -21.107   4.290  0.00  0.00    +0.003 A 
ATOM     26  C   LIG    1       24.300 -20.020   3.434  0.00  0.00    +0.000 A 
ATOM     27  C   LIG    1       23.550 -18.860   3.615  0.00  0.00    +0.000 A 
ATOM     28  C   LIG    1       22.637 -18.778   4.665  0.00  0.00    +0.000 A 
ATOM     29  C   LIG    1       22.465 -19.862   5.527  0.00  0.00    +0.003 A 
ENDBRANCH  23  24
ENDBRANCH  22  23
ENDBRANCH  21  22
ENDBRANCH  18  21
ENDBRANCH  17  18
ENDBRANCH   1  17
TORSDOF 10
ENDMDL
MODEL 4
REMARK VINA RESULT:      -9.4      1.944      4.098
REMARK  Name = *****
REMARK                            x       y       z     vdW  Elec       q    Type
REMARK                         _______ _______ _______ _____ _____    ______ ____
ROOT
ATOM      1  C   LIG    1       27.470 -19.862   6.367  0.00  0.00    +0.158 C 
ENDROOT
BRANCH   1   2
ATOM      2  C   LIG    1       28.698 -20.184   7.202  0.00  0.00    -0.017 A 
ATOM      3  C   LIG    1       29.535 -19.155   7.671  0.00  0.00    +0.023 A 
ATOM      4  C   LIG    1       30.679 -19.427   8.445  0.00  0.00    +0.078 A 
ATOM      5  C   LIG    1       31.003 -20.762   8.725  0.00  0.00    +0.129 A 
ATOM      6  C   LIG    1       30.198 -21.797   8.247  0.00  0.00    +0.046 A 
ATOM      7  C   LIG    1       29.058 -21.506   7.495  0.00  0.00    +0.010 A 
BRANCH   4   8
ATOM      8  C   LIG    1       31.486 -18.258   8.902  0.00  0.00    +0.245 C 
ATOM      9  O   LIG    1       31.989 -17.466   8.101  0.00  0.00    -0.270 OA
ATOM     10  N   LIG    1       31.662 -18.089  10.240  0.00  0.00    -0.325 N 
ATOM     11  H   LIG    1       32.205 -17.310  10.578  0.00  0.00    +0.145 HD
ATOM     12  H   LIG    1       31.242 -18.741  10.897  0.00  0.00    +0.145 HD
ENDBRANCH   4   8
BRANCH   5  13
ATOM     13  O   LIG    1       32.117 -21.086   9.459  0.00  0.00    -0.506 OA
ATOM     14  H   LIG    1       31.829 -21.475  10.304  0.00  0.00    +0.292 HD
ENDBRANCH   5  13
ENDBRANCH   1   2
BRANCH   1  15
ATOM     15  O   LIG    1       27.683 -20.191   4.988  0.00  0.00    -0.386 OA
ATOM     16  H   LIG    1       28.494 -20.722   4.942  0.00  0.00    +0.210 HD
ENDBRANCH   1  15
BRANCH   1  17
ATOM     17  C   LIG    1       26.157 -20.528   6.866  0.00  0.00    +0.117 C 
BRANCH  17  18
ATOM     18  N   LIG    1       25.054 -20.526   5.888  0.00  0.00    -0.311 NA
ATOM     19  H   LIG    1       25.096 -19.670   5.332  0.00  0.00    +0.122 HD
BRANCH  18  21
ATOM     20  C   LIG    1       22.662 -20.745   5.401  0.00  0.00    +0.024 C 
ATOM     21  C   LIG    1       23.727 -20.674   6.506  0.00  0.00    +0.051 C 
BRANCH  21  22
ATOM     22  C   LIG    1       23.629 -21.901   7.438  0.00  0.00    +0.023 C 
BRANCH  22  23
ATOM     23  C   LIG    1       22.993 -23.130   6.776  0.00  0.00    +0.036 C 
BRANCH  23  24
ATOM     24  C   LIG    1       24.002 -24.229   6.562  0.00  0.00    -0.047 A 
ATOM     25  C   LIG    1       25.349 -24.027   6.884  0.00  0.00    +0.003 A 
ATOM     26  C   LIG    1       26.277 -25.054   6.718  0.00  0.00    +0.000 A 
ATOM     27  C   LIG    1       25.865 -26.296   6.238  0.00  0.00    +0.000 A 
ATOM     28  C   LIG    1       24.528 -26.504   5.904  0.00  0.00    +0.000 A 
ATOM     29  C   LIG    1       23.600 -25.474   6.062  0.00  0.00    +0.003 A 
ENDBRANCH  23  24
ENDBRANCH  22  23
ENDBRANCH  21  22
ENDBRANCH  18  21
ENDBRANCH  17  18
ENDBRANCH   1  17
TORSDOF 10
ENDMDL
MODEL 5
REMARK VINA RESULT:      -9.3      2.728      7.997
REMARK  Name = *****
REMARK                            x       y       z     vdW  Elec       q    Type
REMARK                         _______ _______ _______ _____ _____    ______ ____
ROOT
ATOM      1  C   LIG    1       27.021 -20.769   7.832  0.00  0.00    +0.158 C 
ENDROOT
BRANCH   1   2
ATOM      2  C   LIG    1       25.782 -21.586   7.502  0.00  0.00    -0.017 A 
ATOM      3  C   LIG    1       25.899 -22.912   7.050  0.00  0.00    +0.023 A 
ATOM      4  C   LIG    1       24.768 -23.690   6.736  0.00  0.00    +0.078 A 
ATOM      5  C   LIG    1       23.496 -23.109   6.850  0.00  0.00    +0.129 A 
ATOM      6  C   LIG    1       23.363 -21.786   7.273  0.00  0.00    +0.046 A 
ATOM      7  C   LIG    1       24.496 -21.036   7.596  0.00  0.00    +0.010 A 
BRANCH   4   8
ATOM      8  C   LIG    1       25.008 -25.090   6.280  0.00  0.00    +0.245 C 
ATOM      9  O   LIG    1       25.776 -25.844   6.882  0.00  0.00    -0.270 OA
ATOM     10  N   LIG    1       24.356 -25.518   5.165  0.00  0.00    -0.325 N 
ATOM     11  H   LIG    1       24.501 -26.458   4.832  0.00  0.00    +0.145 HD
ATOM     12  H   LIG    1       23.720 -24.896   4.675  0.00  0.00    +0.145 HD
ENDBRANCH   4   8
BRANCH   5  13
ATOM     13  O   LIG    1       22.361 -23.814   6.540  0.00  0.00    -0.506 OA
ATOM     14  H   LIG    1       22.503 -24.749   6.774  0.00  0.00    +0.292 HD
ENDBRANCH   5  13
ENDBRANCH   1   2
BRANCH   1  15
ATOM     15  O   LIG    1       27.856 -21.456   8.772  0.00  0.00    -0.386 OA
ATOM     16  H   LIG    1       28.759 -21.123   8.650  0.00  0.00    +0.210 HD
ENDBRANCH   1  15
BRANCH   1  17
ATOM     17  C   LIG    1       27.863 -20.347   6.595  0.00  0.00    +0.117 C 
BRANCH  17  18
ATOM     18  N   LIG    1       29.268 -20.793   6.625  0.00  0.00    -0.311 NA
ATOM     19  H   LIG    1       29.402 -21.438   7.406  0.00  0.00    +0.122 HD
BRANCH  18  21
ATOM     20  C   LIG    1       29.647 -18.458   5.984  0.00  0.00    +0.024 C 
ATOM     21  C   LIG    1       30.230 -19.683   6.704  0.00  0.00    +0.051 C 
BRANCH  21  22
ATOM     22  C   LIG    1       30.622 -19.328   8.155  0.00  0.00    +0.023 C 
BRANCH  22  23
ATOM     23  C   LIG    1       30.047 -17.989   8.640  0.00  0.00    +0.036 C 
BRANCH  23  24
ATOM     24  C   LIG    1       30.968 -17.314   9.623  0.00  0.00    -0.047 A 
ATOM     25  C   LIG    1       30.663 -17.306  10.989  0.00  0.00    +0.003 A 
ATOM     26  C   LIG    1       31.532 -16.711  11.903  0.00  0.00    +0.000 A 
ATOM     27  C   LIG    1       32.718 -16.128  11.461  0.00  0.00    +0.000 A 
ATOM     28  C   LIG    1       33.025 -16.120  10.102  0.00  0.00    +0.000 A 
ATOM     29  C   LIG    1       32.152 -16.708   9.185  0.00  0.00    +0.003 A 
ENDBRANCH  23  24
ENDBRANCH  22  23
ENDBRANCH  21  22
ENDBRANCH  18  21
ENDBRANCH  17  18
ENDBRANCH   1  17
TORSDOF 10
ENDMDL
MODEL 6
REMARK VINA RESULT:      -9.3      2.105      4.513
REMARK  Name = *****
REMARK                            x       y       z     vdW  Elec       q    Type
REMARK                         _______ _______ _______ _____ _____    ______ ____
ROOT
ATOM      1  C   LIG    1       27.399 -20.066   6.345  0.00  0.00    +0.158 C 
ENDROOT
BRANCH   1   2
ATOM      2  C   LIG    1       28.714 -19.870   7.082  0.00  0.00    -0.017 A 
ATOM      3  C   LIG    1       29.317 -20.940   7.766  0.00  0.00    +0.023 A 
ATOM      4  C   LIG    1       30.534 -20.785   8.457  0.00  0.00    +0.078 A 
ATOM      5  C   LIG    1       31.138 -19.519   8.484  0.00  0.00    +0.129 A 
ATOM      6  C   LIG    1       30.541 -18.440   7.832  0.00  0.00    +0.046 A 
ATOM      7  C   LIG    1       29.343 -18.618   7.138  0.00  0.00    +0.010 A 
BRANCH   4   8
ATOM      8  C   LIG    1       31.092 -21.991   9.136  0.00  0.00    +0.245 C 
ATOM      9  O   LIG    1       30.673 -22.369  10.232  0.00  0.00    -0.270 OA
ATOM     10  N   LIG    1       32.092 -22.669   8.510  0.00  0.00    -0.325 N 
ATOM     11  H   LIG    1       32.489 -23.487   8.946  0.00  0.00    +0.145 HD
ATOM     12  H   LIG    1       32.431 -22.358   7.604  0.00  0.00    +0.145 HD
ENDBRANCH   4   8
BRANCH   5  13
ATOM     13  O   LIG    1       32.315 -19.307   9.158  0.00  0.00    -0.506 OA
ATOM     14  H   LIG    1       32.113 -19.165  10.099  0.00  0.00    +0.292 HD
ENDBRANCH   5  13
ENDBRANCH   1   2
BRANCH   1  15
ATOM     15  O   LIG    1       27.620 -20.298   4.948  0.00  0.00    -0.386 OA
ATOM     16  H   LIG    1       27.667 -19.430   4.518  0.00  0.00    +0.210 HD
ENDBRANCH   1  15
BRANCH   1  17
ATOM     17  C   LIG    1       26.496 -21.190   6.926  0.00  0.00    +0.117 C 
BRANCH  17  18
ATOM     18  N   LIG    1       25.254 -20.716   7.563  0.00  0.00    -0.311 NA
ATOM     19  H   LIG    1       25.331 -20.823   8.576  0.00  0.00    +0.122 HD
BRANCH  18  21
ATOM     20  C   LIG    1       23.191 -20.385   6.282  0.00  0.00    +0.024 C 
ATOM     21  C   LIG    1       24.047 -21.393   7.063  0.00  0.00    +0.051 C 
BRANCH  21  22
ATOM     22  C   LIG    1       24.366 -22.629   6.194  0.00  0.00    +0.023 C 
BRANCH  22  23
ATOM     23  C   LIG    1       23.737 -23.929   6.716  0.00  0.00    +0.036 C 
BRANCH  23  24
ATOM     24  C   LIG    1       24.529 -25.138   6.288  0.00  0.00    -0.047 A 
ATOM     25  C   LIG    1       25.912 -25.189   6.496  0.00  0.00    +0.003 A 
ATOM     26  C   LIG    1       26.639 -26.321   6.131  0.00  0.00    +0.000 A 
ATOM     27  C   LIG    1       25.989 -27.416   5.565  0.00  0.00    +0.000 A 
ATOM     28  C   LIG    1       24.614 -27.371   5.344  0.00  0.00    +0.000 A 
ATOM     29  C   LIG    1       23.886 -26.235   5.701  0.00  0.00    +0.003 A 
ENDBRANCH  23  24
ENDBRANCH  22  23
ENDBRANCH  21  22
ENDBRANCH  18  21
ENDBRANCH  17  18
ENDBRANCH   1  17
TORSDOF 10
ENDMDL
MODEL 7
REMARK VINA RESULT:      -9.1      1.659      4.128
REMARK  Name = *****
REMARK                            x       y       z     vdW  Elec       q    Type
REMARK                         _______ _______ _______ _____ _____    ______ ____
ROOT
ATOM      1  C   LIG    1       26.489 -21.511   7.696  0.00  0.00    +0.158 C 
ENDROOT
BRANCH   1   2
ATOM      2  C   LIG    1       27.821 -20.861   7.357  0.00  0.00    -0.017 A 
ATOM      3  C   LIG    1       28.968 -21.141   8.120  0.00  0.00    +0.023 A 
ATOM      4  C   LIG    1       30.213 -20.551   7.829  0.00  0.00    +0.078 A 
ATOM      5  C   LIG    1       30.295 -19.638   6.768  0.00  0.00    +0.129 A 
ATOM      6  C   LIG    1       29.162 -19.329   6.016  0.00  0.00    +0.046 A 
ATOM      7  C   LIG    1       27.939 -19.937   6.310  0.00  0.00    +0.010 A 
BRANCH   4   8
ATOM      8  C   LIG    1       31.368 -20.933   8.695  0.00  0.00    +0.245 C 
ATOM      9  O   LIG    1       31.998 -20.092   9.340  0.00  0.00    -0.270 OA
ATOM     10  N   LIG    1       31.716 -22.247   8.749  0.00  0.00    -0.325 N 
ATOM     11  H   LIG    1       32.493 -22.533   9.324  0.00  0.00    +0.145 HD
ATOM     12  H   LIG    1       31.191 -22.937   8.220  0.00  0.00    +0.145 HD
ENDBRANCH   4   8
BRANCH   5  13
ATOM     13  O   LIG    1       31.479 -19.019   6.451  0.00  0.00    -0.506 OA
ATOM     14  H   LIG    1       31.633 -18.299   7.088  0.00  0.00    +0.292 HD
ENDBRANCH   5  13
ENDBRANCH   1   2
BRANCH   1  15
ATOM     15  O   LIG    1       26.415 -21.838   9.089  0.00  0.00    -0.386 OA
ATOM     16  H   LIG    1       27.273 -22.215   9.341  0.00  0.00    +0.210 HD
ENDBRANCH   1  15
BRANCH   1  17
ATOM     17  C   LIG    1       25.242 -20.677   7.288  0.00  0.00    +0.117 C 
BRANCH  17  18
ATOM     18  N   LIG    1       23.977 -21.120   7.902  0.00  0.00    -0.311 NA
ATOM     19  H   LIG    1       24.179 -21.778   8.656  0.00  0.00    +0.122 HD
BRANCH  18  21
ATOM     20  C   LIG    1       23.212 -21.027   5.574  0.00  0.00    +0.024 C 
ATOM     21  C   LIG    1       23.038 -21.715   6.937  0.00  0.00    +0.051 C 
BRANCH  21  22
ATOM     22  C   LIG    1       23.202 -23.245   6.802  0.00  0.00    +0.023 C 
BRANCH  22  23
ATOM     23  C   LIG    1       24.353 -23.662   5.876  0.00  0.00    +0.036 C 
BRANCH  23  24
ATOM     24  C   LIG    1       24.747 -25.100   6.095  0.00  0.00    -0.047 A 
ATOM     25  C   LIG    1       25.832 -25.419   6.920  0.00  0.00    +0.003 A 
ATOM     26  C   LIG    1       26.176 -26.751   7.150  0.00  0.00    +0.000 A 
ATOM     27  C   LIG    1       25.433 -27.775   6.567  0.00  0.00    +0.000 A 
ATOM     28  C   LIG    1       24.357 -27.467   5.736  0.00  0.00    +0.000 A 
ATOM     29  C   LIG    1       24.017 -26.135   5.498  0.00  0.00    +0.003 A 
ENDBRANCH  23  24
ENDBRANCH  22  23
ENDBRANCH  21  22
ENDBRANCH  18  21
ENDBRANCH  17  18
ENDBRANCH   1  17
TORSDOF 10
ENDMDL
MODEL 8
REMARK VINA RESULT:      -9.0      2.302      5.070
REMARK  Name = *****
REMARK                            x       y       z     vdW  Elec       q    Type
REMARK                         _______ _______ _______ _____ _____    ______ ____
ROOT
ATOM      1  C   LIG    1       26.408 -21.748   7.776  0.00  0.00    +0.158 C 
ENDROOT
BRANCH   1   2
ATOM      2  C   LIG    1       27.688 -21.013   7.413  0.00  0.00    -0.017 A 
ATOM      3  C   LIG    1       28.871 -21.236   8.140  0.00  0.00    +0.023 A 
ATOM      4  C   LIG    1       30.070 -20.567   7.826  0.00  0.00    +0.078 A 
ATOM      5  C   LIG    1       30.068 -19.633   6.780  0.00  0.00    +0.129 A 
ATOM      6  C   LIG    1       28.897 -19.381   6.065  0.00  0.00    +0.046 A 
ATOM      7  C   LIG    1       27.722 -20.067   6.381  0.00  0.00    +0.010 A 
BRANCH   4   8
ATOM      8  C   LIG    1       31.269 -20.892   8.654  0.00  0.00    +0.245 C 
ATOM      9  O   LIG    1       31.927 -20.012   9.214  0.00  0.00    -0.270 OA
ATOM     10  N   LIG    1       31.627 -22.200   8.770  0.00  0.00    -0.325 N 
ATOM     11  H   LIG    1       32.434 -22.449   9.321  0.00  0.00    +0.145 HD
ATOM     12  H   LIG    1       31.080 -22.922   8.312  0.00  0.00    +0.145 HD
ENDBRANCH   4   8
BRANCH   5  13
ATOM     13  O   LIG    1       31.203 -18.939   6.443  0.00  0.00    -0.506 OA
ATOM     14  H   LIG    1       31.691 -19.449   5.773  0.00  0.00    +0.292 HD
ENDBRANCH   5  13
ENDBRANCH   1   2
BRANCH   1  15
ATOM     15  O   LIG    1       25.966 -21.394   9.093  0.00  0.00    -0.386 OA
ATOM     16  H   LIG    1       25.969 -22.206   9.624  0.00  0.00    +0.210 HD
ENDBRANCH   1  15
BRANCH   1  17
ATOM     17  C   LIG    1       25.244 -21.554   6.764  0.00  0.00    +0.117 C 
BRANCH  17  18
ATOM     18  N   LIG    1       25.145 -22.600   5.730  0.00  0.00    -0.311 NA
ATOM     19  H   LIG    1       24.434 -22.335   5.047  0.00  0.00    +0.122 HD
BRANCH  18  21
ATOM     20  C   LIG    1       23.392 -23.994   6.726  0.00  0.00    +0.024 C 
ATOM     21  C   LIG    1       24.860 -23.936   6.278  0.00  0.00    +0.051 C 
BRANCH  21  22
ATOM     22  C   LIG    1       25.173 -25.075   5.284  0.00  0.00    +0.023 C 
BRANCH  22  23
ATOM     23  C   LIG    1       26.230 -26.065   5.793  0.00  0.00    +0.036 C 
BRANCH  23  24
ATOM     24  C   LIG    1       25.600 -27.340   6.292  0.00  0.00    -0.047 A 
ATOM     25  C   LIG    1       25.892 -27.822   7.573  0.00  0.00    +0.003 A 
ATOM     26  C   LIG    1       25.283 -28.983   8.047  0.00  0.00    +0.000 A 
ATOM     27  C   LIG    1       24.369 -29.667   7.249  0.00  0.00    +0.000 A 
ATOM     28  C   LIG    1       24.078 -29.202   5.967  0.00  0.00    +0.000 A 
ATOM     29  C   LIG    1       24.694 -28.044   5.488  0.00  0.00    +0.003 A 
ENDBRANCH  23  24
ENDBRANCH  22  23
ENDBRANCH  21  22
ENDBRANCH  18  21
ENDBRANCH  17  18
ENDBRANCH   1  17
TORSDOF 10
ENDMDL
MODEL 9
REMARK VINA RESULT:      -8.8      1.640      2.323
REMARK  Name = *****
REMARK                            x       y       z     vdW  Elec       q    Type
REMARK                         _______ _______ _______ _____ _____    ______ ____
ROOT
ATOM      1  C   LIG    1       27.505 -19.953   6.556  0.00  0.00    +0.158 C 
ENDROOT
BRANCH   1   2
ATOM      2  C   LIG    1       28.769 -20.226   7.356  0.00  0.00    -0.017 A 
ATOM      3  C   LIG    1       29.581 -19.165   7.794  0.00  0.00    +0.023 A 
ATOM      4  C   LIG    1       30.758 -19.390   8.535  0.00  0.00    +0.078 A 
ATOM      5  C   LIG    1       31.138 -20.712   8.811  0.00  0.00    +0.129 A 
ATOM      6  C   LIG    1       30.357 -21.777   8.363  0.00  0.00    +0.046 A 
ATOM      7  C   LIG    1       29.185 -21.532   7.644  0.00  0.00    +0.010 A 
BRANCH   4   8
ATOM      8  C   LIG    1       31.535 -18.190   8.961  0.00  0.00    +0.245 C 
ATOM      9  O   LIG    1       32.035 -17.417   8.141  0.00  0.00    -0.270 OA
ATOM     10  N   LIG    1       31.688 -17.972  10.296  0.00  0.00    -0.325 N 
ATOM     11  H   LIG    1       32.210 -17.170  10.613  0.00  0.00    +0.145 HD
ATOM     12  H   LIG    1       31.270 -18.608  10.968  0.00  0.00    +0.145 HD
ENDBRANCH   4   8
BRANCH   5  13
ATOM     13  O   LIG    1       32.284 -20.990   9.513  0.00  0.00    -0.506 OA
ATOM     14  H   LIG    1       33.049 -20.703   8.984  0.00  0.00    +0.292 HD
ENDBRANCH   5  13
ENDBRANCH   1   2
BRANCH   1  15
ATOM     15  O   LIG    1       27.773 -19.965   5.148  0.00  0.00    -0.386 OA
ATOM     16  H   LIG    1       28.730 -19.847   5.038  0.00  0.00    +0.210 HD
ENDBRANCH   1  15
BRANCH   1  17
ATOM     17  C   LIG    1       26.323 -20.912   6.871  0.00  0.00    +0.117 C 
BRANCH  17  18
ATOM     18  N   LIG    1       26.374 -22.205   6.166  0.00  0.00    -0.311 NA
ATOM     19  H   LIG    1       26.535 -22.043   5.171  0.00  0.00    +0.122 HD
BRANCH  18  21
ATOM     20  C   LIG    1       25.544 -24.286   7.161  0.00  0.00    +0.024 C 
ATOM     21  C   LIG    1       25.169 -23.026   6.366  0.00  0.00    +0.051 C 
BRANCH  21  22
ATOM     22  C   LIG    1       24.027 -22.258   7.066  0.00  0.00    +0.023 C 
BRANCH  22  23
ATOM     23  C   LIG    1       22.810 -22.006   6.164  0.00  0.00    +0.036 C 
BRANCH  23  24
ATOM     24  C   LIG    1       23.044 -20.847   5.229  0.00  0.00    -0.047 A 
ATOM     25  C   LIG    1       22.402 -19.622   5.445  0.00  0.00    +0.003 A 
ATOM     26  C   LIG    1       22.645 -18.540   4.600  0.00  0.00    +0.000 A 
ATOM     27  C   LIG    1       23.539 -18.669   3.539  0.00  0.00    +0.000 A 
ATOM     28  C   LIG    1       24.175 -19.887   3.310  0.00  0.00    +0.000 A 
ATOM     29  C   LIG    1       23.927 -20.974   4.149  0.00  0.00    +0.003 A 
ENDBRANCH  23  24
ENDBRANCH  22  23
ENDBRANCH  21  22
ENDBRANCH  18  21
ENDBRANCH  17  18
ENDBRANCH   1  17
TORSDOF 10
ENDMDL
