MODEL 1
REMARK VINA RESULT:      -1.8      0.000      0.000
REMARK  Name = *****
REMARK                            x       y       z     vdW  Elec       q    Type
REMARK                         _______ _______ _______ _____ _____    ______ ____
ROOT
ATOM      1  C   LIG    1       25.104 -19.063   3.873  0.00  0.00    +0.114 C 
ENDROOT
BRANCH   1   2
ATOM      2  C   LIG    1       23.588 -19.344   4.207  0.00  0.00    +0.061 A 
ATOM      3  N   LIG    1       23.270 -20.611   4.602  0.00  0.00    -0.259 NA
ATOM      4  C   LIG    1       21.969 -20.920   4.826  0.00  0.00    +0.111 A 
ATOM      5  C   LIG    1       20.934 -20.018   4.703  0.00  0.00    +0.020 A 
ATOM      6  C   LIG    1       21.252 -18.722   4.334  0.00  0.00    +0.003 A 
ATOM      7  C   LIG    1       22.584 -18.378   4.087  0.00  0.00    +0.025 A 
ENDBRANCH   1   2
BRANCH   1   8
ATOM      8  C   LIG    1       26.047 -19.584   5.008  0.00  0.00    -0.027 A 
ATOM      9  C   LIG    1       25.574 -20.438   6.026  0.00  0.00    +0.005 A 
ATOM     10  C   LIG    1       26.439 -21.014   6.967  0.00  0.00    +0.000 A 
ATOM     11  C   LIG    1       27.801 -20.744   6.929  0.00  0.00    +0.000 A 
ATOM     12  C   LIG    1       28.301 -19.902   5.943  0.00  0.00    +0.000 A 
ATOM     13  C   LIG    1       27.441 -19.344   4.986  0.00  0.00    +0.005 A 
ENDBRANCH   1   8
BRANCH   1  14
ATOM     14  C   LIG    1       25.447 -19.743   2.506  0.00  0.00    +0.227 C 
ATOM     15  O   LIG    1       26.446 -19.462   1.812  0.00  0.00    -0.275 OA
ATOM     16  N   LIG    1       24.693 -20.799   2.079  0.00  0.00    -0.328 N 
ATOM     17  H   LIG    1       24.891 -21.124   1.142  0.00  0.00    +0.145 HD
ATOM     18  H   LIG    1       23.738 -20.914   2.410  0.00  0.00    +0.145 HD
ENDBRANCH   1  14
BRANCH   1  19
ATOM     19  C   LIG    1       25.156 -17.485   3.675  0.00  0.00    +0.042 C 
BRANCH  19  20
ATOM     20  C   LIG    1       26.473 -16.765   3.298  0.00  0.00    +0.086 C 
BRANCH  20  21
ATOM     21  N   LIG    1       26.417 -15.268   3.291  0.00  0.00    -0.297 NA
BRANCH  21  23
ATOM     22  C   LIG    1       28.351 -13.652   3.646  0.00  0.00    +0.024 C 
ATOM     23  C   LIG    1       27.291 -14.575   4.277  0.00  0.00    +0.051 C 
ATOM     24  C   LIG    1       26.541 -13.694   5.302  0.00  0.00    +0.024 C 
ENDBRANCH  21  23
BRANCH  21  25
ATOM     25  C   LIG    1       25.078 -14.652   3.071  0.00  0.00    +0.051 C 
ATOM     26  C   LIG    1       25.033 -13.342   2.261  0.00  0.00    +0.024 C 
ATOM     27  C   LIG    1       24.206 -14.447   4.320  0.00  0.00    +0.024 C 
ENDBRANCH  21  25
ENDBRANCH  20  21
ENDBRANCH  19  20
ENDBRANCH   1  19
TORSDOF 8
ENDMDL
