MODEL 1
REMARK VINA RESULT:      -4.6      0.000      0.000
REMARK  Name = *****
REMARK                            x       y       z     vdW  Elec       q    Type
REMARK                         _______ _______ _______ _____ _____    ______ ____
ROOT
ATOM      1  N   LIG    1       26.967 -14.115   3.679  0.00  0.00    +0.239 N 
ATOM      2  C   LIG    1       26.528 -13.933   2.225  0.00  0.00    +0.192 C 
ATOM      3  C   LIG    1       28.193 -13.211   3.944  0.00  0.00    +0.192 C 
ENDROOT
BRANCH   1   4
ATOM      4  C   LIG    1       27.387 -15.578   3.932  0.00  0.00    +0.132 C 
BRANCH   4   5
ATOM      5  C   LIG    1       26.442 -16.591   3.260  0.00  0.00    +0.051 C 
BRANCH   5   6
ATOM      6  C   LIG    1       26.797 -18.041   3.610  0.00  0.00    +0.005 C 
BRANCH   6   7
ATOM      7  C   LIG    1       25.534 -18.888   3.836  0.00  0.00    +0.000 C 
BRANCH   7   8
ATOM      8  C   LIG    1       25.809 -20.291   4.410  0.00  0.00    -0.000 C 
BRANCH   8   9
ATOM      9  C   LIG    1       25.827 -20.344   5.942  0.00  0.00    -0.000 C 
BRANCH   9  11
ATOM     10  C   LIG    1       28.374 -19.932   6.261  0.00  0.00    +0.004 C 
ATOM     11  C   LIG    1       27.155 -20.792   6.574  0.00  0.00    -0.003 C 
ENDBRANCH   9  11
ENDBRANCH   8   9
ENDBRANCH   7   8
ENDBRANCH   6   7
ENDBRANCH   5   6
ENDBRANCH   4   5
ENDBRANCH   1   4
BRANCH   1  12
ATOM     12  C   LIG    1       25.819 -13.645   4.629  0.00  0.00    +0.132 C 
BRANCH  12  13
ATOM     13  C   LIG    1       24.352 -13.673   4.093  0.00  0.00    +0.051 C 
BRANCH  13  14
ATOM     14  C   LIG    1       23.303 -14.542   4.807  0.00  0.00    +0.005 C 
BRANCH  14  15
ATOM     15  C   LIG    1       23.256 -16.023   4.323  0.00  0.00    +0.000 C 
BRANCH  15  16
ATOM     16  C   LIG    1       22.055 -16.875   4.810  0.00  0.00    -0.000 C 
BRANCH  16  17
ATOM     17  C   LIG    1       22.085 -18.342   4.301  0.00  0.00    -0.000 C 
BRANCH  17  18
ATOM     18  C   LIG    1       22.381 -19.375   5.409  0.00  0.00    -0.003 C 
ATOM     19  C   LIG    1       22.197 -20.821   4.942  0.00  0.00    +0.004 C 
ENDBRANCH  17  18
ENDBRANCH  16  17
ENDBRANCH  15  16
ENDBRANCH  14  15
ENDBRANCH  13  14
ENDBRANCH  12  13
ENDBRANCH   1  12
TORSDOF 14
ENDMDL
MODEL 2
REMARK VINA RESULT:      -4.5      2.133      5.527
REMARK  Name = *****
REMARK                            x       y       z     vdW  Elec       q    Type
REMARK                         _______ _______ _______ _____ _____    ______ ____
ROOT
ATOM      1  N   LIG    1       23.517 -20.374   4.745  0.00  0.00    +0.239 N 
ATOM      2  C   LIG    1       22.109 -20.933   4.956  0.00  0.00    +0.192 C 
ATOM      3  C   LIG    1       24.222 -21.205   3.649  0.00  0.00    +0.192 C 
ENDROOT
BRANCH   1   4
ATOM      4  C   LIG    1       24.341 -20.496   6.044  0.00  0.00    +0.132 C 
BRANCH   4   5
ATOM      5  C   LIG    1       25.846 -20.681   5.778  0.00  0.00    +0.051 C 
BRANCH   5   6
ATOM      6  C   LIG    1       26.680 -20.596   7.062  0.00  0.00    +0.005 C 
BRANCH   6   7
ATOM      7  C   LIG    1       27.927 -21.491   6.980  0.00  0.00    +0.000 C 
BRANCH   7   8
ATOM      8  C   LIG    1       29.259 -20.718   6.946  0.00  0.00    -0.000 C 
BRANCH   8   9
ATOM      9  C   LIG    1       29.094 -19.199   6.827  0.00  0.00    -0.000 C 
BRANCH   9  11
ATOM     10  C   LIG    1       28.305 -17.670   4.878  0.00  0.00    +0.004 C 
ATOM     11  C   LIG    1       29.370 -18.608   5.434  0.00  0.00    -0.003 C 
ENDBRANCH   9  11
ENDBRANCH   8   9
ENDBRANCH   7   8
ENDBRANCH   6   7
ENDBRANCH   5   6
ENDBRANCH   4   5
ENDBRANCH   1   4
BRANCH   1  12
ATOM     12  C   LIG    1       23.418 -18.902   4.231  0.00  0.00    +0.132 C 
BRANCH  12  13
ATOM     13  C   LIG    1       22.150 -18.068   4.603  0.00  0.00    +0.051 C 
BRANCH  13  14
ATOM     14  C   LIG    1       22.293 -16.564   4.895  0.00  0.00    +0.005 C 
BRANCH  14  15
ATOM     15  C   LIG    1       23.266 -15.813   3.936  0.00  0.00    +0.000 C 
BRANCH  15  16
ATOM     16  C   LIG    1       23.760 -14.419   4.403  0.00  0.00    -0.000 C 
BRANCH  16  17
ATOM     17  C   LIG    1       25.048 -13.940   3.679  0.00  0.00    -0.000 C 
BRANCH  17  18
ATOM     18  C   LIG    1       26.352 -14.396   4.370  0.00  0.00    -0.003 C 
ATOM     19  C   LIG    1       26.920 -13.345   5.326  0.00  0.00    +0.004 C 
ENDBRANCH  17  18
ENDBRANCH  16  17
ENDBRANCH  15  16
ENDBRANCH  14  15
ENDBRANCH  13  14
ENDBRANCH  12  13
ENDBRANCH   1  12
TORSDOF 14
ENDMDL
MODEL 3
REMARK VINA RESULT:      -4.4      1.228      3.983
REMARK  Name = *****
REMARK                            x       y       z     vdW  Elec       q    Type
REMARK                         _______ _______ _______ _____ _____    ______ ____
ROOT
ATOM      1  N   LIG    1       24.511 -12.940   3.505  0.00  0.00    +0.239 N 
ATOM      2  C   LIG    1       24.931 -12.639   4.945  0.00  0.00    +0.192 C 
ATOM      3  C   LIG    1       23.860 -11.673   2.903  0.00  0.00    +0.192 C 
ENDROOT
BRANCH   1   4
ATOM      4  C   LIG    1       23.465 -14.074   3.480  0.00  0.00    +0.132 C 
BRANCH   4   5
ATOM      5  C   LIG    1       23.488 -14.932   4.759  0.00  0.00    +0.051 C 
BRANCH   5   6
ATOM      6  C   LIG    1       22.373 -15.984   4.776  0.00  0.00    +0.005 C 
BRANCH   6   7
ATOM      7  C   LIG    1       22.758 -17.222   3.951  0.00  0.00    +0.000 C 
BRANCH   7   8
ATOM      8  C   LIG    1       21.953 -18.489   4.300  0.00  0.00    -0.000 C 
BRANCH   8   9
ATOM      9  C   LIG    1       22.505 -19.266   5.499  0.00  0.00    -0.000 C 
BRANCH   9  11
ATOM     10  C   LIG    1       23.293 -21.570   6.410  0.00  0.00    +0.004 C 
ATOM     11  C   LIG    1       22.519 -20.797   5.350  0.00  0.00    -0.003 C 
ENDBRANCH   9  11
ENDBRANCH   8   9
ENDBRANCH   7   8
ENDBRANCH   6   7
ENDBRANCH   5   6
ENDBRANCH   4   5
ENDBRANCH   1   4
BRANCH   1  12
ATOM     12  C   LIG    1       25.778 -13.270   2.654  0.00  0.00    +0.132 C 
BRANCH  12  13
ATOM     13  C   LIG    1       27.122 -13.554   3.399  0.00  0.00    +0.051 C 
BRANCH  13  14
ATOM     14  C   LIG    1       27.489 -15.000   3.773  0.00  0.00    +0.005 C 
BRANCH  14  15
ATOM     15  C   LIG    1       26.517 -16.078   3.204  0.00  0.00    +0.000 C 
BRANCH  15  16
ATOM     16  C   LIG    1       26.665 -17.514   3.770  0.00  0.00    -0.000 C 
BRANCH  16  17
ATOM     17  C   LIG    1       25.524 -18.475   3.337  0.00  0.00    -0.000 C 
BRANCH  17  18
ATOM     18  C   LIG    1       25.691 -19.914   3.873  0.00  0.00    -0.003 C 
ATOM     19  C   LIG    1       26.445 -19.972   5.203  0.00  0.00    +0.004 C 
ENDBRANCH  17  18
ENDBRANCH  16  17
ENDBRANCH  15  16
ENDBRANCH  14  15
ENDBRANCH  13  14
ENDBRANCH  12  13
ENDBRANCH   1  12
TORSDOF 14
ENDMDL
MODEL 4
REMARK VINA RESULT:      -4.1      1.929      6.529
REMARK  Name = *****
REMARK                            x       y       z     vdW  Elec       q    Type
REMARK                         _______ _______ _______ _____ _____    ______ ____
ROOT
ATOM      1  N   LIG    1       22.578 -18.636   4.533  0.00  0.00    +0.239 N 
ATOM      2  C   LIG    1       21.364 -18.976   3.666  0.00  0.00    +0.192 C 
ATOM      3  C   LIG    1       22.656 -19.650   5.697  0.00  0.00    +0.192 C 
ENDROOT
BRANCH   1   4
ATOM      4  C   LIG    1       22.423 -17.225   5.137  0.00  0.00    +0.132 C 
BRANCH   4   5
ATOM      5  C   LIG    1       22.756 -16.108   4.130  0.00  0.00    +0.051 C 
BRANCH   5   6
ATOM      6  C   LIG    1       23.272 -14.838   4.817  0.00  0.00    +0.005 C 
BRANCH   6   7
ATOM      7  C   LIG    1       24.211 -14.044   3.894  0.00  0.00    +0.000 C 
BRANCH   7   8
ATOM      8  C   LIG    1       25.037 -12.961   4.614  0.00  0.00    -0.000 C 
BRANCH   8   9
ATOM      9  C   LIG    1       26.391 -13.455   5.135  0.00  0.00    -0.000 C 
BRANCH   9  11
ATOM     10  C   LIG    1       28.574 -13.298   3.732  0.00  0.00    +0.004 C 
ATOM     11  C   LIG    1       27.317 -14.086   4.082  0.00  0.00    -0.003 C 
ENDBRANCH   9  11
ENDBRANCH   8   9
ENDBRANCH   7   8
ENDBRANCH   6   7
ENDBRANCH   5   6
ENDBRANCH   4   5
ENDBRANCH   1   4
BRANCH   1  12
ATOM     12  C   LIG    1       23.880 -18.789   3.685  0.00  0.00    +0.132 C 
BRANCH  12  13
ATOM     13  C   LIG    1       24.673 -20.132   3.775  0.00  0.00    +0.051 C 
BRANCH  13  14
ATOM     14  C   LIG    1       25.985 -20.184   4.575  0.00  0.00    +0.005 C 
BRANCH  14  15
ATOM     15  C   LIG    1       25.843 -20.789   6.005  0.00  0.00    +0.000 C 
BRANCH  15  16
ATOM     16  C   LIG    1       26.887 -20.335   7.057  0.00  0.00    -0.000 C 
BRANCH  16  17
ATOM     17  C   LIG    1       28.182 -21.194   7.062  0.00  0.00    -0.000 C 
BRANCH  17  18
ATOM     18  C   LIG    1       29.446 -20.409   6.652  0.00  0.00    -0.003 C 
ATOM     19  C   LIG    1       29.131 -19.021   6.088  0.00  0.00    +0.004 C 
ENDBRANCH  17  18
ENDBRANCH  16  17
ENDBRANCH  15  16
ENDBRANCH  14  15
ENDBRANCH  13  14
ENDBRANCH  12  13
ENDBRANCH   1  12
TORSDOF 14
ENDMDL
MODEL 5
REMARK VINA RESULT:      -4.0      2.080      5.314
REMARK  Name = *****
REMARK                            x       y       z     vdW  Elec       q    Type
REMARK                         _______ _______ _______ _____ _____    ______ ____
ROOT
ATOM      1  N   LIG    1       22.315 -18.651   4.327  0.00  0.00    +0.239 N 
ATOM      2  C   LIG    1       21.050 -18.753   3.471  0.00  0.00    +0.192 C 
ATOM      3  C   LIG    1       23.549 -18.803   3.408  0.00  0.00    +0.192 C 
ENDROOT
BRANCH   1   4
ATOM      4  C   LIG    1       22.348 -19.789   5.367  0.00  0.00    +0.132 C 
BRANCH   4   5
ATOM      5  C   LIG    1       23.742 -20.427   5.506  0.00  0.00    +0.051 C 
BRANCH   5   6
ATOM      6  C   LIG    1       24.064 -20.816   6.954  0.00  0.00    +0.005 C 
BRANCH   6   7
ATOM      7  C   LIG    1       25.450 -21.473   7.062  0.00  0.00    +0.000 C 
BRANCH   7   8
ATOM      8  C   LIG    1       26.624 -20.527   6.747  0.00  0.00    -0.000 C 
BRANCH   8   9
ATOM      9  C   LIG    1       28.003 -21.122   7.055  0.00  0.00    -0.000 C 
BRANCH   9  11
ATOM     10  C   LIG    1       29.201 -18.917   6.377  0.00  0.00    +0.004 C 
ATOM     11  C   LIG    1       29.191 -20.441   6.356  0.00  0.00    -0.003 C 
ENDBRANCH   9  11
ENDBRANCH   8   9
ENDBRANCH   7   8
ENDBRANCH   6   7
ENDBRANCH   5   6
ENDBRANCH   4   5
ENDBRANCH   1   4
BRANCH   1  12
ATOM     12  C   LIG    1       22.384 -17.234   4.981  0.00  0.00    +0.132 C 
BRANCH  12  13
ATOM     13  C   LIG    1       22.695 -16.006   4.065  0.00  0.00    +0.051 C 
BRANCH  13  14
ATOM     14  C   LIG    1       23.727 -14.963   4.524  0.00  0.00    +0.005 C 
BRANCH  14  15
ATOM     15  C   LIG    1       23.839 -13.716   3.595  0.00  0.00    +0.000 C 
BRANCH  15  16
ATOM     16  C   LIG    1       25.248 -13.088   3.443  0.00  0.00    -0.000 C 
BRANCH  16  17
ATOM     17  C   LIG    1       26.221 -13.939   2.581  0.00  0.00    -0.000 C 
BRANCH  17  18
ATOM     18  C   LIG    1       27.545 -14.280   3.297  0.00  0.00    -0.003 C 
ATOM     19  C   LIG    1       27.875 -13.312   4.435  0.00  0.00    +0.004 C 
ENDBRANCH  17  18
ENDBRANCH  16  17
ENDBRANCH  15  16
ENDBRANCH  14  15
ENDBRANCH  13  14
ENDBRANCH  12  13
ENDBRANCH   1  12
TORSDOF 14
ENDMDL
MODEL 6
REMARK VINA RESULT:      -3.8      2.083      6.666
REMARK  Name = *****
REMARK                            x       y       z     vdW  Elec       q    Type
REMARK                         _______ _______ _______ _____ _____    ______ ____
ROOT
ATOM      1  N   LIG    1       22.780 -19.030   4.246  0.00  0.00    +0.239 N 
ATOM      2  C   LIG    1       23.597 -19.974   3.362  0.00  0.00    +0.192 C 
ATOM      3  C   LIG    1       21.353 -18.914   3.663  0.00  0.00    +0.192 C 
ENDROOT
BRANCH   1   4
ATOM      4  C   LIG    1       23.411 -17.622   4.250  0.00  0.00    +0.132 C 
BRANCH   4   5
ATOM      5  C   LIG    1       22.386 -16.512   4.545  0.00  0.00    +0.051 C 
BRANCH   5   6
ATOM      6  C   LIG    1       23.055 -15.180   4.905  0.00  0.00    +0.005 C 
BRANCH   6   7
ATOM      7  C   LIG    1       24.337 -14.958   4.086  0.00  0.00    +0.000 C 
BRANCH   7   8
ATOM      8  C   LIG    1       24.356 -13.642   3.285  0.00  0.00    -0.000 C 
BRANCH   8   9
ATOM      9  C   LIG    1       25.755 -13.203   2.842  0.00  0.00    -0.000 C 
BRANCH   9  11
ATOM     10  C   LIG    1       28.235 -13.512   3.557  0.00  0.00    +0.004 C 
ATOM     11  C   LIG    1       26.900 -14.161   3.212  0.00  0.00    -0.003 C 
ENDBRANCH   9  11
ENDBRANCH   8   9
ENDBRANCH   7   8
ENDBRANCH   6   7
ENDBRANCH   5   6
ENDBRANCH   4   5
ENDBRANCH   1   4
BRANCH   1  12
ATOM     12  C   LIG    1       22.657 -19.639   5.679  0.00  0.00    +0.132 C 
BRANCH  12  13
ATOM     13  C   LIG    1       23.499 -20.910   6.023  0.00  0.00    +0.051 C 
BRANCH  13  14
ATOM     14  C   LIG    1       24.738 -20.776   6.924  0.00  0.00    +0.005 C 
BRANCH  14  15
ATOM     15  C   LIG    1       25.998 -21.530   6.401  0.00  0.00    +0.000 C 
BRANCH  15  16
ATOM     16  C   LIG    1       27.352 -21.157   7.059  0.00  0.00    -0.000 C 
BRANCH  16  17
ATOM     17  C   LIG    1       28.429 -20.685   6.044  0.00  0.00    -0.000 C 
BRANCH  17  18
ATOM     18  C   LIG    1       28.226 -19.234   5.556  0.00  0.00    -0.003 C 
ATOM     19  C   LIG    1       29.475 -18.367   5.727  0.00  0.00    +0.004 C 
ENDBRANCH  17  18
ENDBRANCH  16  17
ENDBRANCH  15  16
ENDBRANCH  14  15
ENDBRANCH  13  14
ENDBRANCH  12  13
ENDBRANCH   1  12
TORSDOF 14
ENDMDL
MODEL 7
REMARK VINA RESULT:      -3.7      2.026      5.641
REMARK  Name = *****
REMARK                            x       y       z     vdW  Elec       q    Type
REMARK                         _______ _______ _______ _____ _____    ______ ____
ROOT
ATOM      1  N   LIG    1       23.043 -19.608   4.530  0.00  0.00    +0.239 N 
ATOM      2  C   LIG    1       22.300 -18.270   4.481  0.00  0.00    +0.192 C 
ATOM      3  C   LIG    1       22.133 -20.703   3.927  0.00  0.00    +0.192 C 
ENDROOT
BRANCH   1   4
ATOM      4  C   LIG    1       23.352 -19.992   5.991  0.00  0.00    +0.132 C 
BRANCH   4   5
ATOM      5  C   LIG    1       23.861 -21.439   6.130  0.00  0.00    +0.051 C 
BRANCH   5   6
ATOM      6  C   LIG    1       25.077 -21.543   7.058  0.00  0.00    +0.005 C 
BRANCH   6   7
ATOM      7  C   LIG    1       26.267 -20.736   6.516  0.00  0.00    +0.000 C 
BRANCH   7   8
ATOM      8  C   LIG    1       27.636 -21.184   7.062  0.00  0.00    -0.000 C 
BRANCH   8   9
ATOM      9  C   LIG    1       28.829 -20.672   6.247  0.00  0.00    -0.000 C 
BRANCH   9  11
ATOM     10  C   LIG    1       28.712 -18.214   5.410  0.00  0.00    +0.004 C 
ATOM     11  C   LIG    1       29.199 -19.196   6.468  0.00  0.00    -0.003 C 
ENDBRANCH   9  11
ENDBRANCH   8   9
ENDBRANCH   7   8
ENDBRANCH   6   7
ENDBRANCH   5   6
ENDBRANCH   4   5
ENDBRANCH   1   4
BRANCH   1  12
ATOM     12  C   LIG    1       24.327 -19.520   3.645  0.00  0.00    +0.132 C 
BRANCH  12  13
ATOM     13  C   LIG    1       25.512 -18.629   4.140  0.00  0.00    +0.051 C 
BRANCH  13  14
ATOM     14  C   LIG    1       26.124 -17.588   3.188  0.00  0.00    +0.005 C 
BRANCH  14  15
ATOM     15  C   LIG    1       25.706 -16.117   3.490  0.00  0.00    +0.000 C 
BRANCH  15  16
ATOM     16  C   LIG    1       26.594 -15.003   2.877  0.00  0.00    -0.000 C 
BRANCH  16  17
ATOM     17  C   LIG    1       26.123 -13.565   3.230  0.00  0.00    -0.000 C 
BRANCH  17  18
ATOM     18  C   LIG    1       24.758 -13.520   3.949  0.00  0.00    -0.003 C 
ATOM     19  C   LIG    1       23.841 -12.415   3.420  0.00  0.00    +0.004 C 
ENDBRANCH  17  18
ENDBRANCH  16  17
ENDBRANCH  15  16
ENDBRANCH  14  15
ENDBRANCH  13  14
ENDBRANCH  12  13
ENDBRANCH   1  12
TORSDOF 14
ENDMDL
MODEL 8
REMARK VINA RESULT:      -3.6      1.886      5.598
REMARK  Name = *****
REMARK                            x       y       z     vdW  Elec       q    Type
REMARK                         _______ _______ _______ _____ _____    ______ ____
ROOT
ATOM      1  N   LIG    1       28.451 -19.701   6.293  0.00  0.00    +0.239 N 
ATOM      2  C   LIG    1       29.243 -21.009   6.222  0.00  0.00    +0.192 C 
ATOM      3  C   LIG    1       29.290 -18.654   7.061  0.00  0.00    +0.192 C 
ENDROOT
BRANCH   1   4
ATOM      4  C   LIG    1       27.132 -19.917   7.062  0.00  0.00    +0.132 C 
BRANCH   4   5
ATOM      5  C   LIG    1       26.469 -21.268   6.738  0.00  0.00    +0.051 C 
BRANCH   5   6
ATOM      6  C   LIG    1       25.001 -21.114   6.324  0.00  0.00    +0.005 C 
BRANCH   6   7
ATOM      7  C   LIG    1       24.819 -21.330   4.813  0.00  0.00    +0.000 C 
BRANCH   7   8
ATOM      8  C   LIG    1       24.986 -20.054   3.968  0.00  0.00    -0.000 C 
BRANCH   8   9
ATOM      9  C   LIG    1       23.662 -19.442   3.496  0.00  0.00    -0.000 C 
BRANCH   9  11
ATOM     10  C   LIG    1       21.664 -17.947   4.224  0.00  0.00    +0.004 C 
ATOM     11  C   LIG    1       22.705 -18.990   4.612  0.00  0.00    -0.003 C 
ENDBRANCH   9  11
ENDBRANCH   8   9
ENDBRANCH   7   8
ENDBRANCH   6   7
ENDBRANCH   5   6
ENDBRANCH   4   5
ENDBRANCH   1   4
BRANCH   1  12
ATOM     12  C   LIG    1       28.224 -19.156   4.847  0.00  0.00    +0.132 C 
BRANCH  12  13
ATOM     13  C   LIG    1       28.311 -17.613   4.611  0.00  0.00    +0.051 C 
BRANCH  13  14
ATOM     14  C   LIG    1       27.253 -16.921   3.736  0.00  0.00    +0.005 C 
BRANCH  14  15
ATOM     15  C   LIG    1       27.203 -15.371   3.893  0.00  0.00    +0.000 C 
BRANCH  15  16
ATOM     16  C   LIG    1       26.524 -14.579   2.746  0.00  0.00    -0.000 C 
BRANCH  16  17
ATOM     17  C   LIG    1       25.757 -13.317   3.229  0.00  0.00    -0.000 C 
BRANCH  17  18
ATOM     18  C   LIG    1       24.864 -13.569   4.463  0.00  0.00    -0.003 C 
ATOM     19  C   LIG    1       23.719 -14.544   4.181  0.00  0.00    +0.004 C 
ENDBRANCH  17  18
ENDBRANCH  16  17
ENDBRANCH  15  16
ENDBRANCH  14  15
ENDBRANCH  13  14
ENDBRANCH  12  13
ENDBRANCH   1  12
TORSDOF 14
ENDMDL
MODEL 9
REMARK VINA RESULT:      -3.1      1.224      2.252
REMARK  Name = *****
REMARK                            x       y       z     vdW  Elec       q    Type
REMARK                         _______ _______ _______ _____ _____    ______ ____
ROOT
ATOM      1  N   LIG    1       26.566 -14.136   3.699  0.00  0.00    +0.239 N 
ATOM      2  C   LIG    1       25.946 -13.716   2.365  0.00  0.00    +0.192 C 
ATOM      3  C   LIG    1       27.813 -13.263   3.964  0.00  0.00    +0.192 C 
ENDROOT
BRANCH   1   4
ATOM      4  C   LIG    1       27.017 -15.610   3.637  0.00  0.00    +0.132 C 
BRANCH   4   5
ATOM      5  C   LIG    1       25.881 -16.563   3.221  0.00  0.00    +0.051 C 
BRANCH   5   6
ATOM      6  C   LIG    1       26.320 -18.031   3.223  0.00  0.00    +0.005 C 
BRANCH   6   7
ATOM      7  C   LIG    1       25.169 -18.960   3.642  0.00  0.00    +0.000 C 
BRANCH   7   8
ATOM      8  C   LIG    1       25.588 -20.097   4.593  0.00  0.00    -0.000 C 
BRANCH   8   9
ATOM      9  C   LIG    1       24.508 -20.493   5.605  0.00  0.00    -0.000 C 
BRANCH   9  11
ATOM     10  C   LIG    1       22.052 -21.159   5.077  0.00  0.00    +0.004 C 
ATOM     11  C   LIG    1       23.518 -21.570   5.133  0.00  0.00    -0.003 C 
ENDBRANCH   9  11
ENDBRANCH   8   9
ENDBRANCH   7   8
ENDBRANCH   6   7
ENDBRANCH   5   6
ENDBRANCH   4   5
ENDBRANCH   1   4
BRANCH   1  12
ATOM     12  C   LIG    1       25.547 -13.867   4.852  0.00  0.00    +0.132 C 
BRANCH  12  13
ATOM     13  C   LIG    1       24.020 -13.889   4.517  0.00  0.00    +0.051 C 
BRANCH  13  14
ATOM     14  C   LIG    1       23.391 -15.169   3.941  0.00  0.00    +0.005 C 
BRANCH  14  15
ATOM     15  C   LIG    1       22.392 -15.882   4.902  0.00  0.00    +0.000 C 
BRANCH  15  16
ATOM     16  C   LIG    1       22.361 -17.432   4.845  0.00  0.00    -0.000 C 
BRANCH  16  17
ATOM     17  C   LIG    1       21.667 -17.994   3.574  0.00  0.00    -0.000 C 
BRANCH  17  18
ATOM     18  C   LIG    1       20.165 -18.295   3.771  0.00  0.00    -0.003 C 
ATOM     19  C   LIG    1       19.361 -18.198   2.473  0.00  0.00    +0.004 C 
ENDBRANCH  17  18
ENDBRANCH  16  17
ENDBRANCH  15  16
ENDBRANCH  14  15
ENDBRANCH  13  14
ENDBRANCH  12  13
ENDBRANCH   1  12
TORSDOF 14
ENDMDL
