MODEL 1
REMARK VINA RESULT:      -3.0      0.000      0.000
REMARK  Name = *****
REMARK                            x       y       z     vdW  Elec       q    Type
REMARK                         _______ _______ _______ _____ _____    ______ ____
ROOT
ATOM      1  C   LIG    1       22.770 -19.019   6.303  0.00  0.00    +0.001 C 
ENDROOT
BRANCH   1   2
ATOM      2  C   LIG    1       23.073 -20.525   6.447  0.00  0.00    +0.015 C 
BRANCH   2   3
ATOM      3  C   LIG    1       22.395 -21.497   5.463  0.00  0.00    +0.081 C 
BRANCH   3   4
ATOM      4  N   LIG    1       22.983 -21.515   4.114  0.00  0.00    -0.313 NA
ATOM      5  H   LIG    1       22.674 -22.343   3.598  0.00  0.00    +0.122 HD
BRANCH   4   6
ATOM      6  C   LIG    1       24.463 -21.572   4.183  0.00  0.00    +0.117 C 
BRANCH   6   7
ATOM      7  C   LIG    1       25.178 -20.332   3.578  0.00  0.00    +0.158 C 
BRANCH   7  11
ATOM      8  C   LIG    1       28.475 -18.853   5.946  0.00  0.00    +0.158 A 
ATOM      9  C   LIG    1       28.016 -18.145   4.842  0.00  0.00    +0.159 A 
ATOM     10  C   LIG    1       26.949 -18.616   4.086  0.00  0.00    +0.055 A 
ATOM     11  C   LIG    1       26.326 -19.827   4.425  0.00  0.00    -0.014 A 
ATOM     12  C   LIG    1       26.820 -20.554   5.522  0.00  0.00    +0.010 A 
ATOM     13  C   LIG    1       27.892 -20.072   6.282  0.00  0.00    +0.049 A 
BRANCH   8  14
ATOM     14  O   LIG    1       29.474 -18.323   6.712  0.00  0.00    -0.503 OA
ATOM     15  H   LIG    1       30.136 -19.015   6.872  0.00  0.00    +0.292 HD
ENDBRANCH   8  14
BRANCH   9  16
ATOM     16  O   LIG    1       28.563 -16.947   4.486  0.00  0.00    -0.503 OA
ATOM     17  H   LIG    1       28.888 -17.077   3.579  0.00  0.00    +0.292 HD
ENDBRANCH   9  16
ENDBRANCH   7  11
BRANCH   7  18
ATOM     18  O   LIG    1       24.234 -19.288   3.304  0.00  0.00    -0.386 OA
ATOM     19  H   LIG    1       24.276 -18.691   4.073  0.00  0.00    +0.210 HD
ENDBRANCH   7  18
ENDBRANCH   6   7
ENDBRANCH   4   6
ENDBRANCH   3   4
ENDBRANCH   2   3
ENDBRANCH   1   2
BRANCH   1  20
ATOM     20  C   LIG    1       22.004 -18.590   4.997  0.00  0.00    +0.001 C 
BRANCH  20  21
ATOM     21  C   LIG    1       22.546 -17.277   4.360  0.00  0.00    +0.015 C 
BRANCH  21  22
ATOM     22  C   LIG    1       22.577 -15.911   5.128  0.00  0.00    +0.081 C 
BRANCH  22  23
ATOM     23  N   LIG    1       23.359 -14.743   4.667  0.00  0.00    -0.313 NA
ATOM     24  H   LIG    1       24.336 -14.910   4.908  0.00  0.00    +0.122 HD
BRANCH  23  25
ATOM     25  C   LIG    1       23.338 -14.432   3.220  0.00  0.00    +0.117 C 
BRANCH  25  26
ATOM     26  C   LIG    1       24.517 -13.580   2.750  0.00  0.00    +0.158 C 
BRANCH  26  27
ATOM     27  C   LIG    1       25.745 -13.281   3.524  0.00  0.00    -0.014 A 
ATOM     28  C   LIG    1       27.043 -13.513   3.024  0.00  0.00    +0.055 A 
ATOM     29  C   LIG    1       28.143 -13.190   3.761  0.00  0.00    +0.159 A 
ATOM     30  C   LIG    1       27.974 -12.665   5.068  0.00  0.00    +0.158 A 
ATOM     31  C   LIG    1       26.704 -12.591   5.610  0.00  0.00    +0.049 A 
ATOM     32  C   LIG    1       25.597 -12.897   4.873  0.00  0.00    +0.010 A 
BRANCH  30  33
ATOM     33  O   LIG    1       29.081 -12.259   5.726  0.00  0.00    -0.503 OA
ATOM     34  H   LIG    1       29.286 -12.957   6.392  0.00  0.00    +0.292 HD
ENDBRANCH  30  33
BRANCH  29  35
ATOM     35  O   LIG    1       29.395 -13.303   3.252  0.00  0.00    -0.503 OA
ATOM     36  H   LIG    1       29.275 -13.304   2.282  0.00  0.00    +0.292 HD
ENDBRANCH  29  35
ENDBRANCH  26  27
BRANCH  26  37
ATOM     37  O   LIG    1       24.106 -12.469   1.971  0.00  0.00    -0.386 OA
ATOM     38  H   LIG    1       24.461 -12.564   1.077  0.00  0.00    +0.210 HD
ENDBRANCH  26  37
ENDBRANCH  25  26
ENDBRANCH  23  25
ENDBRANCH  22  23
ENDBRANCH  21  22
ENDBRANCH  20  21
ENDBRANCH   1  20
TORSDOF 19
ENDMDL
MODEL 2
REMARK VINA RESULT:      -2.2      2.178      7.231
REMARK  Name = *****
REMARK                            x       y       z     vdW  Elec       q    Type
REMARK                         _______ _______ _______ _____ _____    ______ ____
ROOT
ATOM      1  C   LIG    1       29.095 -18.803   5.786  0.00  0.00    +0.001 C 
ENDROOT
BRANCH   1   2
ATOM      2  C   LIG    1       27.901 -18.289   4.954  0.00  0.00    +0.015 C 
BRANCH   2   3
ATOM      3  C   LIG    1       28.086 -16.986   4.153  0.00  0.00    +0.081 C 
BRANCH   3   4
ATOM      4  N   LIG    1       28.700 -15.882   4.908  0.00  0.00    -0.313 NA
ATOM      5  H   LIG    1       29.004 -16.202   5.831  0.00  0.00    +0.122 HD
BRANCH   4   6
ATOM      6  C   LIG    1       27.726 -14.785   5.125  0.00  0.00    +0.117 C 
BRANCH   6   7
ATOM      7  C   LIG    1       27.867 -13.600   4.129  0.00  0.00    +0.158 C 
BRANCH   7  11
ATOM      8  C   LIG    1       24.049 -12.015   2.873  0.00  0.00    +0.158 A 
ATOM      9  C   LIG    1       24.367 -12.124   4.221  0.00  0.00    +0.159 A 
ATOM     10  C   LIG    1       25.599 -12.624   4.625  0.00  0.00    +0.055 A 
ATOM     11  C   LIG    1       26.538 -13.039   3.669  0.00  0.00    -0.014 A 
ATOM     12  C   LIG    1       26.195 -12.959   2.307  0.00  0.00    +0.010 A 
ATOM     13  C   LIG    1       24.954 -12.450   1.908  0.00  0.00    +0.049 A 
BRANCH   8  14
ATOM     14  O   LIG    1       22.861 -11.447   2.510  0.00  0.00    -0.503 OA
ATOM     15  H   LIG    1       23.030 -10.819   1.790  0.00  0.00    +0.292 HD
ENDBRANCH   8  14
BRANCH   9  16
ATOM     16  O   LIG    1       23.505 -11.706   5.193  0.00  0.00    -0.503 OA
ATOM     17  H   LIG    1       22.718 -11.392   4.716  0.00  0.00    +0.292 HD
ENDBRANCH   9  16
ENDBRANCH   7  11
BRANCH   7  18
ATOM     18  O   LIG    1       28.690 -13.971   3.015  0.00  0.00    -0.386 OA
ATOM     19  H   LIG    1       29.369 -14.567   3.380  0.00  0.00    +0.210 HD
ENDBRANCH   7  18
ENDBRANCH   6   7
ENDBRANCH   4   6
ENDBRANCH   3   4
ENDBRANCH   2   3
ENDBRANCH   1   2
BRANCH   1  20
ATOM     20  C   LIG    1       28.805 -20.034   6.723  0.00  0.00    +0.001 C 
BRANCH  20  21
ATOM     21  C   LIG    1       27.290 -20.260   7.004  0.00  0.00    +0.015 C 
BRANCH  21  22
ATOM     22  C   LIG    1       26.505 -21.506   6.468  0.00  0.00    +0.081 C 
BRANCH  22  23
ATOM     23  N   LIG    1       25.564 -21.439   5.329  0.00  0.00    -0.313 NA
ATOM     24  H   LIG    1       25.793 -22.204   4.693  0.00  0.00    +0.122 HD
BRANCH  23  25
ATOM     25  C   LIG    1       24.120 -21.566   5.624  0.00  0.00    +0.117 C 
BRANCH  25  26
ATOM     26  C   LIG    1       23.222 -20.742   4.702  0.00  0.00    +0.158 C 
BRANCH  26  27
ATOM     27  C   LIG    1       23.289 -19.276   4.494  0.00  0.00    -0.014 A 
ATOM     28  C   LIG    1       24.411 -18.632   3.934  0.00  0.00    +0.055 A 
ATOM     29  C   LIG    1       24.412 -17.284   3.731  0.00  0.00    +0.159 A 
ATOM     30  C   LIG    1       23.290 -16.518   4.141  0.00  0.00    +0.158 A 
ATOM     31  C   LIG    1       22.265 -17.136   4.834  0.00  0.00    +0.049 A 
ATOM     32  C   LIG    1       22.249 -18.486   5.027  0.00  0.00    +0.010 A 
BRANCH  30  33
ATOM     33  O   LIG    1       23.283 -15.204   3.830  0.00  0.00    -0.503 OA
ATOM     34  H   LIG    1       22.359 -14.982   3.567  0.00  0.00    +0.292 HD
ENDBRANCH  30  33
BRANCH  29  35
ATOM     35  O   LIG    1       25.435 -16.664   3.092  0.00  0.00    -0.503 OA
ATOM     36  H   LIG    1       25.160 -15.728   3.024  0.00  0.00    +0.292 HD
ENDBRANCH  29  35
ENDBRANCH  26  27
BRANCH  26  37
ATOM     37  O   LIG    1       21.883 -21.211   4.688  0.00  0.00    -0.386 OA
ATOM     38  H   LIG    1       21.837 -22.045   5.173  0.00  0.00    +0.210 HD
ENDBRANCH  26  37
ENDBRANCH  25  26
ENDBRANCH  23  25
ENDBRANCH  22  23
ENDBRANCH  21  22
ENDBRANCH  20  21
ENDBRANCH   1  20
TORSDOF 19
ENDMDL
MODEL 3
REMARK VINA RESULT:      -2.1      2.132      4.725
REMARK  Name = *****
REMARK                            x       y       z     vdW  Elec       q    Type
REMARK                         _______ _______ _______ _____ _____    ______ ____
ROOT
ATOM      1  C   LIG    1       27.221 -20.201   7.061  0.00  0.00    +0.001 C 
ENDROOT
BRANCH   1   2
ATOM      2  C   LIG    1       26.246 -21.267   6.518  0.00  0.00    +0.015 C 
BRANCH   2   3
ATOM      3  C   LIG    1       26.274 -21.571   5.008  0.00  0.00    +0.081 C 
BRANCH   3   4
ATOM      4  N   LIG    1       25.455 -20.667   4.184  0.00  0.00    -0.313 NA
ATOM      5  H   LIG    1       25.208 -19.825   4.709  0.00  0.00    +0.122 HD
BRANCH   4   6
ATOM      6  C   LIG    1       24.185 -21.321   3.786  0.00  0.00    +0.117 C 
BRANCH   6   7
ATOM      7  C   LIG    1       22.914 -20.679   4.407  0.00  0.00    +0.158 C 
BRANCH   7  11
ATOM      8  C   LIG    1       23.006 -16.361   4.290  0.00  0.00    +0.158 A 
ATOM      9  C   LIG    1       24.089 -17.110   3.846  0.00  0.00    +0.159 A 
ATOM     10  C   LIG    1       24.055 -18.499   3.874  0.00  0.00    +0.055 A 
ATOM     11  C   LIG    1       22.923 -19.166   4.366  0.00  0.00    -0.014 A 
ATOM     12  C   LIG    1       21.846 -18.400   4.846  0.00  0.00    +0.010 A 
ATOM     13  C   LIG    1       21.885 -17.001   4.811  0.00  0.00    +0.049 A 
BRANCH   8  14
ATOM     14  O   LIG    1       23.042 -15.000   4.175  0.00  0.00    -0.503 OA
ATOM     15  H   LIG    1       23.197 -14.624   5.056  0.00  0.00    +0.292 HD
ENDBRANCH   8  14
BRANCH   9  16
ATOM     16  O   LIG    1       25.203 -16.515   3.328  0.00  0.00    -0.503 OA
ATOM     17  H   LIG    1       25.154 -16.676   2.371  0.00  0.00    +0.292 HD
ENDBRANCH   9  16
ENDBRANCH   7  11
BRANCH   7  18
ATOM     18  O   LIG    1       22.703 -21.162   5.740  0.00  0.00    -0.386 OA
ATOM     19  H   LIG    1       22.715 -22.134   5.670  0.00  0.00    +0.210 HD
ENDBRANCH   7  18
ENDBRANCH   6   7
ENDBRANCH   4   6
ENDBRANCH   3   4
ENDBRANCH   2   3
ENDBRANCH   1   2
BRANCH   1  20
ATOM     20  C   LIG    1       28.652 -20.176   6.407  0.00  0.00    +0.001 C 
BRANCH  20  21
ATOM     21  C   LIG    1       28.764 -19.212   5.189  0.00  0.00    +0.015 C 
BRANCH  21  22
ATOM     22  C   LIG    1       28.944 -17.664   5.348  0.00  0.00    +0.081 C 
BRANCH  22  23
ATOM     23  N   LIG    1       28.151 -16.676   4.583  0.00  0.00    -0.313 NA
ATOM     24  H   LIG    1       27.228 -17.081   4.420  0.00  0.00    +0.122 HD
BRANCH  23  25
ATOM     25  C   LIG    1       27.918 -15.354   5.205  0.00  0.00    +0.117 C 
BRANCH  25  26
ATOM     26  C   LIG    1       27.795 -14.208   4.202  0.00  0.00    +0.158 C 
BRANCH  26  27
ATOM     27  C   LIG    1       26.546 -13.505   3.822  0.00  0.00    -0.014 A 
ATOM     28  C   LIG    1       25.674 -12.926   4.766  0.00  0.00    +0.055 A 
ATOM     29  C   LIG    1       24.555 -12.260   4.365  0.00  0.00    +0.159 A 
ATOM     30  C   LIG    1       24.238 -12.202   2.983  0.00  0.00    +0.158 A 
ATOM     31  C   LIG    1       25.011 -12.909   2.080  0.00  0.00    +0.049 A 
ATOM     32  C   LIG    1       26.142 -13.563   2.472  0.00  0.00    +0.010 A 
BRANCH  30  33
ATOM     33  O   LIG    1       23.180 -11.448   2.615  0.00  0.00    -0.503 OA
ATOM     34  H   LIG    1       22.385 -12.027   2.675  0.00  0.00    +0.292 HD
ENDBRANCH  30  33
BRANCH  29  35
ATOM     35  O   LIG    1       23.766 -11.602   5.250  0.00  0.00    -0.503 OA
ATOM     36  H   LIG    1       24.369 -10.997   5.725  0.00  0.00    +0.292 HD
ENDBRANCH  29  35
ENDBRANCH  26  27
BRANCH  26  37
ATOM     37  O   LIG    1       28.666 -14.361   3.094  0.00  0.00    -0.386 OA
ATOM     38  H   LIG    1       29.034 -15.255   3.104  0.00  0.00    +0.210 HD
ENDBRANCH  26  37
ENDBRANCH  25  26
ENDBRANCH  23  25
ENDBRANCH  22  23
ENDBRANCH  21  22
ENDBRANCH  20  21
ENDBRANCH   1  20
TORSDOF 19
ENDMDL
MODEL 4
REMARK VINA RESULT:      -1.6      2.403      6.603
REMARK  Name = *****
REMARK                            x       y       z     vdW  Elec       q    Type
REMARK                         _______ _______ _______ _____ _____    ______ ____
ROOT
ATOM      1  C   LIG    1       25.989 -13.284   2.154  0.00  0.00    +0.001 C 
ENDROOT
BRANCH   1   2
ATOM      2  C   LIG    1       26.340 -13.385   3.653  0.00  0.00    +0.015 C 
BRANCH   2   3
ATOM      3  C   LIG    1       27.829 -13.393   4.049  0.00  0.00    +0.081 C 
BRANCH   3   4
ATOM      4  N   LIG    1       28.495 -14.697   3.914  0.00  0.00    -0.313 NA
ATOM      5  H   LIG    1       28.709 -14.893   2.932  0.00  0.00    +0.122 HD
BRANCH   4   6
ATOM      6  C   LIG    1       27.617 -15.791   4.395  0.00  0.00    +0.117 C 
BRANCH   6   7
ATOM      7  C   LIG    1       28.257 -17.205   4.319  0.00  0.00    +0.158 C 
BRANCH   7  11
ATOM      8  C   LIG    1       25.396 -20.442   4.267  0.00  0.00    +0.158 A 
ATOM      9  C   LIG    1       26.472 -20.455   5.147  0.00  0.00    +0.159 A 
ATOM     10  C   LIG    1       27.387 -19.408   5.170  0.00  0.00    +0.055 A 
ATOM     11  C   LIG    1       27.240 -18.325   4.291  0.00  0.00    -0.014 A 
ATOM     12  C   LIG    1       26.169 -18.337   3.380  0.00  0.00    +0.010 A 
ATOM     13  C   LIG    1       25.249 -19.392   3.365  0.00  0.00    +0.049 A 
BRANCH   8  14
ATOM     14  O   LIG    1       24.474 -21.448   4.325  0.00  0.00    -0.503 OA
ATOM     15  H   LIG    1       24.557 -21.984   3.520  0.00  0.00    +0.292 HD
ENDBRANCH   8  14
BRANCH   9  16
ATOM     16  O   LIG    1       26.647 -21.467   6.045  0.00  0.00    -0.503 OA
ATOM     17  H   LIG    1       26.145 -21.196   6.833  0.00  0.00    +0.292 HD
ENDBRANCH   9  16
ENDBRANCH   7  11
BRANCH   7  18
ATOM     18  O   LIG    1       29.205 -17.389   5.379  0.00  0.00    -0.386 OA
ATOM     19  H   LIG    1       28.784 -17.012   6.173  0.00  0.00    +0.210 HD
ENDBRANCH   7  18
ENDBRANCH   6   7
ENDBRANCH   4   6
ENDBRANCH   3   4
ENDBRANCH   2   3
ENDBRANCH   1   2
BRANCH   1  20
ATOM     20  C   LIG    1       24.592 -12.647   1.812  0.00  0.00    +0.001 C 
BRANCH  20  21
ATOM     21  C   LIG    1       23.874 -12.024   3.045  0.00  0.00    +0.015 C 
BRANCH  21  22
ATOM     22  C   LIG    1       23.740 -12.772   4.416  0.00  0.00    +0.081 C 
BRANCH  22  23
ATOM     23  N   LIG    1       24.069 -14.204   4.590  0.00  0.00    -0.313 NA
ATOM     24  H   LIG    1       24.178 -14.376   5.590  0.00  0.00    +0.122 HD
BRANCH  23  25
ATOM     25  C   LIG    1       23.086 -15.198   4.104  0.00  0.00    +0.117 C 
BRANCH  25  26
ATOM     26  C   LIG    1       22.563 -16.137   5.190  0.00  0.00    +0.158 C 
BRANCH  26  27
ATOM     27  C   LIG    1       22.288 -17.586   5.037  0.00  0.00    -0.014 A 
ATOM     28  C   LIG    1       22.810 -18.562   5.911  0.00  0.00    +0.055 A 
ATOM     29  C   LIG    1       22.501 -19.879   5.750  0.00  0.00    +0.159 A 
ATOM     30  C   LIG    1       21.690 -20.274   4.654  0.00  0.00    +0.158 A 
ATOM     31  C   LIG    1       21.317 -19.332   3.713  0.00  0.00    +0.049 A 
ATOM     32  C   LIG    1       21.608 -18.009   3.877  0.00  0.00    +0.010 A 
BRANCH  30  33
ATOM     33  O   LIG    1       21.320 -21.571   4.586  0.00  0.00    -0.503 OA
ATOM     34  H   LIG    1       22.090 -22.066   4.222  0.00  0.00    +0.292 HD
ENDBRANCH  30  33
BRANCH  29  35
ATOM     35  O   LIG    1       22.902 -20.816   6.645  0.00  0.00    -0.503 OA
ATOM     36  H   LIG    1       23.592 -20.376   7.179  0.00  0.00    +0.292 HD
ENDBRANCH  29  35
ENDBRANCH  26  27
BRANCH  26  37
ATOM     37  O   LIG    1       21.613 -15.511   6.037  0.00  0.00    -0.386 OA
ATOM     38  H   LIG    1       21.611 -15.961   6.892  0.00  0.00    +0.210 HD
ENDBRANCH  26  37
ENDBRANCH  25  26
ENDBRANCH  23  25
ENDBRANCH  22  23
ENDBRANCH  21  22
ENDBRANCH  20  21
ENDBRANCH   1  20
TORSDOF 19
ENDMDL
MODEL 5
REMARK VINA RESULT:      -0.8      1.977      3.788
REMARK  Name = *****
REMARK                            x       y       z     vdW  Elec       q    Type
REMARK                         _______ _______ _______ _____ _____    ______ ____
ROOT
ATOM      1  C   LIG    1       22.987 -15.120   4.447  0.00  0.00    +0.001 C 
ENDROOT
BRANCH   1   2
ATOM      2  C   LIG    1       23.221 -16.629   4.223  0.00  0.00    +0.015 C 
BRANCH   2   3
ATOM      3  C   LIG    1       22.111 -17.606   4.659  0.00  0.00    +0.081 C 
BRANCH   3   4
ATOM      4  N   LIG    1       21.719 -18.587   3.635  0.00  0.00    -0.313 NA
ATOM      5  H   LIG    1       20.728 -18.826   3.726  0.00  0.00    +0.122 HD
BRANCH   4   6
ATOM      6  C   LIG    1       22.487 -19.846   3.789  0.00  0.00    +0.117 C 
BRANCH   6   7
ATOM      7  C   LIG    1       22.684 -20.298   5.262  0.00  0.00    +0.158 C 
BRANCH   7  11
ATOM      8  C   LIG    1       26.826 -21.068   6.221  0.00  0.00    +0.158 A 
ATOM      9  C   LIG    1       26.478 -20.360   5.077  0.00  0.00    +0.159 A 
ATOM     10  C   LIG    1       25.146 -20.103   4.774  0.00  0.00    +0.055 A 
ATOM     11  C   LIG    1       24.129 -20.571   5.620  0.00  0.00    -0.014 A 
ATOM     12  C   LIG    1       24.488 -21.317   6.757  0.00  0.00    +0.010 A 
ATOM     13  C   LIG    1       25.832 -21.567   7.058  0.00  0.00    +0.049 A 
BRANCH   8  14
ATOM     14  O   LIG    1       28.146 -21.234   6.529  0.00  0.00    -0.503 OA
ATOM     15  H   LIG    1       28.219 -21.944   7.187  0.00  0.00    +0.292 HD
ENDBRANCH   8  14
BRANCH   9  16
ATOM     16  O   LIG    1       27.426 -19.855   4.236  0.00  0.00    -0.503 OA
ATOM     17  H   LIG    1       27.147 -20.130   3.346  0.00  0.00    +0.292 HD
ENDBRANCH   9  16
ENDBRANCH   7  11
BRANCH   7  18
ATOM     18  O   LIG    1       21.852 -21.427   5.560  0.00  0.00    -0.386 OA
ATOM     19  H   LIG    1       22.450 -22.100   5.935  0.00  0.00    +0.210 HD
ENDBRANCH   7  18
ENDBRANCH   6   7
ENDBRANCH   4   6
ENDBRANCH   3   4
ENDBRANCH   2   3
ENDBRANCH   1   2
BRANCH   1  20
ATOM     20  C   LIG    1       23.243 -14.190   3.204  0.00  0.00    +0.001 C 
BRANCH  20  21
ATOM     21  C   LIG    1       23.726 -12.760   3.585  0.00  0.00    +0.015 C 
BRANCH  21  22
ATOM     22  C   LIG    1       23.773 -12.248   5.066  0.00  0.00    +0.081 C 
BRANCH  22  23
ATOM     23  N   LIG    1       24.933 -11.526   5.635  0.00  0.00    -0.313 NA
ATOM     24  H   LIG    1       24.597 -10.976   6.425  0.00  0.00    +0.122 HD
BRANCH  23  25
ATOM     25  C   LIG    1       26.061 -12.336   6.145  0.00  0.00    +0.117 C 
BRANCH  25  26
ATOM     26  C   LIG    1       27.006 -12.843   5.056  0.00  0.00    +0.158 C 
BRANCH  26  27
ATOM     27  C   LIG    1       26.972 -14.181   4.419  0.00  0.00    -0.014 A 
ATOM     28  C   LIG    1       27.709 -15.281   4.904  0.00  0.00    +0.055 A 
ATOM     29  C   LIG    1       27.619 -16.501   4.305  0.00  0.00    +0.159 A 
ATOM     30  C   LIG    1       26.815 -16.647   3.145  0.00  0.00    +0.158 A 
ATOM     31  C   LIG    1       26.225 -15.530   2.584  0.00  0.00    +0.049 A 
ATOM     32  C   LIG    1       26.297 -14.308   3.187  0.00  0.00    +0.010 A 
BRANCH  30  33
ATOM     33  O   LIG    1       26.666 -17.891   2.640  0.00  0.00    -0.503 OA
ATOM     34  H   LIG    1       26.118 -18.394   3.286  0.00  0.00    +0.292 HD
ENDBRANCH  30  33
BRANCH  29  35
ATOM     35  O   LIG    1       28.232 -17.594   4.824  0.00  0.00    -0.503 OA
ATOM     36  H   LIG    1       28.426 -17.357   5.752  0.00  0.00    +0.292 HD
ENDBRANCH  29  35
ENDBRANCH  26  27
BRANCH  26  37
ATOM     37  O   LIG    1       28.335 -12.382   5.233  0.00  0.00    -0.386 OA
ATOM     38  H   LIG    1       28.338 -11.678   5.894  0.00  0.00    +0.210 HD
ENDBRANCH  26  37
ENDBRANCH  25  26
ENDBRANCH  23  25
ENDBRANCH  22  23
ENDBRANCH  21  22
ENDBRANCH  20  21
ENDBRANCH   1  20
TORSDOF 19
ENDMDL
MODEL 6
REMARK VINA RESULT:      -0.7      2.154      8.018
REMARK  Name = *****
REMARK                            x       y       z     vdW  Elec       q    Type
REMARK                         _______ _______ _______ _____ _____    ______ ____
ROOT
ATOM      1  C   LIG    1       28.785 -18.898   5.286  0.00  0.00    +0.001 C 
ENDROOT
BRANCH   1   2
ATOM      2  C   LIG    1       29.125 -17.489   4.757  0.00  0.00    +0.015 C 
BRANCH   2   3
ATOM      3  C   LIG    1       28.114 -16.355   5.018  0.00  0.00    +0.081 C 
BRANCH   3   4
ATOM      4  N   LIG    1       28.179 -15.241   4.059  0.00  0.00    -0.313 NA
ATOM      5  H   LIG    1       28.995 -15.337   3.450  0.00  0.00    +0.122 HD
BRANCH   4   6
ATOM      6  C   LIG    1       28.313 -13.944   4.766  0.00  0.00    +0.117 C 
BRANCH   6   7
ATOM      7  C   LIG    1       27.652 -12.744   4.031  0.00  0.00    +0.158 C 
BRANCH   7  11
ATOM      8  C   LIG    1       23.662 -13.645   2.641  0.00  0.00    +0.158 A 
ATOM      9  C   LIG    1       24.143 -14.185   3.827  0.00  0.00    +0.159 A 
ATOM     10  C   LIG    1       25.423 -13.888   4.279  0.00  0.00    +0.055 A 
ATOM     11  C   LIG    1       26.255 -13.041   3.532  0.00  0.00    -0.014 A 
ATOM     12  C   LIG    1       25.773 -12.527   2.314  0.00  0.00    +0.010 A 
ATOM     13  C   LIG    1       24.481 -12.827   1.867  0.00  0.00    +0.049 A 
BRANCH   8  14
ATOM     14  O   LIG    1       22.373 -13.896   2.266  0.00  0.00    -0.503 OA
ATOM     15  H   LIG    1       22.111 -14.757   2.629  0.00  0.00    +0.292 HD
ENDBRANCH   8  14
BRANCH   9  16
ATOM     16  O   LIG    1       23.367 -14.989   4.611  0.00  0.00    -0.503 OA
ATOM     17  H   LIG    1       22.522 -15.067   4.135  0.00  0.00    +0.292 HD
ENDBRANCH   9  16
ENDBRANCH   7  11
BRANCH   7  18
ATOM     18  O   LIG    1       28.496 -12.275   2.971  0.00  0.00    -0.386 OA
ATOM     19  H   LIG    1       28.106 -12.631   2.151  0.00  0.00    +0.210 HD
ENDBRANCH   7  18
ENDBRANCH   6   7
ENDBRANCH   4   6
ENDBRANCH   3   4
ENDBRANCH   2   3
ENDBRANCH   1   2
BRANCH   1  20
ATOM     20  C   LIG    1       29.362 -19.261   6.704  0.00  0.00    +0.001 C 
BRANCH  20  21
ATOM     21  C   LIG    1       29.231 -20.771   7.061  0.00  0.00    +0.015 C 
BRANCH  21  22
ATOM     22  C   LIG    1       27.864 -21.536   7.021  0.00  0.00    +0.081 C 
BRANCH  22  23
ATOM     23  N   LIG    1       26.602 -20.912   6.566  0.00  0.00    -0.313 NA
ATOM     24  H   LIG    1       26.643 -19.922   6.808  0.00  0.00    +0.122 HD
BRANCH  23  25
ATOM     25  C   LIG    1       26.290 -20.972   5.121  0.00  0.00    +0.117 C 
BRANCH  25  26
ATOM     26  C   LIG    1       25.376 -19.847   4.635  0.00  0.00    +0.158 C 
BRANCH  26  27
ATOM     27  C   LIG    1       23.898 -19.898   4.541  0.00  0.00    -0.014 A 
ATOM     28  C   LIG    1       23.113 -18.783   4.183  0.00  0.00    +0.055 A 
ATOM     29  C   LIG    1       21.759 -18.888   4.076  0.00  0.00    +0.159 A 
ATOM     30  C   LIG    1       21.131 -20.123   4.385  0.00  0.00    +0.158 A 
ATOM     31  C   LIG    1       21.891 -21.162   4.890  0.00  0.00    +0.049 A 
ATOM     32  C   LIG    1       23.249 -21.070   4.983  0.00  0.00    +0.010 A 
BRANCH  30  33
ATOM     33  O   LIG    1       19.802 -20.220   4.168  0.00  0.00    -0.503 OA
ATOM     34  H   LIG    1       19.382 -20.368   5.048  0.00  0.00    +0.292 HD
ENDBRANCH  30  33
BRANCH  29  35
ATOM     35  O   LIG    1       21.000 -17.858   3.625  0.00  0.00    -0.503 OA
ATOM     36  H   LIG    1       20.846 -18.053   2.680  0.00  0.00    +0.292 HD
ENDBRANCH  29  35
ENDBRANCH  26  27
BRANCH  26  37
ATOM     37  O   LIG    1       25.944 -19.112   3.563  0.00  0.00    -0.386 OA
ATOM     38  H   LIG    1       26.906 -19.178   3.612  0.00  0.00    +0.210 HD
ENDBRANCH  26  37
ENDBRANCH  25  26
ENDBRANCH  23  25
ENDBRANCH  22  23
ENDBRANCH  21  22
ENDBRANCH  20  21
ENDBRANCH   1  20
TORSDOF 19
ENDMDL
MODEL 7
REMARK VINA RESULT:      -0.4      2.242      6.092
REMARK  Name = *****
REMARK                            x       y       z     vdW  Elec       q    Type
REMARK                         _______ _______ _______ _____ _____    ______ ____
ROOT
ATOM      1  C   LIG    1       25.017 -12.650   2.136  0.00  0.00    +0.001 C 
ENDROOT
BRANCH   1   2
ATOM      2  C   LIG    1       26.529 -12.709   2.443  0.00  0.00    +0.015 C 
BRANCH   2   3
ATOM      3  C   LIG    1       27.155 -14.087   2.732  0.00  0.00    +0.081 C 
BRANCH   3   4
ATOM      4  N   LIG    1       26.185 -15.158   3.007  0.00  0.00    -0.313 NA
ATOM      5  H   LIG    1       25.574 -14.900   3.786  0.00  0.00    +0.122 HD
BRANCH   4   6
ATOM      6  C   LIG    1       26.877 -16.412   3.392  0.00  0.00    +0.117 C 
BRANCH   6   7
ATOM      7  C   LIG    1       28.046 -16.213   4.396  0.00  0.00    +0.158 C 
BRANCH   7  11
ATOM      8  C   LIG    1       29.089 -19.859   6.468  0.00  0.00    +0.158 A 
ATOM      9  C   LIG    1       28.364 -19.894   5.283  0.00  0.00    +0.159 A 
ATOM     10  C   LIG    1       28.037 -18.722   4.611  0.00  0.00    +0.055 A 
ATOM     11  C   LIG    1       28.428 -17.480   5.133  0.00  0.00    -0.014 A 
ATOM     12  C   LIG    1       29.130 -17.451   6.351  0.00  0.00    +0.010 A 
ATOM     13  C   LIG    1       29.460 -18.636   7.019  0.00  0.00    +0.049 A 
BRANCH   8  14
ATOM     14  O   LIG    1       29.460 -21.032   7.060  0.00  0.00    -0.503 OA
ATOM     15  H   LIG    1       30.296 -21.323   6.664  0.00  0.00    +0.292 HD
ENDBRANCH   8  14
BRANCH   9  16
ATOM     16  O   LIG    1       27.985 -21.075   4.714  0.00  0.00    -0.503 OA
ATOM     17  H   LIG    1       27.309 -20.835   4.058  0.00  0.00    +0.292 HD
ENDBRANCH   9  16
ENDBRANCH   7  11
BRANCH   7  18
ATOM     18  O   LIG    1       27.751 -15.149   5.311  0.00  0.00    -0.386 OA
ATOM     19  H   LIG    1       27.833 -15.539   6.200  0.00  0.00    +0.210 HD
ENDBRANCH   7  18
ENDBRANCH   6   7
ENDBRANCH   4   6
ENDBRANCH   3   4
ENDBRANCH   2   3
ENDBRANCH   1   2
BRANCH   1  20
ATOM     20  C   LIG    1       24.073 -12.375   3.364  0.00  0.00    +0.001 C 
BRANCH  20  21
ATOM     21  C   LIG    1       24.150 -13.471   4.467  0.00  0.00    +0.015 C 
BRANCH  21  22
ATOM     22  C   LIG    1       22.941 -14.403   4.821  0.00  0.00    +0.081 C 
BRANCH  22  23
ATOM     23  N   LIG    1       22.907 -15.843   4.485  0.00  0.00    -0.313 NA
ATOM     24  H   LIG    1       23.142 -16.363   5.331  0.00  0.00    +0.122 HD
BRANCH  23  25
ATOM     25  C   LIG    1       21.627 -16.404   3.999  0.00  0.00    +0.117 C 
BRANCH  25  26
ATOM     26  C   LIG    1       21.458 -17.898   4.271  0.00  0.00    +0.158 C 
BRANCH  26  27
ATOM     27  C   LIG    1       22.550 -18.885   4.451  0.00  0.00    -0.014 A 
ATOM     28  C   LIG    1       23.628 -19.009   3.552  0.00  0.00    +0.055 A 
ATOM     29  C   LIG    1       24.626 -19.909   3.778  0.00  0.00    +0.159 A 
ATOM     30  C   LIG    1       24.545 -20.767   4.906  0.00  0.00    +0.158 A 
ATOM     31  C   LIG    1       23.407 -20.748   5.691  0.00  0.00    +0.049 A 
ATOM     32  C   LIG    1       22.412 -19.839   5.481  0.00  0.00    +0.010 A 
BRANCH  30  33
ATOM     33  O   LIG    1       25.600 -21.572   5.156  0.00  0.00    -0.503 OA
ATOM     34  H   LIG    1       25.977 -21.823   4.280  0.00  0.00    +0.292 HD
ENDBRANCH  30  33
BRANCH  29  35
ATOM     35  O   LIG    1       25.724 -19.965   2.985  0.00  0.00    -0.503 OA
ATOM     36  H   LIG    1       26.369 -20.504   3.485  0.00  0.00    +0.292 HD
ENDBRANCH  29  35
ENDBRANCH  26  27
BRANCH  26  37
ATOM     37  O   LIG    1       20.359 -18.457   3.571  0.00  0.00    -0.386 OA
ATOM     38  H   LIG    1       19.983 -17.785   2.988  0.00  0.00    +0.210 HD
ENDBRANCH  26  37
ENDBRANCH  25  26
ENDBRANCH  23  25
ENDBRANCH  22  23
ENDBRANCH  21  22
ENDBRANCH  20  21
ENDBRANCH   1  20
TORSDOF 19
ENDMDL
MODEL 8
REMARK VINA RESULT:      -0.2      1.903      7.171
REMARK  Name = *****
REMARK                            x       y       z     vdW  Elec       q    Type
REMARK                         _______ _______ _______ _____ _____    ______ ____
ROOT
ATOM      1  C   LIG    1       24.116 -18.152   3.742  0.00  0.00    +0.001 C 
ENDROOT
BRANCH   1   2
ATOM      2  C   LIG    1       23.018 -17.588   4.668  0.00  0.00    +0.015 C 
BRANCH   2   3
ATOM      3  C   LIG    1       21.855 -16.811   4.022  0.00  0.00    +0.081 C 
BRANCH   3   4
ATOM      4  N   LIG    1       21.910 -15.353   4.208  0.00  0.00    -0.313 NA
ATOM      5  H   LIG    1       21.028 -14.920   3.925  0.00  0.00    +0.122 HD
BRANCH   4   6
ATOM      6  C   LIG    1       22.979 -14.754   3.371  0.00  0.00    +0.117 C 
BRANCH   6   7
ATOM      7  C   LIG    1       23.657 -13.505   3.999  0.00  0.00    +0.158 C 
BRANCH   7  11
ATOM      8  C   LIG    1       27.970 -13.517   3.731  0.00  0.00    +0.158 A 
ATOM      9  C   LIG    1       27.332 -13.436   4.963  0.00  0.00    +0.159 A 
ATOM     10  C   LIG    1       25.945 -13.443   5.050  0.00  0.00    +0.055 A 
ATOM     11  C   LIG    1       25.167 -13.519   3.885  0.00  0.00    -0.014 A 
ATOM     12  C   LIG    1       25.819 -13.565   2.640  0.00  0.00    +0.010 A 
ATOM     13  C   LIG    1       27.217 -13.563   2.560  0.00  0.00    +0.049 A 
BRANCH   8  14
ATOM     14  O   LIG    1       29.333 -13.587   3.687  0.00  0.00    -0.503 OA
ATOM     15  H   LIG    1       29.644 -13.022   2.962  0.00  0.00    +0.292 HD
ENDBRANCH   8  14
BRANCH   9  16
ATOM     16  O   LIG    1       28.038 -13.391   6.130  0.00  0.00    -0.503 OA
ATOM     17  H   LIG    1       28.356 -12.475   6.198  0.00  0.00    +0.292 HD
ENDBRANCH   9  16
ENDBRANCH   7  11
BRANCH   7  18
ATOM     18  O   LIG    1       23.240 -13.335   5.361  0.00  0.00    -0.386 OA
ATOM     19  H   LIG    1       23.414 -12.399   5.571  0.00  0.00    +0.210 HD
ENDBRANCH   7  18
ENDBRANCH   6   7
ENDBRANCH   4   6
ENDBRANCH   3   4
ENDBRANCH   2   3
ENDBRANCH   1   2
BRANCH   1  20
ATOM     20  C   LIG    1       25.368 -17.227   3.511  0.00  0.00    +0.001 C 
BRANCH  20  21
ATOM     21  C   LIG    1       26.714 -18.006   3.442  0.00  0.00    +0.015 C 
BRANCH  21  22
ATOM     22  C   LIG    1       27.697 -18.108   4.658  0.00  0.00    +0.081 C 
BRANCH  22  23
ATOM     23  N   LIG    1       28.635 -19.236   4.846  0.00  0.00    -0.313 NA
ATOM     24  H   LIG    1       29.226 -19.016   5.648  0.00  0.00    +0.122 HD
BRANCH  23  25
ATOM     25  C   LIG    1       28.057 -20.572   5.113  0.00  0.00    +0.117 C 
BRANCH  25  26
ATOM     26  C   LIG    1       26.854 -20.552   6.056  0.00  0.00    +0.158 C 
BRANCH  26  27
ATOM     27  C   LIG    1       25.440 -20.785   5.678  0.00  0.00    -0.014 A 
ATOM     28  C   LIG    1       25.027 -21.004   4.348  0.00  0.00    +0.055 A 
ATOM     29  C   LIG    1       23.719 -21.247   4.054  0.00  0.00    +0.159 A 
ATOM     30  C   LIG    1       22.756 -21.222   5.097  0.00  0.00    +0.158 A 
ATOM     31  C   LIG    1       23.146 -20.848   6.369  0.00  0.00    +0.049 A 
ATOM     32  C   LIG    1       24.456 -20.619   6.675  0.00  0.00    +0.010 A 
BRANCH  30  33
ATOM     33  O   LIG    1       21.489 -21.570   4.786  0.00  0.00    -0.503 OA
ATOM     34  H   LIG    1       21.100 -20.809   4.296  0.00  0.00    +0.292 HD
ENDBRANCH  30  33
BRANCH  29  35
ATOM     35  O   LIG    1       23.322 -21.571   2.798  0.00  0.00    -0.503 OA
ATOM     36  H   LIG    1       22.383 -21.304   2.754  0.00  0.00    +0.292 HD
ENDBRANCH  29  35
ENDBRANCH  26  27
BRANCH  26  37
ATOM     37  O   LIG    1       26.970 -19.559   7.061  0.00  0.00    -0.386 OA
ATOM     38  H   LIG    1       27.800 -19.688   7.537  0.00  0.00    +0.210 HD
ENDBRANCH  26  37
ENDBRANCH  25  26
ENDBRANCH  23  25
ENDBRANCH  22  23
ENDBRANCH  21  22
ENDBRANCH  20  21
ENDBRANCH   1  20
TORSDOF 19
ENDMDL
