MODEL 1
REMARK VINA RESULT:      -5.7      0.000      0.000
REMARK  Name = *****
REMARK                            x       y       z     vdW  Elec       q    Type
REMARK                         _______ _______ _______ _____ _____    ______ ____
ROOT
ATOM      1  C   LIG    1       25.845 -26.632   5.241  0.00  0.00    +0.129 C 
ATOM      2  C   LIG    1       25.521 -25.799   6.525  0.00  0.00    +0.007 C 
ATOM      3  C   LIG    1       25.533 -26.664   7.802  0.00  0.00    +0.014 C 
ATOM      4  C   LIG    1       24.114 -25.238   6.214  0.00  0.00    +0.005 C 
ATOM      5  C   LIG    1       23.665 -24.082   7.131  0.00  0.00    +0.019 C 
ATOM      6  C   LIG    1       24.704 -22.974   7.416  0.00  0.00    +0.006 C 
ATOM      7  C   LIG    1       26.095 -23.566   7.702  0.00  0.00    +0.005 C 
ATOM      8  C   LIG    1       24.648 -21.680   6.495  0.00  0.00    -0.003 C 
ATOM      9  C   LIG    1       24.740 -20.459   7.464  0.00  0.00    +0.016 C 
ATOM     10  C   LIG    1       23.335 -21.538   5.716  0.00  0.00    -0.038 C 
ATOM     11  C   LIG    1       23.219 -20.757   4.626  0.00  0.00    +0.050 C 
ATOM     12  C   LIG    1       24.380 -20.033   4.063  0.00  0.00    +0.156 C 
ATOM     13  O   LIG    1       24.196 -19.215   3.164  0.00  0.00    -0.293 OA
ATOM     14  C   LIG    1       25.757 -20.309   4.615  0.00  0.00    +0.080 C 
ATOM     15  C   LIG    1       22.194 -22.333   6.115  0.00  0.00    +0.000 C 
ATOM     16  C   LIG    1       25.812 -21.572   5.476  0.00  0.00    +0.019 C 
ATOM     17  C   LIG    1       22.333 -23.509   6.735  0.00  0.00    -0.023 C 
ATOM     18  C   LIG    1       24.128 -24.960   4.700  0.00  0.00    +0.008 C 
ATOM     19  C   LIG    1       26.541 -24.637   6.711  0.00  0.00    +0.010 C 
ATOM     20  C   LIG    1       25.288 -25.762   4.103  0.00  0.00    +0.043 C 
ENDROOT
BRANCH   1  22
ATOM     21  C   LIG    1       26.062 -29.237   5.289  0.00  0.00    +0.089 C 
ATOM     22  C   LIG    1       25.169 -28.030   5.131  0.00  0.00    +0.162 C 
ATOM     23  O   LIG    1       23.974 -28.182   4.871  0.00  0.00    -0.295 OA
ENDBRANCH   1  22
BRANCH   1  24
ATOM     24  O   LIG    1       27.255 -26.769   5.074  0.00  0.00    -0.381 OA
ATOM     25  H   LIG    1       27.671 -26.661   5.948  0.00  0.00    +0.211 HD
ENDBRANCH   1  24
TORSDOF 2
ENDMDL
MODEL 2
REMARK VINA RESULT:      -5.5      7.149      8.717
REMARK  Name = *****
REMARK                            x       y       z     vdW  Elec       q    Type
REMARK                         _______ _______ _______ _____ _____    ______ ____
ROOT
ATOM      1  C   LIG    1       25.359 -31.174   7.806  0.00  0.00    +0.129 C 
ATOM      2  C   LIG    1       24.839 -31.980   9.041  0.00  0.00    +0.007 C 
ATOM      3  C   LIG    1       24.702 -33.487   8.742  0.00  0.00    +0.014 C 
ATOM      4  C   LIG    1       23.472 -31.315   9.323  0.00  0.00    +0.005 C 
ATOM      5  C   LIG    1       22.868 -31.644  10.704  0.00  0.00    +0.019 C 
ATOM      6  C   LIG    1       23.827 -31.586  11.916  0.00  0.00    +0.006 C 
ATOM      7  C   LIG    1       25.182 -32.240  11.594  0.00  0.00    +0.005 C 
ATOM      8  C   LIG    1       23.860 -30.231  12.744  0.00  0.00    -0.003 C 
ATOM      9  C   LIG    1       23.783 -30.643  14.247  0.00  0.00    +0.016 C 
ATOM     10  C   LIG    1       22.662 -29.314  12.468  0.00  0.00    -0.038 C 
ATOM     11  C   LIG    1       22.674 -27.999  12.754  0.00  0.00    +0.050 C 
ATOM     12  C   LIG    1       23.879 -27.333  13.294  0.00  0.00    +0.156 C 
ATOM     13  O   LIG    1       23.796 -26.170  13.684  0.00  0.00    -0.293 OA
ATOM     14  C   LIG    1       25.175 -28.103  13.365  0.00  0.00    +0.080 C 
ATOM     15  C   LIG    1       21.500 -29.860  11.800  0.00  0.00    +0.000 C 
ATOM     16  C   LIG    1       25.149 -29.392  12.542  0.00  0.00    +0.019 C 
ATOM     17  C   LIG    1       21.588 -30.905  10.971  0.00  0.00    -0.023 C 
ATOM     18  C   LIG    1       23.685 -29.827   8.994  0.00  0.00    +0.008 C 
ATOM     19  C   LIG    1       25.790 -31.809  10.262  0.00  0.00    +0.010 C 
ATOM     20  C   LIG    1       24.939 -29.731   8.120  0.00  0.00    +0.043 C 
ENDROOT
BRANCH   1  22
ATOM     21  C   LIG    1       25.691 -32.083   5.376  0.00  0.00    +0.089 C 
ATOM     22  C   LIG    1       24.745 -31.548   6.424  0.00  0.00    +0.162 C 
ATOM     23  O   LIG    1       23.558 -31.375   6.146  0.00  0.00    -0.295 OA
ENDBRANCH   1  22
BRANCH   1  24
ATOM     24  O   LIG    1       26.782 -31.238   7.728  0.00  0.00    -0.381 OA
ATOM     25  H   LIG    1       27.017 -31.965   7.124  0.00  0.00    +0.211 HD
ENDBRANCH   1  24
TORSDOF 2
ENDMDL
MODEL 3
REMARK VINA RESULT:      -5.3      7.128      9.293
REMARK  Name = *****
REMARK                            x       y       z     vdW  Elec       q    Type
REMARK                         _______ _______ _______ _____ _____    ______ ____
ROOT
ATOM      1  C   LIG    1       25.808 -32.703   7.400  0.00  0.00    +0.129 C 
ATOM      2  C   LIG    1       25.023 -31.403   7.773  0.00  0.00    +0.007 C 
ATOM      3  C   LIG    1       24.347 -30.755   6.547  0.00  0.00    +0.014 C 
ATOM      4  C   LIG    1       26.130 -30.504   8.372  0.00  0.00    +0.005 C 
ATOM      5  C   LIG    1       25.612 -29.287   9.165  0.00  0.00    +0.019 C 
ATOM      6  C   LIG    1       24.447 -29.540  10.149  0.00  0.00    +0.006 C 
ATOM      7  C   LIG    1       23.374 -30.452   9.528  0.00  0.00    +0.005 C 
ATOM      8  C   LIG    1       24.830 -29.811  11.666  0.00  0.00    -0.003 C 
ATOM      9  C   LIG    1       23.875 -28.916  12.517  0.00  0.00    +0.016 C 
ATOM     10  C   LIG    1       26.265 -29.398  12.019  0.00  0.00    -0.038 C 
ATOM     11  C   LIG    1       26.908 -29.868  13.103  0.00  0.00    +0.050 C 
ATOM     12  C   LIG    1       26.294 -30.876  13.995  0.00  0.00    +0.156 C 
ATOM     13  O   LIG    1       26.853 -31.159  15.053  0.00  0.00    -0.293 OA
ATOM     14  C   LIG    1       24.991 -31.520  13.590  0.00  0.00    +0.080 C 
ATOM     15  C   LIG    1       26.988 -28.533  11.113  0.00  0.00    +0.000 C 
ATOM     16  C   LIG    1       24.641 -31.282  12.119  0.00  0.00    +0.019 C 
ATOM     17  C   LIG    1       26.719 -28.496   9.804  0.00  0.00    -0.023 C 
ATOM     18  C   LIG    1       27.063 -31.475   9.117  0.00  0.00    +0.008 C 
ATOM     19  C   LIG    1       23.926 -31.697   8.838  0.00  0.00    +0.010 C 
ATOM     20  C   LIG    1       26.783 -32.880   8.574  0.00  0.00    +0.043 C 
ENDROOT
BRANCH   1  22
ATOM     21  C   LIG    1       28.055 -33.214   6.164  0.00  0.00    +0.089 C 
ATOM     22  C   LIG    1       26.654 -32.654   6.094  0.00  0.00    +0.162 C 
ATOM     23  O   LIG    1       26.252 -32.139   5.050  0.00  0.00    -0.295 OA
ENDBRANCH   1  22
BRANCH   1  24
ATOM     24  O   LIG    1       24.927 -33.825   7.354  0.00  0.00    -0.381 OA
ATOM     25  H   LIG    1       24.177 -33.593   6.779  0.00  0.00    +0.211 HD
ENDBRANCH   1  24
TORSDOF 2
ENDMDL
MODEL 4
REMARK VINA RESULT:      -5.2      1.655      6.587
REMARK  Name = *****
REMARK                            x       y       z     vdW  Elec       q    Type
REMARK                         _______ _______ _______ _____ _____    ______ ____
ROOT
ATOM      1  C   LIG    1       24.656 -19.021   3.450  0.00  0.00    +0.129 C 
ATOM      2  C   LIG    1       23.614 -19.559   4.484  0.00  0.00    +0.007 C 
ATOM      3  C   LIG    1       22.497 -18.537   4.775  0.00  0.00    +0.014 C 
ATOM      4  C   LIG    1       24.489 -19.838   5.727  0.00  0.00    +0.005 C 
ATOM      5  C   LIG    1       23.818 -20.715   6.804  0.00  0.00    +0.019 C 
ATOM      6  C   LIG    1       23.061 -21.969   6.309  0.00  0.00    +0.006 C 
ATOM      7  C   LIG    1       22.215 -21.661   5.061  0.00  0.00    +0.005 C 
ATOM      8  C   LIG    1       23.860 -23.343   6.316  0.00  0.00    -0.003 C 
ATOM      9  C   LIG    1       22.902 -24.394   6.960  0.00  0.00    +0.016 C 
ATOM     10  C   LIG    1       25.131 -23.308   7.174  0.00  0.00    -0.038 C 
ATOM     11  C   LIG    1       26.128 -24.199   7.027  0.00  0.00    +0.050 C 
ATOM     12  C   LIG    1       26.095 -25.237   5.973  0.00  0.00    +0.156 C 
ATOM     13  O   LIG    1       26.949 -26.121   5.976  0.00  0.00    -0.293 OA
ATOM     14  C   LIG    1       25.004 -25.191   4.931  0.00  0.00    +0.080 C 
ATOM     15  C   LIG    1       25.307 -22.231   8.123  0.00  0.00    +0.000 C 
ATOM     16  C   LIG    1       24.258 -23.856   4.908  0.00  0.00    +0.019 C 
ATOM     17  C   LIG    1       24.736 -21.035   7.950  0.00  0.00    -0.023 C 
ATOM     18  C   LIG    1       25.830 -20.337   5.160  0.00  0.00    +0.008 C 
ATOM     19  C   LIG    1       22.952 -20.875   3.978  0.00  0.00    +0.010 C 
ATOM     20  C   LIG    1       25.887 -19.909   3.690  0.00  0.00    +0.043 C 
ENDROOT
BRANCH   1  22
ATOM     21  C   LIG    1       26.588 -17.260   3.522  0.00  0.00    +0.089 C 
ATOM     22  C   LIG    1       25.108 -17.542   3.624  0.00  0.00    +0.162 C 
ATOM     23  O   LIG    1       24.327 -16.626   3.889  0.00  0.00    -0.295 OA
ENDBRANCH   1  22
BRANCH   1  24
ATOM     24  O   LIG    1       24.191 -19.223   2.116  0.00  0.00    -0.381 OA
ATOM     25  H   LIG    1       23.259 -19.502   2.163  0.00  0.00    +0.211 HD
ENDBRANCH   1  24
TORSDOF 2
ENDMDL
MODEL 5
REMARK VINA RESULT:      -5.2      7.357      9.071
REMARK  Name = *****
REMARK                            x       y       z     vdW  Elec       q    Type
REMARK                         _______ _______ _______ _____ _____    ______ ____
ROOT
ATOM      1  C   LIG    1       26.111 -29.758   9.728  0.00  0.00    +0.129 C 
ATOM      2  C   LIG    1       26.665 -29.349  11.132  0.00  0.00    +0.007 C 
ATOM      3  C   LIG    1       28.182 -29.596  11.258  0.00  0.00    +0.014 C 
ATOM      4  C   LIG    1       25.846 -30.246  12.089  0.00  0.00    +0.005 C 
ATOM      5  C   LIG    1       25.900 -29.825  13.572  0.00  0.00    +0.019 C 
ATOM      6  C   LIG    1       25.737 -28.317  13.875  0.00  0.00    +0.006 C 
ATOM      7  C   LIG    1       26.550 -27.454  12.894  0.00  0.00    +0.005 C 
ATOM      8  C   LIG    1       24.277 -27.810  14.241  0.00  0.00    -0.003 C 
ATOM      9  C   LIG    1       24.440 -26.901  15.499  0.00  0.00    +0.016 C 
ATOM     10  C   LIG    1       23.313 -28.940  14.624  0.00  0.00    -0.038 C 
ATOM     11  C   LIG    1       21.976 -28.791  14.600  0.00  0.00    +0.050 C 
ATOM     12  C   LIG    1       21.342 -27.540  14.133  0.00  0.00    +0.156 C 
ATOM     13  O   LIG    1       20.129 -27.394  14.274  0.00  0.00    -0.293 OA
ATOM     14  C   LIG    1       22.201 -26.469  13.506  0.00  0.00    +0.080 C 
ATOM     15  C   LIG    1       23.853 -30.242  14.946  0.00  0.00    +0.000 C 
ATOM     16  C   LIG    1       23.596 -26.971  13.128  0.00  0.00    +0.019 C 
ATOM     17  C   LIG    1       25.019 -30.668  14.449  0.00  0.00    -0.023 C 
ATOM     18  C   LIG    1       24.452 -30.339  11.443  0.00  0.00    +0.008 C 
ATOM     19  C   LIG    1       26.388 -27.845  11.427  0.00  0.00    +0.010 C 
ATOM     20  C   LIG    1       24.605 -29.929   9.975  0.00  0.00    +0.043 C 
ENDROOT
BRANCH   1  22
ATOM     21  C   LIG    1       26.188 -31.455   7.740  0.00  0.00    +0.089 C 
ATOM     22  C   LIG    1       26.641 -31.096   9.135  0.00  0.00    +0.162 C 
ATOM     23  O   LIG    1       27.353 -31.877   9.767  0.00  0.00    -0.295 OA
ENDBRANCH   1  22
BRANCH   1  24
ATOM     24  O   LIG    1       26.311 -28.706   8.784  0.00  0.00    -0.381 OA
ATOM     25  H   LIG    1       25.701 -27.982   9.008  0.00  0.00    +0.211 HD
ENDBRANCH   1  24
TORSDOF 2
ENDMDL
MODEL 6
REMARK VINA RESULT:      -5.1      8.642     10.100
REMARK  Name = *****
REMARK                            x       y       z     vdW  Elec       q    Type
REMARK                         _______ _______ _______ _____ _____    ______ ____
ROOT
ATOM      1  C   LIG    1       22.040 -31.153  10.491  0.00  0.00    +0.129 C 
ATOM      2  C   LIG    1       22.682 -30.690  11.840  0.00  0.00    +0.007 C 
ATOM      3  C   LIG    1       24.009 -31.418  12.138  0.00  0.00    +0.014 C 
ATOM      4  C   LIG    1       21.583 -31.036  12.870  0.00  0.00    +0.005 C 
ATOM      5  C   LIG    1       21.762 -30.372  14.251  0.00  0.00    +0.019 C 
ATOM      6  C   LIG    1       22.144 -28.874  14.261  0.00  0.00    +0.006 C 
ATOM      7  C   LIG    1       23.226 -28.562  13.212  0.00  0.00    +0.005 C 
ATOM      8  C   LIG    1       20.956 -27.829  14.403  0.00  0.00    -0.003 C 
ATOM      9  C   LIG    1       21.415 -26.802  15.485  0.00  0.00    +0.016 C 
ATOM     10  C   LIG    1       19.647 -28.452  14.902  0.00  0.00    -0.038 C 
ATOM     11  C   LIG    1       18.452 -27.856  14.738  0.00  0.00    +0.050 C 
ATOM     12  C   LIG    1       18.314 -26.583  13.998  0.00  0.00    +0.156 C 
ATOM     13  O   LIG    1       17.231 -26.000  14.007  0.00  0.00    -0.293 OA
ATOM     14  C   LIG    1       19.509 -26.026  13.263  0.00  0.00    +0.080 C 
ATOM     15  C   LIG    1       19.681 -29.769  15.500  0.00  0.00    +0.000 C 
ATOM     16  C   LIG    1       20.637 -27.046  13.102  0.00  0.00    +0.019 C 
ATOM     17  C   LIG    1       20.625 -30.663  15.189  0.00  0.00    -0.023 C 
ATOM     18  C   LIG    1       20.258 -30.766  12.136  0.00  0.00    +0.008 C 
ATOM     19  C   LIG    1       22.957 -29.157  11.832  0.00  0.00    +0.010 C 
ATOM     20  C   LIG    1       20.568 -30.737  10.636  0.00  0.00    +0.043 C 
ENDROOT
BRANCH   1  22
ATOM     21  C   LIG    1       22.811 -33.132   8.965  0.00  0.00    +0.089 C 
ATOM     22  C   LIG    1       22.065 -32.682  10.199  0.00  0.00    +0.162 C 
ATOM     23  O   LIG    1       21.469 -33.509  10.889  0.00  0.00    -0.295 OA
ENDBRANCH   1  22
BRANCH   1  24
ATOM     24  O   LIG    1       22.617 -30.448   9.393  0.00  0.00    -0.381 OA
ATOM     25  H   LIG    1       23.500 -30.822   9.228  0.00  0.00    +0.211 HD
ENDBRANCH   1  24
TORSDOF 2
ENDMDL
MODEL 7
REMARK VINA RESULT:      -5.1      7.742     10.583
REMARK  Name = *****
REMARK                            x       y       z     vdW  Elec       q    Type
REMARK                         _______ _______ _______ _____ _____    ______ ____
ROOT
ATOM      1  C   LIG    1       20.860 -27.375  13.432  0.00  0.00    +0.129 C 
ATOM      2  C   LIG    1       21.037 -28.928  13.480  0.00  0.00    +0.007 C 
ATOM      3  C   LIG    1       19.921 -29.620  14.289  0.00  0.00    +0.014 C 
ATOM      4  C   LIG    1       22.424 -29.087  14.144  0.00  0.00    +0.005 C 
ATOM      5  C   LIG    1       23.046 -30.492  14.007  0.00  0.00    +0.019 C 
ATOM      6  C   LIG    1       22.968 -31.156  12.613  0.00  0.00    +0.006 C 
ATOM      7  C   LIG    1       21.581 -30.963  11.974  0.00  0.00    +0.005 C 
ATOM      8  C   LIG    1       24.229 -30.987  11.662  0.00  0.00    -0.003 C 
ATOM      9  C   LIG    1       24.526 -32.406  11.085  0.00  0.00    +0.016 C 
ATOM     10  C   LIG    1       25.494 -30.526  12.397  0.00  0.00    -0.038 C 
ATOM     11  C   LIG    1       26.540 -29.969  11.761  0.00  0.00    +0.050 C 
ATOM     12  C   LIG    1       26.509 -29.697  10.307  0.00  0.00    +0.156 C 
ATOM     13  O   LIG    1       27.540 -29.332   9.744  0.00  0.00    -0.293 OA
ATOM     14  C   LIG    1       25.217 -29.889   9.550  0.00  0.00    +0.080 C 
ATOM     15  C   LIG    1       25.538 -30.618  13.840  0.00  0.00    +0.000 C 
ATOM     16  C   LIG    1       24.002 -30.021  10.469  0.00  0.00    +0.019 C 
ATOM     17  C   LIG    1       24.430 -30.574  14.586  0.00  0.00    -0.023 C 
ATOM     18  C   LIG    1       23.252 -27.905  13.611  0.00  0.00    +0.008 C 
ATOM     19  C   LIG    1       21.047 -29.535  12.045  0.00  0.00    +0.010 C 
ATOM     20  C   LIG    1       22.264 -26.868  13.067  0.00  0.00    +0.043 C 
ENDROOT
BRANCH   1  22
ATOM     21  C   LIG    1       18.976 -26.677  15.106  0.00  0.00    +0.089 C 
ATOM     22  C   LIG    1       20.447 -26.681  14.763  0.00  0.00    +0.162 C 
ATOM     23  O   LIG    1       21.249 -26.104  15.499  0.00  0.00    -0.295 OA
ENDBRANCH   1  22
BRANCH   1  24
ATOM     24  O   LIG    1       19.949 -27.005  12.399  0.00  0.00    -0.381 OA
ATOM     25  H   LIG    1       19.377 -27.771  12.215  0.00  0.00    +0.211 HD
ENDBRANCH   1  24
TORSDOF 2
ENDMDL
MODEL 8
REMARK VINA RESULT:      -5.1      6.991      8.779
REMARK  Name = *****
REMARK                            x       y       z     vdW  Elec       q    Type
REMARK                         _______ _______ _______ _____ _____    ______ ____
ROOT
ATOM      1  C   LIG    1       25.173 -30.249   7.763  0.00  0.00    +0.129 C 
ATOM      2  C   LIG    1       25.927 -30.784   9.024  0.00  0.00    +0.007 C 
ATOM      3  C   LIG    1       27.025 -31.805   8.661  0.00  0.00    +0.014 C 
ATOM      4  C   LIG    1       24.787 -31.423   9.850  0.00  0.00    +0.005 C 
ATOM      5  C   LIG    1       25.145 -31.722  11.320  0.00  0.00    +0.019 C 
ATOM      6  C   LIG    1       25.900 -30.616  12.093  0.00  0.00    +0.006 C 
ATOM      7  C   LIG    1       27.014 -29.990  11.236  0.00  0.00    +0.005 C 
ATOM      8  C   LIG    1       25.022 -29.623  12.970  0.00  0.00    -0.003 C 
ATOM      9  C   LIG    1       25.741 -29.520  14.351  0.00  0.00    +0.016 C 
ATOM     10  C   LIG    1       23.602 -30.135  13.239  0.00  0.00    -0.038 C 
ATOM     11  C   LIG    1       22.599 -29.323  13.619  0.00  0.00    +0.050 C 
ATOM     12  C   LIG    1       22.785 -27.860  13.734  0.00  0.00    +0.156 C 
ATOM     13  O   LIG    1       21.889 -27.180  14.231  0.00  0.00    -0.293 OA
ATOM     14  C   LIG    1       24.075 -27.242  13.252  0.00  0.00    +0.080 C 
ATOM     15  C   LIG    1       23.303 -31.530  13.000  0.00  0.00    +0.000 C 
ATOM     16  C   LIG    1       24.902 -28.192  12.383  0.00  0.00    +0.019 C 
ATOM     17  C   LIG    1       23.982 -32.256  12.106  0.00  0.00    -0.023 C 
ATOM     18  C   LIG    1       23.568 -30.516   9.602  0.00  0.00    +0.008 C 
ATOM     19  C   LIG    1       26.587 -29.618   9.818  0.00  0.00    +0.010 C 
ATOM     20  C   LIG    1       23.860 -29.700   8.339  0.00  0.00    +0.043 C 
ENDROOT
BRANCH   1  22
ATOM     21  C   LIG    1       25.555 -31.234   5.370  0.00  0.00    +0.089 C 
ATOM     22  C   LIG    1       24.801 -31.301   6.677  0.00  0.00    +0.162 C 
ATOM     23  O   LIG    1       23.901 -32.130   6.823  0.00  0.00    -0.295 OA
ENDBRANCH   1  22
BRANCH   1  24
ATOM     24  O   LIG    1       25.900 -29.179   7.160  0.00  0.00    -0.381 OA
ATOM     25  H   LIG    1       25.264 -28.613   6.689  0.00  0.00    +0.211 HD
ENDBRANCH   1  24
TORSDOF 2
ENDMDL
MODEL 9
REMARK VINA RESULT:      -5.0      6.170      9.504
REMARK  Name = *****
REMARK                            x       y       z     vdW  Elec       q    Type
REMARK                         _______ _______ _______ _____ _____    ______ ____
ROOT
ATOM      1  C   LIG    1       21.994 -29.870  13.278  0.00  0.00    +0.129 C 
ATOM      2  C   LIG    1       23.106 -30.903  12.902  0.00  0.00    +0.007 C 
ATOM      3  C   LIG    1       23.190 -32.066  13.911  0.00  0.00    +0.014 C 
ATOM      4  C   LIG    1       24.385 -30.033  12.906  0.00  0.00    +0.005 C 
ATOM      5  C   LIG    1       25.606 -30.681  12.222  0.00  0.00    +0.019 C 
ATOM      6  C   LIG    1       25.357 -31.377  10.864  0.00  0.00    +0.006 C 
ATOM      7  C   LIG    1       24.069 -32.218  10.890  0.00  0.00    +0.005 C 
ATOM      8  C   LIG    1       25.632 -30.521   9.554  0.00  0.00    -0.003 C 
ATOM      9  C   LIG    1       26.460 -31.442   8.605  0.00  0.00    +0.016 C 
ATOM     10  C   LIG    1       26.473 -29.265   9.808  0.00  0.00    -0.038 C 
ATOM     11  C   LIG    1       26.506 -28.228   8.951  0.00  0.00    +0.050 C 
ATOM     12  C   LIG    1       25.671 -28.204   7.730  0.00  0.00    +0.156 C 
ATOM     13  O   LIG    1       25.847 -27.312   6.902  0.00  0.00    -0.293 OA
ATOM     14  C   LIG    1       24.633 -29.281   7.527  0.00  0.00    +0.080 C 
ATOM     15  C   LIG    1       27.200 -29.147  11.054  0.00  0.00    +0.000 C 
ATOM     16  C   LIG    1       24.350 -30.082   8.799  0.00  0.00    +0.019 C 
ATOM     17  C   LIG    1       26.797 -29.766  12.169  0.00  0.00    -0.023 C 
ATOM     18  C   LIG    1       23.931 -28.665  12.368  0.00  0.00    +0.008 C 
ATOM     19  C   LIG    1       22.859 -31.501  11.486  0.00  0.00    +0.010 C 
ATOM     20  C   LIG    1       22.407 -28.606  12.508  0.00  0.00    +0.043 C 
ENDROOT
BRANCH   1  22
ATOM     21  C   LIG    1       20.586 -29.813  15.481  0.00  0.00    +0.089 C 
ATOM     22  C   LIG    1       21.883 -29.484  14.782  0.00  0.00    +0.162 C 
ATOM     23  O   LIG    1       22.772 -28.886  15.391  0.00  0.00    -0.295 OA
ENDBRANCH   1  22
BRANCH   1  24
ATOM     24  O   LIG    1       20.721 -30.308  12.804  0.00  0.00    -0.381 OA
ATOM     25  H   LIG    1       20.870 -31.045  12.186  0.00  0.00    +0.211 HD
ENDBRANCH   1  24
TORSDOF 2
ENDMDL
