MODEL 1
REMARK VINA RESULT:     -10.0      0.000      0.000
REMARK  Name = *****
REMARK                            x       y       z     vdW  Elec       q    Type
REMARK                         _______ _______ _______ _____ _____    ______ ____
ROOT
ATOM      1  C   LIG    1       24.740 -20.865   5.934  0.00  0.00    +0.059 C 
ENDROOT
BRANCH   1   5
ATOM      2  C   LIG    1       28.814 -19.752   7.302  0.00  0.00    +0.121 C 
ATOM      3  O   LIG    1       27.705 -19.892   8.211  0.00  0.00    -0.457 OA
ATOM      4  C   LIG    1       26.492 -20.320   7.744  0.00  0.00    +0.287 C 
ATOM      5  C   LIG    1       26.125 -20.451   6.455  0.00  0.00    +0.082 C 
ATOM      6  C   LIG    1       27.149 -20.048   5.450  0.00  0.00    +0.170 C 
ATOM      7  O   LIG    1       26.994 -20.267   4.251  0.00  0.00    -0.292 OA
ATOM      8  C   LIG    1       28.320 -19.242   5.945  0.00  0.00    +0.127 C 
BRANCH   4   9
ATOM      9  O   LIG    1       25.606 -20.639   8.744  0.00  0.00    -0.480 OA
ATOM     10  H   LIG    1       25.006 -19.875   8.788  0.00  0.00    +0.295 HD
ENDBRANCH   4   9
BRANCH   2  11
ATOM     11  C   LIG    1       29.538 -21.128   7.230  0.00  0.00    +0.048 C 
BRANCH  11  13
ATOM     12  C   LIG    1       31.211 -21.800   9.003  0.00  0.00    +0.004 C 
ATOM     13  C   LIG    1       29.752 -21.854   8.564  0.00  0.00    +0.001 C 
ENDBRANCH  11  13
ENDBRANCH   2  11
BRANCH   2  14
ATOM     14  C   LIG    1       29.717 -18.637   7.914  0.00  0.00    +0.053 C 
BRANCH  14  15
ATOM     15  C   LIG    1       29.620 -18.469   9.438  0.00  0.00    +0.039 C 
BRANCH  15  16
ATOM     16  C   LIG    1       30.737 -17.618  10.000  0.00  0.00    -0.047 A 
ATOM     17  C   LIG    1       31.712 -17.085   9.144  0.00  0.00    +0.003 A 
ATOM     18  C   LIG    1       32.704 -16.237   9.638  0.00  0.00    +0.000 A 
ATOM     19  C   LIG    1       32.751 -15.934  10.997  0.00  0.00    +0.000 A 
ATOM     20  C   LIG    1       31.815 -16.493  11.865  0.00  0.00    +0.000 A 
ATOM     21  C   LIG    1       30.809 -17.329  11.371  0.00  0.00    +0.003 A 
ENDBRANCH  15  16
ENDBRANCH  14  15
ENDBRANCH   2  14
ENDBRANCH   1   5
BRANCH   1  22
ATOM     22  C   LIG    1       24.454 -22.349   6.192  0.00  0.00    -0.038 A 
ATOM     23  C   LIG    1       25.476 -23.320   6.159  0.00  0.00    +0.028 A 
ATOM     24  C   LIG    1       25.195 -24.665   6.436  0.00  0.00    +0.048 A 
ATOM     25  C   LIG    1       23.890 -25.069   6.694  0.00  0.00    +0.024 A 
ATOM     26  C   LIG    1       22.867 -24.124   6.727  0.00  0.00    +0.002 A 
ATOM     27  C   LIG    1       23.145 -22.775   6.482  0.00  0.00    +0.004 A 
BRANCH  24  28
ATOM     28  N   LIG    1       26.233 -25.657   6.454  0.00  0.00    -0.215 N 
ATOM     29  H   LIG    1       27.153 -25.215   6.427  0.00  0.00    +0.174 HD
BRANCH  28  30
ATOM     30  S   LIG    1       26.185 -26.800   5.183  0.00  0.00    +0.090 S 
ATOM     31  O   LIG    1       27.561 -27.129   4.896  0.00  0.00    -0.148 OA
ATOM     32  O   LIG    1       25.282 -26.358   4.127  0.00  0.00    -0.148 OA
BRANCH  30  33
ATOM     33  C   LIG    1       25.453 -28.234   5.996  0.00  0.00    +0.197 A 
ATOM     34  N   LIG    1       25.070 -29.243   5.167  0.00  0.00    -0.235 NA
ATOM     35  C   LIG    1       24.600 -30.364   5.758  0.00  0.00    +0.125 A 
ATOM     36  C   LIG    1       24.476 -30.527   7.134  0.00  0.00    +0.073 A 
ATOM     37  C   LIG    1       24.867 -29.459   7.953  0.00  0.00    +0.017 A 
ATOM     38  C   LIG    1       25.377 -28.292   7.380  0.00  0.00    +0.050 A 
BRANCH  36  39
ATOM     39  C   LIG    1       23.948 -31.819   7.681  0.00  0.00    +0.419 C 
ATOM     40  F   LIG    1       24.940 -32.686   8.023  0.00  0.00    -0.166 F 
ATOM     41  F   LIG    1       23.163 -32.482   6.788  0.00  0.00    -0.166 F 
ATOM     42  F   LIG    1       23.188 -31.664   8.801  0.00  0.00    -0.166 F 
ENDBRANCH  36  39
ENDBRANCH  30  33
ENDBRANCH  28  30
ENDBRANCH  24  28
ENDBRANCH   1  22
BRANCH   1  43
ATOM     43  C   LIG    1       23.595 -19.934   6.445  0.00  0.00    +0.010 C 
ATOM     44  C   LIG    1       22.582 -19.505   5.391  0.00  0.00    +0.005 C 
ENDBRANCH   1  43
TORSDOF 13
ENDMDL
MODEL 2
REMARK VINA RESULT:      -8.9      5.694     10.877
REMARK  Name = *****
REMARK                            x       y       z     vdW  Elec       q    Type
REMARK                         _______ _______ _______ _____ _____    ______ ____
ROOT
ATOM      1  C   LIG    1       23.619 -31.750   8.505  0.00  0.00    +0.059 C 
ENDROOT
BRANCH   1   5
ATOM      2  C   LIG    1       23.884 -29.378  12.247  0.00  0.00    +0.121 C 
ATOM      3  O   LIG    1       22.635 -29.611  11.568  0.00  0.00    -0.457 OA
ATOM      4  C   LIG    1       22.602 -30.421  10.465  0.00  0.00    +0.287 C 
ATOM      5  C   LIG    1       23.661 -30.899   9.783  0.00  0.00    +0.082 C 
ATOM      6  C   LIG    1       24.996 -30.458  10.277  0.00  0.00    +0.170 C 
ATOM      7  O   LIG    1       26.036 -30.946   9.840  0.00  0.00    -0.292 OA
ATOM      8  C   LIG    1       25.028 -29.295  11.233  0.00  0.00    +0.127 C 
BRANCH   4   9
ATOM      9  O   LIG    1       21.329 -30.748  10.068  0.00  0.00    -0.480 OA
ATOM     10  H   LIG    1       20.894 -29.892   9.920  0.00  0.00    +0.295 HD
ENDBRANCH   4   9
BRANCH   2  11
ATOM     11  C   LIG    1       24.061 -30.508  13.304  0.00  0.00    +0.048 C 
BRANCH  11  13
ATOM     12  C   LIG    1       25.788 -32.190  14.067  0.00  0.00    +0.004 C 
ATOM     13  C   LIG    1       25.479 -30.713  13.849  0.00  0.00    +0.001 C 
ENDBRANCH  11  13
ENDBRANCH   2  11
BRANCH   2  14
ATOM     14  C   LIG    1       23.745 -27.968  12.902  0.00  0.00    +0.053 C 
BRANCH  14  15
ATOM     15  C   LIG    1       23.069 -27.943  14.281  0.00  0.00    +0.039 C 
BRANCH  15  16
ATOM     16  C   LIG    1       21.644 -27.439  14.220  0.00  0.00    -0.047 A 
ATOM     17  C   LIG    1       20.830 -27.495  15.361  0.00  0.00    +0.003 A 
ATOM     18  C   LIG    1       19.540 -26.966  15.340  0.00  0.00    +0.000 A 
ATOM     19  C   LIG    1       19.036 -26.400  14.170  0.00  0.00    +0.000 A 
ATOM     20  C   LIG    1       19.819 -26.377  13.018  0.00  0.00    +0.000 A 
ATOM     21  C   LIG    1       21.119 -26.892  13.040  0.00  0.00    +0.003 A 
ENDBRANCH  15  16
ENDBRANCH  14  15
ENDBRANCH   2  14
ENDBRANCH   1   5
BRANCH   1  22
ATOM     22  C   LIG    1       24.273 -31.030   7.319  0.00  0.00    -0.038 A 
ATOM     23  C   LIG    1       24.096 -29.649   7.099  0.00  0.00    +0.028 A 
ATOM     24  C   LIG    1       24.735 -29.007   6.030  0.00  0.00    +0.048 A 
ATOM     25  C   LIG    1       25.510 -29.737   5.136  0.00  0.00    +0.024 A 
ATOM     26  C   LIG    1       25.691 -31.104   5.335  0.00  0.00    +0.002 A 
ATOM     27  C   LIG    1       25.082 -31.746   6.419  0.00  0.00    +0.004 A 
BRANCH  24  28
ATOM     28  N   LIG    1       24.604 -27.592   5.822  0.00  0.00    -0.215 N 
ATOM     29  H   LIG    1       24.496 -27.383   4.828  0.00  0.00    +0.174 HD
BRANCH  28  30
ATOM     30  S   LIG    1       25.901 -26.637   6.399  0.00  0.00    +0.090 S 
ATOM     31  O   LIG    1       26.858 -26.578   5.320  0.00  0.00    -0.148 OA
ATOM     32  O   LIG    1       26.300 -27.065   7.735  0.00  0.00    -0.148 OA
BRANCH  30  33
ATOM     33  C   LIG    1       25.138 -25.007   6.526  0.00  0.00    +0.197 A 
ATOM     34  N   LIG    1       26.004 -23.958   6.542  0.00  0.00    -0.235 NA
ATOM     35  C   LIG    1       25.455 -22.723   6.547  0.00  0.00    +0.125 A 
ATOM     36  C   LIG    1       24.086 -22.478   6.553  0.00  0.00    +0.073 A 
ATOM     37  C   LIG    1       23.227 -23.586   6.551  0.00  0.00    +0.017 A 
ATOM     38  C   LIG    1       23.757 -24.878   6.525  0.00  0.00    +0.050 A 
BRANCH  36  39
ATOM     39  C   LIG    1       23.587 -21.064   6.551  0.00  0.00    +0.419 C 
ATOM     40  F   LIG    1       22.429 -20.919   5.849  0.00  0.00    -0.166 F 
ATOM     41  F   LIG    1       24.475 -20.198   5.991  0.00  0.00    -0.166 F 
ATOM     42  F   LIG    1       23.328 -20.578   7.798  0.00  0.00    -0.166 F 
ENDBRANCH  36  39
ENDBRANCH  30  33
ENDBRANCH  28  30
ENDBRANCH  24  28
ENDBRANCH   1  22
BRANCH   1  43
ATOM     43  C   LIG    1       24.181 -33.192   8.716  0.00  0.00    +0.010 C 
ATOM     44  C   LIG    1       23.944 -33.791  10.097  0.00  0.00    +0.005 C 
ENDBRANCH   1  43
TORSDOF 13
ENDMDL
MODEL 3
REMARK VINA RESULT:      -8.8      5.272     10.913
REMARK  Name = *****
REMARK                            x       y       z     vdW  Elec       q    Type
REMARK                         _______ _______ _______ _____ _____    ______ ____
ROOT
ATOM      1  C   LIG    1       25.599 -27.169   5.881  0.00  0.00    +0.059 C 
ENDROOT
BRANCH   1   5
ATOM      2  C   LIG    1       24.419 -30.414   8.671  0.00  0.00    +0.121 C 
ATOM      3  O   LIG    1       23.627 -30.058   7.521  0.00  0.00    -0.457 OA
ATOM      4  C   LIG    1       24.083 -29.107   6.649  0.00  0.00    +0.287 C 
ATOM      5  C   LIG    1       25.132 -28.283   6.831  0.00  0.00    +0.082 C 
ATOM      6  C   LIG    1       25.832 -28.413   8.140  0.00  0.00    +0.170 C 
ATOM      7  O   LIG    1       26.892 -27.831   8.363  0.00  0.00    -0.292 OA
ATOM      8  C   LIG    1       25.125 -29.175   9.228  0.00  0.00    +0.127 C 
BRANCH   4   9
ATOM      9  O   LIG    1       23.356 -29.042   5.486  0.00  0.00    -0.480 OA
ATOM     10  H   LIG    1       23.904 -29.507   4.831  0.00  0.00    +0.295 HD
ENDBRANCH   4   9
BRANCH   2  11
ATOM     11  C   LIG    1       25.392 -31.549   8.236  0.00  0.00    +0.048 C 
BRANCH  11  13
ATOM     12  C   LIG    1       27.316 -33.077   8.833  0.00  0.00    +0.004 C 
ATOM     13  C   LIG    1       26.652 -31.729   9.090  0.00  0.00    +0.001 C 
ENDBRANCH  11  13
ENDBRANCH   2  11
BRANCH   2  14
ATOM     14  C   LIG    1       23.397 -30.890   9.750  0.00  0.00    +0.053 C 
BRANCH  14  15
ATOM     15  C   LIG    1       23.840 -30.702  11.209  0.00  0.00    +0.039 C 
BRANCH  15  16
ATOM     16  C   LIG    1       23.121 -29.558  11.891  0.00  0.00    -0.047 A 
ATOM     17  C   LIG    1       21.719 -29.522  11.908  0.00  0.00    +0.003 A 
ATOM     18  C   LIG    1       21.043 -28.515  12.597  0.00  0.00    +0.000 A 
ATOM     19  C   LIG    1       21.759 -27.516  13.253  0.00  0.00    +0.000 A 
ATOM     20  C   LIG    1       23.152 -27.516  13.206  0.00  0.00    +0.000 A 
ATOM     21  C   LIG    1       23.833 -28.533  12.530  0.00  0.00    +0.003 A 
ENDBRANCH  15  16
ENDBRANCH  14  15
ENDBRANCH   2  14
ENDBRANCH   1   5
BRANCH   1  22
ATOM     22  C   LIG    1       25.065 -25.797   6.306  0.00  0.00    -0.038 A 
ATOM     23  C   LIG    1       25.919 -24.781   6.783  0.00  0.00    +0.028 A 
ATOM     24  C   LIG    1       25.410 -23.522   7.129  0.00  0.00    +0.048 A 
ATOM     25  C   LIG    1       24.043 -23.275   7.060  0.00  0.00    +0.024 A 
ATOM     26  C   LIG    1       23.184 -24.269   6.596  0.00  0.00    +0.002 A 
ATOM     27  C   LIG    1       23.688 -25.518   6.218  0.00  0.00    +0.004 A 
BRANCH  24  28
ATOM     28  N   LIG    1       26.273 -22.462   7.569  0.00  0.00    -0.215 N 
ATOM     29  H   LIG    1       26.147 -22.287   8.567  0.00  0.00    +0.174 HD
BRANCH  28  30
ATOM     30  S   LIG    1       26.076 -20.966   6.764  0.00  0.00    +0.090 S 
ATOM     31  O   LIG    1       25.048 -20.260   7.492  0.00  0.00    -0.148 OA
ATOM     32  O   LIG    1       25.974 -21.166   5.324  0.00  0.00    -0.148 OA
BRANCH  30  33
ATOM     33  C   LIG    1       27.641 -20.142   7.116  0.00  0.00    +0.197 A 
ATOM     34  N   LIG    1       28.003 -20.112   8.428  0.00  0.00    -0.235 NA
ATOM     35  C   LIG    1       29.213 -19.579   8.708  0.00  0.00    +0.125 A 
ATOM     36  C   LIG    1       30.076 -19.056   7.750  0.00  0.00    +0.073 A 
ATOM     37  C   LIG    1       29.660 -19.092   6.412  0.00  0.00    +0.017 A 
ATOM     38  C   LIG    1       28.425 -19.655   6.081  0.00  0.00    +0.050 A 
BRANCH  36  39
ATOM     39  C   LIG    1       31.400 -18.495   8.174  0.00  0.00    +0.419 C 
ATOM     40  F   LIG    1       32.347 -18.599   7.202  0.00  0.00    -0.166 F 
ATOM     41  F   LIG    1       31.911 -19.130   9.264  0.00  0.00    -0.166 F 
ATOM     42  F   LIG    1       31.348 -17.174   8.503  0.00  0.00    -0.166 F 
ENDBRANCH  36  39
ENDBRANCH  30  33
ENDBRANCH  28  30
ENDBRANCH  24  28
ENDBRANCH   1  22
BRANCH   1  43
ATOM     43  C   LIG    1       27.144 -27.170   5.656  0.00  0.00    +0.010 C 
ATOM     44  C   LIG    1       27.599 -27.488   4.238  0.00  0.00    +0.005 C 
ENDBRANCH   1  43
TORSDOF 13
ENDMDL
MODEL 4
REMARK VINA RESULT:      -8.7      5.651      9.614
REMARK  Name = *****
REMARK                            x       y       z     vdW  Elec       q    Type
REMARK                         _______ _______ _______ _____ _____    ______ ____
ROOT
ATOM      1  C   LIG    1       23.625 -31.437   8.601  0.00  0.00    +0.059 C 
ENDROOT
BRANCH   1   5
ATOM      2  C   LIG    1       24.733 -29.227  12.287  0.00  0.00    +0.121 C 
ATOM      3  O   LIG    1       23.376 -29.300  11.809  0.00  0.00    -0.457 OA
ATOM      4  C   LIG    1       23.080 -30.066  10.714  0.00  0.00    +0.287 C 
ATOM      5  C   LIG    1       23.960 -30.636   9.868  0.00  0.00    +0.082 C 
ATOM      6  C   LIG    1       25.396 -30.361  10.152  0.00  0.00    +0.170 C 
ATOM      7  O   LIG    1       26.294 -30.947   9.551  0.00  0.00    -0.292 OA
ATOM      8  C   LIG    1       25.708 -29.240  11.107  0.00  0.00    +0.127 C 
BRANCH   4   9
ATOM      9  O   LIG    1       21.732 -30.238  10.518  0.00  0.00    -0.480 OA
ATOM     10  H   LIG    1       21.630 -31.191  10.357  0.00  0.00    +0.295 HD
ENDBRANCH   4   9
BRANCH   2  11
ATOM     11  C   LIG    1       24.941 -30.402  13.287  0.00  0.00    +0.048 C 
BRANCH  11  13
ATOM     12  C   LIG    1       26.821 -30.032  14.938  0.00  0.00    +0.004 C 
ATOM     13  C   LIG    1       26.392 -30.734  13.654  0.00  0.00    +0.001 C 
ENDBRANCH  11  13
ENDBRANCH   2  11
BRANCH   2  14
ATOM     14  C   LIG    1       24.858 -27.832  12.976  0.00  0.00    +0.053 C 
BRANCH  14  15
ATOM     15  C   LIG    1       26.127 -27.037  12.634  0.00  0.00    +0.039 C 
BRANCH  15  16
ATOM     16  C   LIG    1       26.313 -25.829  13.526  0.00  0.00    -0.047 A 
ATOM     17  C   LIG    1       25.200 -25.074  13.924  0.00  0.00    +0.003 A 
ATOM     18  C   LIG    1       25.348 -24.003  14.806  0.00  0.00    +0.000 A 
ATOM     19  C   LIG    1       26.612 -23.657  15.279  0.00  0.00    +0.000 A 
ATOM     20  C   LIG    1       27.730 -24.372  14.856  0.00  0.00    +0.000 A 
ATOM     21  C   LIG    1       27.584 -25.456  13.985  0.00  0.00    +0.003 A 
ENDBRANCH  15  16
ENDBRANCH  14  15
ENDBRANCH   2  14
ENDBRANCH   1   5
BRANCH   1  22
ATOM     22  C   LIG    1       24.250 -30.810   7.349  0.00  0.00    -0.038 A 
ATOM     23  C   LIG    1       24.107 -29.440   7.053  0.00  0.00    +0.028 A 
ATOM     24  C   LIG    1       24.720 -28.883   5.922  0.00  0.00    +0.048 A 
ATOM     25  C   LIG    1       25.434 -29.691   5.044  0.00  0.00    +0.024 A 
ATOM     26  C   LIG    1       25.582 -31.049   5.318  0.00  0.00    +0.002 A 
ATOM     27  C   LIG    1       24.999 -31.605   6.462  0.00  0.00    +0.004 A 
BRANCH  24  28
ATOM     28  N   LIG    1       24.625 -27.480   5.634  0.00  0.00    -0.215 N 
ATOM     29  H   LIG    1       24.597 -27.321   4.626  0.00  0.00    +0.174 HD
BRANCH  28  30
ATOM     30  S   LIG    1       25.884 -26.509   6.264  0.00  0.00    +0.090 S 
ATOM     31  O   LIG    1       26.864 -26.401   5.209  0.00  0.00    -0.148 OA
ATOM     32  O   LIG    1       26.262 -26.959   7.598  0.00  0.00    -0.148 OA
BRANCH  30  33
ATOM     33  C   LIG    1       25.080 -24.901   6.411  0.00  0.00    +0.197 A 
ATOM     34  N   LIG    1       25.891 -23.824   6.230  0.00  0.00    -0.235 NA
ATOM     35  C   LIG    1       25.296 -22.610   6.247  0.00  0.00    +0.125 A 
ATOM     36  C   LIG    1       23.935 -22.412   6.452  0.00  0.00    +0.073 A 
ATOM     37  C   LIG    1       23.135 -23.546   6.648  0.00  0.00    +0.017 A 
ATOM     38  C   LIG    1       23.710 -24.819   6.616  0.00  0.00    +0.050 A 
BRANCH  36  39
ATOM     39  C   LIG    1       23.380 -21.019   6.443  0.00  0.00    +0.419 C 
ATOM     40  F   LIG    1       22.289 -20.895   5.638  0.00  0.00    -0.166 F 
ATOM     41  F   LIG    1       24.281 -20.102   5.996  0.00  0.00    -0.166 F 
ATOM     42  F   LIG    1       22.985 -20.585   7.673  0.00  0.00    -0.166 F 
ENDBRANCH  36  39
ENDBRANCH  30  33
ENDBRANCH  28  30
ENDBRANCH  24  28
ENDBRANCH   1  22
BRANCH   1  43
ATOM     43  C   LIG    1       23.951 -32.958   8.739  0.00  0.00    +0.010 C 
ATOM     44  C   LIG    1       22.817 -33.825   9.271  0.00  0.00    +0.005 C 
ENDBRANCH   1  43
TORSDOF 13
ENDMDL
MODEL 5
REMARK VINA RESULT:      -8.4      1.791      2.280
REMARK  Name = *****
REMARK                            x       y       z     vdW  Elec       q    Type
REMARK                         _______ _______ _______ _____ _____    ______ ____
ROOT
ATOM      1  C   LIG    1       25.159 -20.901   6.566  0.00  0.00    +0.059 C 
ENDROOT
BRANCH   1   5
ATOM      2  C   LIG    1       29.293 -19.697   7.646  0.00  0.00    +0.121 C 
ATOM      3  O   LIG    1       28.246 -19.830   8.627  0.00  0.00    -0.457 OA
ATOM      4  C   LIG    1       27.013 -20.287   8.248  0.00  0.00    +0.287 C 
ATOM      5  C   LIG    1       26.568 -20.454   6.988  0.00  0.00    +0.082 C 
ATOM      6  C   LIG    1       27.520 -20.062   5.912  0.00  0.00    +0.170 C 
ATOM      7  O   LIG    1       27.293 -20.312   4.730  0.00  0.00    -0.292 OA
ATOM      8  C   LIG    1       28.707 -19.227   6.311  0.00  0.00    +0.127 C 
BRANCH   4   9
ATOM      9  O   LIG    1       26.197 -20.593   9.309  0.00  0.00    -0.480 OA
ATOM     10  H   LIG    1       25.687 -19.779   9.466  0.00  0.00    +0.295 HD
ENDBRANCH   4   9
BRANCH   2  11
ATOM     11  C   LIG    1       30.033 -21.064   7.562  0.00  0.00    +0.048 C 
BRANCH  11  13
ATOM     12  C   LIG    1       31.072 -22.200   9.567  0.00  0.00    +0.004 C 
ATOM     13  C   LIG    1       31.290 -21.211   8.427  0.00  0.00    +0.001 C 
ENDBRANCH  11  13
ENDBRANCH   2  11
BRANCH   2  14
ATOM     14  C   LIG    1       30.216 -18.554   8.173  0.00  0.00    +0.053 C 
BRANCH  14  15
ATOM     15  C   LIG    1       29.808 -17.944   9.522  0.00  0.00    +0.039 C 
BRANCH  15  16
ATOM     16  C   LIG    1       30.956 -17.239  10.211  0.00  0.00    -0.047 A 
ATOM     17  C   LIG    1       31.876 -16.495   9.458  0.00  0.00    +0.003 A 
ATOM     18  C   LIG    1       32.895 -15.779  10.086  0.00  0.00    +0.000 A 
ATOM     19  C   LIG    1       33.025 -15.821  11.473  0.00  0.00    +0.000 A 
ATOM     20  C   LIG    1       32.145 -16.592  12.229  0.00  0.00    +0.000 A 
ATOM     21  C   LIG    1       31.112 -17.297  11.604  0.00  0.00    +0.003 A 
ENDBRANCH  15  16
ENDBRANCH  14  15
ENDBRANCH   2  14
ENDBRANCH   1   5
BRANCH   1  22
ATOM     22  C   LIG    1       25.159 -22.326   6.000  0.00  0.00    -0.038 A 
ATOM     23  C   LIG    1       25.578 -23.431   6.768  0.00  0.00    +0.028 A 
ATOM     24  C   LIG    1       25.533 -24.729   6.239  0.00  0.00    +0.048 A 
ATOM     25  C   LIG    1       25.124 -24.936   4.927  0.00  0.00    +0.024 A 
ATOM     26  C   LIG    1       24.711 -23.855   4.152  0.00  0.00    +0.002 A 
ATOM     27  C   LIG    1       24.724 -22.561   4.683  0.00  0.00    +0.004 A 
BRANCH  24  28
ATOM     28  N   LIG    1       25.910 -25.869   7.025  0.00  0.00    -0.215 N 
ATOM     29  H   LIG    1       26.923 -25.903   7.148  0.00  0.00    +0.174 HD
BRANCH  28  30
ATOM     30  S   LIG    1       25.426 -27.388   6.404  0.00  0.00    +0.090 S 
ATOM     31  O   LIG    1       26.499 -27.820   5.540  0.00  0.00    -0.148 OA
ATOM     32  O   LIG    1       24.050 -27.333   5.924  0.00  0.00    -0.148 OA
BRANCH  30  33
ATOM     33  C   LIG    1       25.476 -28.428   7.876  0.00  0.00    +0.197 A 
ATOM     34  N   LIG    1       26.471 -28.144   8.758  0.00  0.00    -0.235 NA
ATOM     35  C   LIG    1       26.477 -28.851   9.911  0.00  0.00    +0.125 A 
ATOM     36  C   LIG    1       25.550 -29.840  10.223  0.00  0.00    +0.073 A 
ATOM     37  C   LIG    1       24.549 -30.113   9.282  0.00  0.00    +0.017 A 
ATOM     38  C   LIG    1       24.498 -29.389   8.088  0.00  0.00    +0.050 A 
BRANCH  36  39
ATOM     39  C   LIG    1       25.647 -30.557  11.537  0.00  0.00    +0.419 C 
ATOM     40  F   LIG    1       24.517 -30.432  12.285  0.00  0.00    -0.166 F 
ATOM     41  F   LIG    1       26.663 -30.089  12.312  0.00  0.00    -0.166 F 
ATOM     42  F   LIG    1       25.862 -31.896  11.409  0.00  0.00    -0.166 F 
ENDBRANCH  36  39
ENDBRANCH  30  33
ENDBRANCH  28  30
ENDBRANCH  24  28
ENDBRANCH   1  22
BRANCH   1  43
ATOM     43  C   LIG    1       24.095 -20.701   7.691  0.00  0.00    +0.010 C 
ATOM     44  C   LIG    1       22.895 -21.637   7.631  0.00  0.00    +0.005 C 
ENDBRANCH   1  43
TORSDOF 13
ENDMDL
MODEL 6
REMARK VINA RESULT:      -8.2      6.079     11.680
REMARK  Name = *****
REMARK                            x       y       z     vdW  Elec       q    Type
REMARK                         _______ _______ _______ _____ _____    ______ ____
ROOT
ATOM      1  C   LIG    1       24.058 -31.682   9.891  0.00  0.00    +0.059 C 
ENDROOT
BRANCH   1   5
ATOM      2  C   LIG    1       21.909 -29.003  12.703  0.00  0.00    +0.121 C 
ATOM      3  O   LIG    1       21.254 -29.638  11.588  0.00  0.00    -0.457 OA
ATOM      4  C   LIG    1       21.946 -30.521  10.805  0.00  0.00    +0.287 C 
ATOM      5  C   LIG    1       23.275 -30.742  10.819  0.00  0.00    +0.082 C 
ATOM      6  C   LIG    1       24.056 -29.900  11.769  0.00  0.00    +0.170 C 
ATOM      7  O   LIG    1       25.247 -30.114  11.987  0.00  0.00    -0.292 OA
ATOM      8  C   LIG    1       23.367 -28.694  12.350  0.00  0.00    +0.127 C 
BRANCH   4   9
ATOM      9  O   LIG    1       21.145 -31.227   9.941  0.00  0.00    -0.480 OA
ATOM     10  H   LIG    1       21.565 -31.113   9.072  0.00  0.00    +0.295 HD
ENDBRANCH   4   9
BRANCH   2  11
ATOM     11  C   LIG    1       21.746 -29.937  13.937  0.00  0.00    +0.048 C 
BRANCH  11  13
ATOM     12  C   LIG    1       21.476 -32.445  13.761  0.00  0.00    +0.004 C 
ATOM     13  C   LIG    1       20.758 -31.100  13.784  0.00  0.00    +0.001 C 
ENDBRANCH  11  13
ENDBRANCH   2  11
BRANCH   2  14
ATOM     14  C   LIG    1       21.180 -27.636  12.891  0.00  0.00    +0.053 C 
BRANCH  14  15
ATOM     15  C   LIG    1       20.654 -27.357  14.307  0.00  0.00    +0.039 C 
BRANCH  15  16
ATOM     16  C   LIG    1       19.142 -27.361  14.375  0.00  0.00    -0.047 A 
ATOM     17  C   LIG    1       18.423 -26.199  14.062  0.00  0.00    +0.003 A 
ATOM     18  C   LIG    1       17.028 -26.209  14.048  0.00  0.00    +0.000 A 
ATOM     19  C   LIG    1       16.335 -27.372  14.375  0.00  0.00    +0.000 A 
ATOM     20  C   LIG    1       17.038 -28.521  14.732  0.00  0.00    +0.000 A 
ATOM     21  C   LIG    1       18.436 -28.519  14.730  0.00  0.00    +0.003 A 
ENDBRANCH  15  16
ENDBRANCH  14  15
ENDBRANCH   2  14
ENDBRANCH   1   5
BRANCH   1  22
ATOM     22  C   LIG    1       24.435 -30.996   8.572  0.00  0.00    -0.038 A 
ATOM     23  C   LIG    1       24.845 -29.648   8.525  0.00  0.00    +0.028 A 
ATOM     24  C   LIG    1       25.221 -29.056   7.312  0.00  0.00    +0.048 A 
ATOM     25  C   LIG    1       25.141 -29.777   6.126  0.00  0.00    +0.024 A 
ATOM     26  C   LIG    1       24.734 -31.109   6.153  0.00  0.00    +0.002 A 
ATOM     27  C   LIG    1       24.387 -31.716   7.364  0.00  0.00    +0.004 A 
BRANCH  24  28
ATOM     28  N   LIG    1       25.688 -27.699   7.256  0.00  0.00    -0.215 N 
ATOM     29  H   LIG    1       25.270 -27.144   8.004  0.00  0.00    +0.174 HD
BRANCH  28  30
ATOM     30  S   LIG    1       25.388 -26.875   5.788  0.00  0.00    +0.090 S 
ATOM     31  O   LIG    1       24.136 -27.395   5.292  0.00  0.00    -0.148 OA
ATOM     32  O   LIG    1       26.582 -26.865   4.950  0.00  0.00    -0.148 OA
BRANCH  30  33
ATOM     33  C   LIG    1       25.078 -25.193   6.359  0.00  0.00    +0.197 A 
ATOM     34  N   LIG    1       26.188 -24.444   6.601  0.00  0.00    -0.235 NA
ATOM     35  C   LIG    1       25.982 -23.153   6.945  0.00  0.00    +0.125 A 
ATOM     36  C   LIG    1       24.725 -22.572   7.078  0.00  0.00    +0.073 A 
ATOM     37  C   LIG    1       23.606 -23.381   6.835  0.00  0.00    +0.017 A 
ATOM     38  C   LIG    1       23.779 -24.714   6.456  0.00  0.00    +0.050 A 
BRANCH  36  39
ATOM     39  C   LIG    1       24.615 -21.126   7.458  0.00  0.00    +0.419 C 
ATOM     40  F   LIG    1       25.227 -20.848   8.642  0.00  0.00    -0.166 F 
ATOM     41  F   LIG    1       23.323 -20.721   7.601  0.00  0.00    -0.166 F 
ATOM     42  F   LIG    1       25.171 -20.281   6.545  0.00  0.00    -0.166 F 
ENDBRANCH  36  39
ENDBRANCH  30  33
ENDBRANCH  28  30
ENDBRANCH  24  28
ENDBRANCH   1  22
BRANCH   1  43
ATOM     43  C   LIG    1       25.283 -32.350  10.593  0.00  0.00    +0.010 C 
ATOM     44  C   LIG    1       24.978 -33.626  11.366  0.00  0.00    +0.005 C 
ENDBRANCH   1  43
TORSDOF 13
ENDMDL
MODEL 7
REMARK VINA RESULT:      -8.1      5.954      9.310
REMARK  Name = *****
REMARK                            x       y       z     vdW  Elec       q    Type
REMARK                         _______ _______ _______ _____ _____    ______ ____
ROOT
ATOM      1  C   LIG    1       25.328 -31.049   8.333  0.00  0.00    +0.059 C 
ENDROOT
BRANCH   1   5
ATOM      2  C   LIG    1       25.659 -26.869   6.876  0.00  0.00    +0.121 C 
ATOM      3  O   LIG    1       26.345 -27.333   8.055  0.00  0.00    -0.457 OA
ATOM      4  C   LIG    1       26.274 -28.653   8.409  0.00  0.00    +0.287 C 
ATOM      5  C   LIG    1       25.454 -29.585   7.886  0.00  0.00    +0.082 C 
ATOM      6  C   LIG    1       24.510 -29.098   6.841  0.00  0.00    +0.170 C 
ATOM      7  O   LIG    1       23.825 -29.875   6.181  0.00  0.00    -0.292 OA
ATOM      8  C   LIG    1       24.328 -27.608   6.717  0.00  0.00    +0.127 C 
BRANCH   4   9
ATOM      9  O   LIG    1       27.160 -28.999   9.400  0.00  0.00    -0.480 OA
ATOM     10  H   LIG    1       26.723 -28.723  10.223  0.00  0.00    +0.295 HD
ENDBRANCH   4   9
BRANCH   2  11
ATOM     11  C   LIG    1       26.627 -27.051   5.670  0.00  0.00    +0.048 C 
BRANCH  11  13
ATOM     12  C   LIG    1       25.453 -26.026   3.678  0.00  0.00    +0.004 C 
ATOM     13  C   LIG    1       25.974 -27.313   4.308  0.00  0.00    +0.001 C 
ENDBRANCH  11  13
ENDBRANCH   2  11
BRANCH   2  14
ATOM     14  C   LIG    1       25.326 -25.370   7.150  0.00  0.00    +0.053 C 
BRANCH  14  15
ATOM     15  C   LIG    1       24.024 -24.856   6.519  0.00  0.00    +0.039 C 
BRANCH  15  16
ATOM     16  C   LIG    1       24.021 -23.353   6.337  0.00  0.00    -0.047 A 
ATOM     17  C   LIG    1       23.250 -22.546   7.185  0.00  0.00    +0.003 A 
ATOM     18  C   LIG    1       23.295 -21.156   7.078  0.00  0.00    +0.000 A 
ATOM     19  C   LIG    1       24.089 -20.556   6.103  0.00  0.00    +0.000 A 
ATOM     20  C   LIG    1       24.826 -21.349   5.225  0.00  0.00    +0.000 A 
ATOM     21  C   LIG    1       24.795 -22.742   5.341  0.00  0.00    +0.003 A 
ENDBRANCH  15  16
ENDBRANCH  14  15
ENDBRANCH   2  14
ENDBRANCH   1   5
BRANCH   1  22
ATOM     22  C   LIG    1       23.965 -31.333   8.977  0.00  0.00    -0.038 A 
ATOM     23  C   LIG    1       23.377 -30.439   9.895  0.00  0.00    +0.028 A 
ATOM     24  C   LIG    1       22.113 -30.703  10.441  0.00  0.00    +0.048 A 
ATOM     25  C   LIG    1       21.446 -31.881  10.125  0.00  0.00    +0.024 A 
ATOM     26  C   LIG    1       22.015 -32.778   9.223  0.00  0.00    +0.002 A 
ATOM     27  C   LIG    1       23.261 -32.506   8.651  0.00  0.00    +0.004 A 
BRANCH  24  28
ATOM     28  N   LIG    1       21.479 -29.779  11.339  0.00  0.00    -0.215 N 
ATOM     29  H   LIG    1       21.694 -28.817  11.075  0.00  0.00    +0.174 HD
BRANCH  28  30
ATOM     30  S   LIG    1       21.889 -29.954  12.990  0.00  0.00    +0.090 S 
ATOM     31  O   LIG    1       22.758 -31.105  13.061  0.00  0.00    -0.148 OA
ATOM     32  O   LIG    1       20.701 -29.857  13.829  0.00  0.00    -0.148 OA
BRANCH  30  33
ATOM     33  C   LIG    1       22.911 -28.496  13.279  0.00  0.00    +0.197 A 
ATOM     34  N   LIG    1       24.251 -28.727  13.346  0.00  0.00    -0.235 NA
ATOM     35  C   LIG    1       25.045 -27.640  13.473  0.00  0.00    +0.125 A 
ATOM     36  C   LIG    1       24.572 -26.334  13.553  0.00  0.00    +0.073 A 
ATOM     37  C   LIG    1       23.185 -26.140  13.495  0.00  0.00    +0.017 A 
ATOM     38  C   LIG    1       22.334 -27.237  13.342  0.00  0.00    +0.050 A 
BRANCH  36  39
ATOM     39  C   LIG    1       25.546 -25.201  13.685  0.00  0.00    +0.419 C 
ATOM     40  F   LIG    1       26.522 -25.238  12.738  0.00  0.00    -0.166 F 
ATOM     41  F   LIG    1       26.188 -25.204  14.885  0.00  0.00    -0.166 F 
ATOM     42  F   LIG    1       24.967 -23.973  13.575  0.00  0.00    -0.166 F 
ENDBRANCH  36  39
ENDBRANCH  30  33
ENDBRANCH  28  30
ENDBRANCH  24  28
ENDBRANCH   1  22
BRANCH   1  43
ATOM     43  C   LIG    1       25.680 -32.064   7.200  0.00  0.00    +0.010 C 
ATOM     44  C   LIG    1       27.157 -32.412   7.068  0.00  0.00    +0.005 C 
ENDBRANCH   1  43
TORSDOF 13
ENDMDL
MODEL 8
REMARK VINA RESULT:      -8.0      6.317     11.499
REMARK  Name = *****
REMARK                            x       y       z     vdW  Elec       q    Type
REMARK                         _______ _______ _______ _____ _____    ______ ____
ROOT
ATOM      1  C   LIG    1       26.053 -29.852  11.656  0.00  0.00    +0.059 C 
ENDROOT
BRANCH   1   5
ATOM      2  C   LIG    1       22.199 -29.052  13.708  0.00  0.00    +0.121 C 
ATOM      3  O   LIG    1       23.218 -28.045  13.558  0.00  0.00    -0.457 OA
ATOM      4  C   LIG    1       24.350 -28.323  12.842  0.00  0.00    +0.287 C 
ATOM      5  C   LIG    1       24.747 -29.531  12.399  0.00  0.00    +0.082 C 
ATOM      6  C   LIG    1       23.864 -30.674  12.769  0.00  0.00    +0.170 C 
ATOM      7  O   LIG    1       24.033 -31.796  12.295  0.00  0.00    -0.292 OA
ATOM      8  C   LIG    1       22.843 -30.435  13.848  0.00  0.00    +0.127 C 
BRANCH   4   9
ATOM      9  O   LIG    1       25.113 -27.213  12.577  0.00  0.00    -0.480 OA
ATOM     10  H   LIG    1       25.899 -27.319  13.138  0.00  0.00    +0.295 HD
ENDBRANCH   4   9
BRANCH   2  11
ATOM     11  C   LIG    1       21.235 -28.928  12.492  0.00  0.00    +0.048 C 
BRANCH  11  13
ATOM     12  C   LIG    1       20.648 -30.702  10.788  0.00  0.00    +0.004 C 
ATOM     13  C   LIG    1       20.368 -30.155  12.183  0.00  0.00    +0.001 C 
ENDBRANCH  11  13
ENDBRANCH   2  11
BRANCH   2  14
ATOM     14  C   LIG    1       21.492 -28.733  15.062  0.00  0.00    +0.053 C 
BRANCH  14  15
ATOM     15  C   LIG    1       20.827 -27.351  15.151  0.00  0.00    +0.039 C 
BRANCH  15  16
ATOM     16  C   LIG    1       19.334 -27.409  14.911  0.00  0.00    -0.047 A 
ATOM     17  C   LIG    1       18.656 -26.279  14.432  0.00  0.00    +0.003 A 
ATOM     18  C   LIG    1       17.294 -26.340  14.135  0.00  0.00    +0.000 A 
ATOM     19  C   LIG    1       16.587 -27.523  14.342  0.00  0.00    +0.000 A 
ATOM     20  C   LIG    1       17.239 -28.640  14.859  0.00  0.00    +0.000 A 
ATOM     21  C   LIG    1       18.608 -28.587  15.141  0.00  0.00    +0.003 A 
ENDBRANCH  15  16
ENDBRANCH  14  15
ENDBRANCH   2  14
ENDBRANCH   1   5
BRANCH   1  22
ATOM     22  C   LIG    1       25.883 -29.751  10.135  0.00  0.00    -0.038 A 
ATOM     23  C   LIG    1       26.131 -28.552   9.437  0.00  0.00    +0.028 A 
ATOM     24  C   LIG    1       26.005 -28.497   8.042  0.00  0.00    +0.048 A 
ATOM     25  C   LIG    1       25.578 -29.614   7.333  0.00  0.00    +0.024 A 
ATOM     26  C   LIG    1       25.324 -30.806   8.007  0.00  0.00    +0.002 A 
ATOM     27  C   LIG    1       25.478 -30.877   9.396  0.00  0.00    +0.004 A 
BRANCH  24  28
ATOM     28  N   LIG    1       26.301 -27.297   7.312  0.00  0.00    -0.215 N 
ATOM     29  H   LIG    1       26.417 -26.508   7.949  0.00  0.00    +0.174 HD
BRANCH  28  30
ATOM     30  S   LIG    1       25.140 -26.836   6.144  0.00  0.00    +0.090 S 
ATOM     31  O   LIG    1       23.927 -27.537   6.496  0.00  0.00    -0.148 OA
ATOM     32  O   LIG    1       25.697 -26.928   4.800  0.00  0.00    -0.148 OA
BRANCH  30  33
ATOM     33  C   LIG    1       24.883 -25.095   6.538  0.00  0.00    +0.197 A 
ATOM     34  N   LIG    1       26.015 -24.368   6.735  0.00  0.00    -0.235 NA
ATOM     35  C   LIG    1       25.853 -23.042   6.944  0.00  0.00    +0.125 A 
ATOM     36  C   LIG    1       24.617 -22.405   6.984  0.00  0.00    +0.073 A 
ATOM     37  C   LIG    1       23.473 -23.191   6.791  0.00  0.00    +0.017 A 
ATOM     38  C   LIG    1       23.602 -24.561   6.551  0.00  0.00    +0.050 A 
BRANCH  36  39
ATOM     39  C   LIG    1       24.555 -20.925   7.216  0.00  0.00    +0.419 C 
ATOM     40  F   LIG    1       25.128 -20.212   6.207  0.00  0.00    -0.166 F 
ATOM     41  F   LIG    1       25.202 -20.548   8.354  0.00  0.00    -0.166 F 
ATOM     42  F   LIG    1       23.285 -20.447   7.334  0.00  0.00    -0.166 F 
ENDBRANCH  36  39
ENDBRANCH  30  33
ENDBRANCH  28  30
ENDBRANCH  24  28
ENDBRANCH   1  22
BRANCH   1  43
ATOM     43  C   LIG    1       27.270 -29.025  12.181  0.00  0.00    +0.010 C 
ATOM     44  C   LIG    1       28.638 -29.509  11.719  0.00  0.00    +0.005 C 
ENDBRANCH   1  43
TORSDOF 13
ENDMDL
MODEL 9
REMARK VINA RESULT:      -8.0      5.970     10.023
REMARK  Name = *****
REMARK                            x       y       z     vdW  Elec       q    Type
REMARK                         _______ _______ _______ _____ _____    ______ ____
ROOT
ATOM      1  C   LIG    1       25.318 -30.856  10.098  0.00  0.00    +0.059 C 
ENDROOT
BRANCH   1   5
ATOM      2  C   LIG    1       25.140 -28.245   6.513  0.00  0.00    +0.121 C 
ATOM      3  O   LIG    1       26.017 -27.973   7.623  0.00  0.00    -0.457 OA
ATOM      4  C   LIG    1       26.092 -28.859   8.664  0.00  0.00    +0.287 C 
ATOM      5  C   LIG    1       25.275 -29.906   8.892  0.00  0.00    +0.082 C 
ATOM      6  C   LIG    1       24.161 -30.076   7.917  0.00  0.00    +0.170 C 
ATOM      7  O   LIG    1       23.446 -31.076   7.926  0.00  0.00    -0.292 OA
ATOM      8  C   LIG    1       23.856 -28.916   7.008  0.00  0.00    +0.127 C 
BRANCH   4   9
ATOM      9  O   LIG    1       27.131 -28.602   9.524  0.00  0.00    -0.480 OA
ATOM     10  H   LIG    1       27.170 -27.632   9.574  0.00  0.00    +0.295 HD
ENDBRANCH   4   9
BRANCH   2  11
ATOM     11  C   LIG    1       25.938 -29.098   5.484  0.00  0.00    +0.048 C 
BRANCH  11  13
ATOM     12  C   LIG    1       26.166 -31.608   5.272  0.00  0.00    +0.004 C 
ATOM     13  C   LIG    1       25.273 -30.398   5.017  0.00  0.00    +0.001 C 
ENDBRANCH  11  13
ENDBRANCH   2  11
BRANCH   2  14
ATOM     14  C   LIG    1       24.742 -26.847   5.944  0.00  0.00    +0.053 C 
BRANCH  14  15
ATOM     15  C   LIG    1       25.712 -25.701   6.268  0.00  0.00    +0.039 C 
BRANCH  15  16
ATOM     16  C   LIG    1       24.995 -24.440   6.700  0.00  0.00    -0.047 A 
ATOM     17  C   LIG    1       25.719 -23.382   7.268  0.00  0.00    +0.003 A 
ATOM     18  C   LIG    1       25.085 -22.185   7.602  0.00  0.00    +0.000 A 
ATOM     19  C   LIG    1       23.714 -22.041   7.398  0.00  0.00    +0.000 A 
ATOM     20  C   LIG    1       22.976 -23.101   6.874  0.00  0.00    +0.000 A 
ATOM     21  C   LIG    1       23.611 -24.295   6.523  0.00  0.00    +0.003 A 
ENDBRANCH  15  16
ENDBRANCH  14  15
ENDBRANCH   2  14
ENDBRANCH   1   5
BRANCH   1  22
ATOM     22  C   LIG    1       23.990 -30.865  10.865  0.00  0.00    -0.038 A 
ATOM     23  C   LIG    1       23.462 -29.696  11.449  0.00  0.00    +0.028 A 
ATOM     24  C   LIG    1       22.227 -29.722  12.112  0.00  0.00    +0.048 A 
ATOM     25  C   LIG    1       21.532 -30.918  12.250  0.00  0.00    +0.024 A 
ATOM     26  C   LIG    1       22.041 -32.084  11.683  0.00  0.00    +0.002 A 
ATOM     27  C   LIG    1       23.258 -32.059  10.993  0.00  0.00    +0.004 A 
BRANCH  24  28
ATOM     28  N   LIG    1       21.653 -28.530  12.669  0.00  0.00    -0.215 N 
ATOM     29  H   LIG    1       22.006 -27.702  12.188  0.00  0.00    +0.174 HD
BRANCH  28  30
ATOM     30  S   LIG    1       21.920 -28.293  14.342  0.00  0.00    +0.090 S 
ATOM     31  O   LIG    1       22.261 -29.591  14.875  0.00  0.00    -0.148 OA
ATOM     32  O   LIG    1       20.846 -27.500  14.927  0.00  0.00    -0.148 OA
BRANCH  30  33
ATOM     33  C   LIG    1       23.428 -27.303  14.345  0.00  0.00    +0.197 A 
ATOM     34  N   LIG    1       24.515 -27.897  14.906  0.00  0.00    -0.235 NA
ATOM     35  C   LIG    1       25.678 -27.212  14.842  0.00  0.00    +0.125 A 
ATOM     36  C   LIG    1       25.811 -25.955  14.260  0.00  0.00    +0.073 A 
ATOM     37  C   LIG    1       24.665 -25.370  13.705  0.00  0.00    +0.017 A 
ATOM     38  C   LIG    1       23.449 -26.058  13.734  0.00  0.00    +0.050 A 
BRANCH  36  39
ATOM     39  C   LIG    1       27.155 -25.289  14.237  0.00  0.00    +0.419 C 
ATOM     40  F   LIG    1       27.143 -24.069  14.842  0.00  0.00    -0.166 F 
ATOM     41  F   LIG    1       27.610 -25.075  12.973  0.00  0.00    -0.166 F 
ATOM     42  F   LIG    1       28.127 -26.006  14.867  0.00  0.00    -0.166 F 
ENDBRANCH  36  39
ENDBRANCH  30  33
ENDBRANCH  28  30
ENDBRANCH  24  28
ENDBRANCH   1  22
BRANCH   1  43
ATOM     43  C   LIG    1       25.805 -32.292   9.724  0.00  0.00    +0.010 C 
ATOM     44  C   LIG    1       27.015 -32.353   8.800  0.00  0.00    +0.005 C 
ENDBRANCH   1  43
TORSDOF 13
ENDMDL
