MODEL 1
REMARK VINA RESULT:      -5.9      0.000      0.000
REMARK  Name = *****
REMARK                            x       y       z     vdW  Elec       q    Type
REMARK                         _______ _______ _______ _____ _____    ______ ____
ROOT
ATOM      1  C   LIG    1       27.892 -17.704   4.442  0.00  0.00    +0.117 C 
ENDROOT
BRANCH   1   2
ATOM      2  N   LIG    1       28.103 -19.130   4.772  0.00  0.00    -0.310 NA
ATOM      3  H   LIG    1       27.434 -19.716   4.273  0.00  0.00    +0.122 HD
BRANCH   2   5
ATOM      4  C   LIG    1       29.349 -19.340   6.875  0.00  0.00    +0.024 C 
ATOM      5  C   LIG    1       27.953 -19.345   6.245  0.00  0.00    +0.055 C 
BRANCH   5   6
ATOM      6  C   LIG    1       27.168 -20.642   6.608  0.00  0.00    +0.053 C 
BRANCH   6   7
ATOM      7  C   LIG    1       25.729 -20.721   6.136  0.00  0.00    -0.046 A 
ATOM      8  C   LIG    1       25.421 -20.792   4.766  0.00  0.00    +0.007 A 
ATOM      9  C   LIG    1       24.093 -20.905   4.345  0.00  0.00    +0.045 A 
ATOM     10  C   LIG    1       23.068 -20.947   5.277  0.00  0.00    +0.117 A 
ATOM     11  C   LIG    1       23.349 -20.895   6.640  0.00  0.00    +0.045 A 
ATOM     12  C   LIG    1       24.679 -20.792   7.062  0.00  0.00    +0.007 A 
BRANCH  10  13
ATOM     13  O   LIG    1       21.785 -21.045   4.822  0.00  0.00    -0.507 OA
ATOM     14  H   LIG    1       21.303 -21.670   5.385  0.00  0.00    +0.292 HD
ENDBRANCH  10  13
ENDBRANCH   6   7
ENDBRANCH   5   6
ENDBRANCH   2   5
ENDBRANCH   1   2
BRANCH   1  15
ATOM     15  C   LIG    1       26.469 -17.284   3.977  0.00  0.00    +0.158 C 
BRANCH  15  16
ATOM     16  C   LIG    1       26.443 -15.790   3.684  0.00  0.00    -0.011 A 
ATOM     17  C   LIG    1       25.246 -15.142   3.319  0.00  0.00    +0.051 A 
ATOM     18  C   LIG    1       25.242 -13.791   2.981  0.00  0.00    +0.121 A 
ATOM     19  C   LIG    1       26.416 -13.049   2.985  0.00  0.00    +0.090 A 
ATOM     20  C   LIG    1       27.596 -13.677   3.354  0.00  0.00    +0.121 A 
ATOM     21  C   LIG    1       27.625 -15.031   3.705  0.00  0.00    +0.051 A 
BRANCH  18  22
ATOM     22  O   LIG    1       24.051 -13.222   2.635  0.00  0.00    -0.507 OA
ATOM     23  H   LIG    1       23.427 -13.352   3.365  0.00  0.00    +0.292 HD
ENDBRANCH  18  22
BRANCH  20  24
ATOM     24  O   LIG    1       28.739 -12.929   3.344  0.00  0.00    -0.507 OA
ATOM     25  H   LIG    1       29.238 -13.128   2.534  0.00  0.00    +0.292 HD
ENDBRANCH  20  24
ENDBRANCH  15  16
BRANCH  15  26
ATOM     26  O   LIG    1       26.080 -17.998   2.806  0.00  0.00    -0.386 OA
ATOM     27  H   LIG    1       25.121 -18.149   2.897  0.00  0.00    +0.210 HD
ENDBRANCH  15  26
ENDBRANCH   1  15
TORSDOF 10
ENDMDL
MODEL 2
REMARK VINA RESULT:      -5.1      2.600      4.143
REMARK  Name = *****
REMARK                            x       y       z     vdW  Elec       q    Type
REMARK                         _______ _______ _______ _____ _____    ______ ____
ROOT
ATOM      1  C   LIG    1       23.149 -16.571   4.193  0.00  0.00    +0.117 C 
ENDROOT
BRANCH   1   2
ATOM      2  N   LIG    1       22.187 -17.479   4.854  0.00  0.00    -0.310 NA
ATOM      3  H   LIG    1       22.528 -17.751   5.777  0.00  0.00    +0.122 HD
BRANCH   2   5
ATOM      4  C   LIG    1       20.589 -18.614   3.380  0.00  0.00    +0.024 C 
ATOM      5  C   LIG    1       21.978 -18.702   4.019  0.00  0.00    +0.055 C 
BRANCH   5   6
ATOM      6  C   LIG    1       22.158 -20.034   4.810  0.00  0.00    +0.053 C 
BRANCH   6   7
ATOM      7  C   LIG    1       23.547 -20.326   5.344  0.00  0.00    -0.046 A 
ATOM      8  C   LIG    1       23.725 -20.939   6.597  0.00  0.00    +0.007 A 
ATOM      9  C   LIG    1       25.009 -21.239   7.061  0.00  0.00    +0.045 A 
ATOM     10  C   LIG    1       26.118 -20.933   6.288  0.00  0.00    +0.117 A 
ATOM     11  C   LIG    1       25.967 -20.341   5.037  0.00  0.00    +0.045 A 
ATOM     12  C   LIG    1       24.681 -20.050   4.568  0.00  0.00    +0.007 A 
BRANCH  10  13
ATOM     13  O   LIG    1       27.354 -21.232   6.785  0.00  0.00    -0.507 OA
ATOM     14  H   LIG    1       27.925 -20.455   6.686  0.00  0.00    +0.292 HD
ENDBRANCH  10  13
ENDBRANCH   6   7
ENDBRANCH   5   6
ENDBRANCH   2   5
ENDBRANCH   1   2
BRANCH   1  15
ATOM     15  C   LIG    1       23.474 -15.232   4.913  0.00  0.00    +0.158 C 
BRANCH  15  16
ATOM     16  C   LIG    1       24.327 -14.353   4.007  0.00  0.00    -0.011 A 
ATOM     17  C   LIG    1       23.768 -13.254   3.326  0.00  0.00    +0.051 A 
ATOM     18  C   LIG    1       24.535 -12.498   2.443  0.00  0.00    +0.121 A 
ATOM     19  C   LIG    1       25.865 -12.812   2.202  0.00  0.00    +0.090 A 
ATOM     20  C   LIG    1       26.426 -13.886   2.878  0.00  0.00    +0.121 A 
ATOM     21  C   LIG    1       25.678 -14.656   3.776  0.00  0.00    +0.051 A 
BRANCH  18  22
ATOM     22  O   LIG    1       23.934 -11.447   1.812  0.00  0.00    -0.507 OA
ATOM     23  H   LIG    1       24.606 -10.978   1.293  0.00  0.00    +0.292 HD
ENDBRANCH  18  22
BRANCH  20  24
ATOM     24  O   LIG    1       27.735 -14.180   2.621  0.00  0.00    -0.507 OA
ATOM     25  H   LIG    1       27.924 -15.078   2.940  0.00  0.00    +0.292 HD
ENDBRANCH  20  24
ENDBRANCH  15  16
BRANCH  15  26
ATOM     26  O   LIG    1       22.282 -14.531   5.258  0.00  0.00    -0.386 OA
ATOM     27  H   LIG    1       22.151 -14.688   6.212  0.00  0.00    +0.210 HD
ENDBRANCH  15  26
ENDBRANCH   1  15
TORSDOF 10
ENDMDL
MODEL 3
REMARK VINA RESULT:      -4.9      2.615      4.090
REMARK  Name = *****
REMARK                            x       y       z     vdW  Elec       q    Type
REMARK                         _______ _______ _______ _____ _____    ______ ____
ROOT
ATOM      1  C   LIG    1       23.461 -16.353   4.354  0.00  0.00    +0.117 C 
ENDROOT
BRANCH   1   2
ATOM      2  N   LIG    1       22.172 -17.000   4.683  0.00  0.00    -0.310 NA
ATOM      3  H   LIG    1       22.049 -17.058   5.695  0.00  0.00    +0.122 HD
BRANCH   2   5
ATOM      4  C   LIG    1       20.818 -18.509   3.303  0.00  0.00    +0.024 C 
ATOM      5  C   LIG    1       22.122 -18.374   4.095  0.00  0.00    +0.055 C 
BRANCH   5   6
ATOM      6  C   LIG    1       22.266 -19.510   5.153  0.00  0.00    +0.053 C 
BRANCH   6   7
ATOM      7  C   LIG    1       23.677 -19.960   5.481  0.00  0.00    -0.046 A 
ATOM      8  C   LIG    1       24.727 -19.764   4.568  0.00  0.00    +0.007 A 
ATOM      9  C   LIG    1       26.031 -20.148   4.897  0.00  0.00    +0.045 A 
ATOM     10  C   LIG    1       26.297 -20.723   6.130  0.00  0.00    +0.117 A 
ATOM     11  C   LIG    1       25.276 -20.911   7.058  0.00  0.00    +0.045 A 
ATOM     12  C   LIG    1       23.973 -20.519   6.732  0.00  0.00    +0.007 A 
BRANCH  10  13
ATOM     13  O   LIG    1       27.582 -21.093   6.406  0.00  0.00    -0.507 OA
ATOM     14  H   LIG    1       28.009 -21.370   5.582  0.00  0.00    +0.292 HD
ENDBRANCH  10  13
ENDBRANCH   6   7
ENDBRANCH   5   6
ENDBRANCH   2   5
ENDBRANCH   1   2
BRANCH   1  15
ATOM     15  C   LIG    1       23.519 -14.801   4.433  0.00  0.00    +0.158 C 
BRANCH  15  16
ATOM     16  C   LIG    1       24.962 -14.333   4.299  0.00  0.00    -0.011 A 
ATOM     17  C   LIG    1       25.676 -14.515   3.098  0.00  0.00    +0.051 A 
ATOM     18  C   LIG    1       27.017 -14.150   3.004  0.00  0.00    +0.121 A 
ATOM     19  C   LIG    1       27.688 -13.608   4.092  0.00  0.00    +0.090 A 
ATOM     20  C   LIG    1       26.989 -13.414   5.274  0.00  0.00    +0.121 A 
ATOM     21  C   LIG    1       25.639 -13.765   5.390  0.00  0.00    +0.051 A 
BRANCH  18  22
ATOM     22  O   LIG    1       27.655 -14.355   1.814  0.00  0.00    -0.507 OA
ATOM     23  H   LIG    1       28.563 -14.025   1.894  0.00  0.00    +0.292 HD
ENDBRANCH  18  22
BRANCH  20  24
ATOM     24  O   LIG    1       27.671 -12.884   6.332  0.00  0.00    -0.507 OA
ATOM     25  H   LIG    1       27.337 -13.283   7.153  0.00  0.00    +0.292 HD
ENDBRANCH  20  24
ENDBRANCH  15  16
BRANCH  15  26
ATOM     26  O   LIG    1       22.735 -14.204   3.403  0.00  0.00    -0.386 OA
ATOM     27  H   LIG    1       23.277 -13.475   3.049  0.00  0.00    +0.210 HD
ENDBRANCH  15  26
ENDBRANCH   1  15
TORSDOF 10
ENDMDL
MODEL 4
REMARK VINA RESULT:      -4.8      2.167      3.565
REMARK  Name = *****
REMARK                            x       y       z     vdW  Elec       q    Type
REMARK                         _______ _______ _______ _____ _____    ______ ____
ROOT
ATOM      1  C   LIG    1       24.632 -17.350   3.554  0.00  0.00    +0.117 C 
ENDROOT
BRANCH   1   2
ATOM      2  N   LIG    1       24.876 -18.808   3.495  0.00  0.00    -0.310 NA
ATOM      3  H   LIG    1       25.082 -19.097   2.538  0.00  0.00    +0.122 HD
BRANCH   2   5
ATOM      4  C   LIG    1       22.676 -18.530   4.543  0.00  0.00    +0.024 C 
ATOM      5  C   LIG    1       23.676 -19.550   3.993  0.00  0.00    +0.055 C 
BRANCH   5   6
ATOM      6  C   LIG    1       24.016 -20.643   5.052  0.00  0.00    +0.053 C 
BRANCH   6   7
ATOM      7  C   LIG    1       25.440 -20.663   5.576  0.00  0.00    -0.046 A 
ATOM      8  C   LIG    1       25.814 -21.534   6.614  0.00  0.00    +0.007 A 
ATOM      9  C   LIG    1       27.139 -21.572   7.062  0.00  0.00    +0.045 A 
ATOM     10  C   LIG    1       28.093 -20.750   6.483  0.00  0.00    +0.117 A 
ATOM     11  C   LIG    1       27.750 -19.892   5.441  0.00  0.00    +0.045 A 
ATOM     12  C   LIG    1       26.426 -19.861   4.987  0.00  0.00    +0.007 A 
BRANCH  10  13
ATOM     13  O   LIG    1       29.371 -20.810   6.958  0.00  0.00    -0.507 OA
ATOM     14  H   LIG    1       29.950 -21.135   6.252  0.00  0.00    +0.292 HD
ENDBRANCH  10  13
ENDBRANCH   6   7
ENDBRANCH   5   6
ENDBRANCH   2   5
ENDBRANCH   1   2
BRANCH   1  15
ATOM     15  C   LIG    1       25.746 -16.419   2.998  0.00  0.00    +0.158 C 
BRANCH  15  16
ATOM     16  C   LIG    1       25.715 -15.085   3.731  0.00  0.00    -0.011 A 
ATOM     17  C   LIG    1       24.591 -14.240   3.656  0.00  0.00    +0.051 A 
ATOM     18  C   LIG    1       24.597 -12.988   4.268  0.00  0.00    +0.121 A 
ATOM     19  C   LIG    1       25.713 -12.537   4.960  0.00  0.00    +0.090 A 
ATOM     20  C   LIG    1       26.820 -13.368   5.049  0.00  0.00    +0.121 A 
ATOM     21  C   LIG    1       26.835 -14.632   4.449  0.00  0.00    +0.051 A 
BRANCH  18  22
ATOM     22  O   LIG    1       23.477 -12.216   4.157  0.00  0.00    -0.507 OA
ATOM     23  H   LIG    1       22.960 -12.309   4.971  0.00  0.00    +0.292 HD
ENDBRANCH  18  22
BRANCH  20  24
ATOM     24  O   LIG    1       27.907 -12.900   5.730  0.00  0.00    -0.507 OA
ATOM     25  H   LIG    1       27.607 -12.491   6.559  0.00  0.00    +0.292 HD
ENDBRANCH  20  24
ENDBRANCH  15  16
BRANCH  15  26
ATOM     26  O   LIG    1       27.034 -17.009   3.153  0.00  0.00    -0.386 OA
ATOM     27  H   LIG    1       27.342 -16.739   4.038  0.00  0.00    +0.210 HD
ENDBRANCH  15  26
ENDBRANCH   1  15
TORSDOF 10
ENDMDL
MODEL 5
REMARK VINA RESULT:      -4.6      2.143      3.748
REMARK  Name = *****
REMARK                            x       y       z     vdW  Elec       q    Type
REMARK                         _______ _______ _______ _____ _____    ______ ____
ROOT
ATOM      1  C   LIG    1       24.449 -17.388   3.664  0.00  0.00    +0.117 C 
ENDROOT
BRANCH   1   2
ATOM      2  N   LIG    1       24.136 -18.759   3.208  0.00  0.00    -0.310 NA
ATOM      3  H   LIG    1       23.953 -18.769   2.204  0.00  0.00    +0.122 HD
BRANCH   2   5
ATOM      4  C   LIG    1       22.393 -18.164   4.828  0.00  0.00    +0.024 C 
ATOM      5  C   LIG    1       22.940 -19.284   3.938  0.00  0.00    +0.055 C 
BRANCH   5   6
ATOM      6  C   LIG    1       23.231 -20.576   4.760  0.00  0.00    +0.053 C 
BRANCH   6   7
ATOM      7  C   LIG    1       24.627 -20.717   5.335  0.00  0.00    -0.046 A 
ATOM      8  C   LIG    1       25.720 -20.056   4.747  0.00  0.00    +0.007 A 
ATOM      9  C   LIG    1       26.996 -20.162   5.309  0.00  0.00    +0.045 A 
ATOM     10  C   LIG    1       27.192 -20.921   6.452  0.00  0.00    +0.117 A 
ATOM     11  C   LIG    1       26.123 -21.572   7.062  0.00  0.00    +0.045 A 
ATOM     12  C   LIG    1       24.844 -21.458   6.505  0.00  0.00    +0.007 A 
BRANCH  10  13
ATOM     13  O   LIG    1       28.456 -21.008   6.961  0.00  0.00    -0.507 OA
ATOM     14  H   LIG    1       28.547 -21.854   7.423  0.00  0.00    +0.292 HD
ENDBRANCH  10  13
ENDBRANCH   6   7
ENDBRANCH   5   6
ENDBRANCH   2   5
ENDBRANCH   1   2
BRANCH   1  15
ATOM     15  C   LIG    1       25.719 -16.713   3.074  0.00  0.00    +0.158 C 
BRANCH  15  16
ATOM     16  C   LIG    1       25.828 -15.283   3.586  0.00  0.00    -0.011 A 
ATOM     17  C   LIG    1       27.074 -14.736   3.953  0.00  0.00    +0.051 A 
ATOM     18  C   LIG    1       27.158 -13.453   4.490  0.00  0.00    +0.121 A 
ATOM     19  C   LIG    1       26.019 -12.684   4.686  0.00  0.00    +0.090 A 
ATOM     20  C   LIG    1       24.791 -13.211   4.316  0.00  0.00    +0.121 A 
ATOM     21  C   LIG    1       24.681 -14.494   3.768  0.00  0.00    +0.051 A 
BRANCH  18  22
ATOM     22  O   LIG    1       28.394 -12.981   4.828  0.00  0.00    -0.507 OA
ATOM     23  H   LIG    1       28.610 -12.244   4.237  0.00  0.00    +0.292 HD
ENDBRANCH  18  22
BRANCH  20  24
ATOM     24  O   LIG    1       23.684 -12.438   4.523  0.00  0.00    -0.507 OA
ATOM     25  H   LIG    1       22.914 -13.019   4.647  0.00  0.00    +0.292 HD
ENDBRANCH  20  24
ENDBRANCH  15  16
BRANCH  15  26
ATOM     26  O   LIG    1       26.897 -17.431   3.434  0.00  0.00    -0.386 OA
ATOM     27  H   LIG    1       27.403 -17.538   2.607  0.00  0.00    +0.210 HD
ENDBRANCH  15  26
ENDBRANCH   1  15
TORSDOF 10
ENDMDL
MODEL 6
REMARK VINA RESULT:      -4.6      2.433      4.251
REMARK  Name = *****
REMARK                            x       y       z     vdW  Elec       q    Type
REMARK                         _______ _______ _______ _____ _____    ______ ____
ROOT
ATOM      1  C   LIG    1       23.205 -17.048   4.060  0.00  0.00    +0.117 C 
ENDROOT
BRANCH   1   2
ATOM      2  N   LIG    1       22.356 -18.054   4.733  0.00  0.00    -0.310 NA
ATOM      3  H   LIG    1       22.601 -18.125   5.722  0.00  0.00    +0.122 HD
BRANCH   2   5
ATOM      4  C   LIG    1       22.186 -20.472   5.110  0.00  0.00    +0.024 C 
ATOM      5  C   LIG    1       22.526 -19.390   4.081  0.00  0.00    +0.055 C 
BRANCH   5   6
ATOM      6  C   LIG    1       23.943 -19.609   3.470  0.00  0.00    +0.053 C 
BRANCH   6   7
ATOM      7  C   LIG    1       25.061 -19.934   4.443  0.00  0.00    -0.046 A 
ATOM      8  C   LIG    1       24.886 -20.905   5.445  0.00  0.00    +0.007 A 
ATOM      9  C   LIG    1       25.936 -21.223   6.312  0.00  0.00    +0.045 A 
ATOM     10  C   LIG    1       27.159 -20.584   6.188  0.00  0.00    +0.117 A 
ATOM     11  C   LIG    1       27.362 -19.631   5.193  0.00  0.00    +0.045 A 
ATOM     12  C   LIG    1       26.314 -19.319   4.320  0.00  0.00    +0.007 A 
BRANCH  10  13
ATOM     13  O   LIG    1       28.154 -20.917   7.062  0.00  0.00    -0.507 OA
ATOM     14  H   LIG    1       28.528 -21.770   6.796  0.00  0.00    +0.292 HD
ENDBRANCH  10  13
ENDBRANCH   6   7
ENDBRANCH   5   6
ENDBRANCH   2   5
ENDBRANCH   1   2
BRANCH   1  15
ATOM     15  C   LIG    1       23.533 -15.750   4.850  0.00  0.00    +0.158 C 
BRANCH  15  16
ATOM     16  C   LIG    1       24.242 -14.757   3.938  0.00  0.00    -0.011 A 
ATOM     17  C   LIG    1       25.599 -14.925   3.596  0.00  0.00    +0.051 A 
ATOM     18  C   LIG    1       26.261 -13.976   2.821  0.00  0.00    +0.121 A 
ATOM     19  C   LIG    1       25.607 -12.836   2.374  0.00  0.00    +0.090 A 
ATOM     20  C   LIG    1       24.268 -12.669   2.696  0.00  0.00    +0.121 A 
ATOM     21  C   LIG    1       23.579 -13.612   3.466  0.00  0.00    +0.051 A 
BRANCH  18  22
ATOM     22  O   LIG    1       27.576 -14.195   2.527  0.00  0.00    -0.507 OA
ATOM     23  H   LIG    1       27.889 -14.938   3.064  0.00  0.00    +0.292 HD
ENDBRANCH  18  22
BRANCH  20  24
ATOM     24  O   LIG    1       23.648 -11.537   2.249  0.00  0.00    -0.507 OA
ATOM     25  H   LIG    1       23.965 -11.338   1.352  0.00  0.00    +0.292 HD
ENDBRANCH  20  24
ENDBRANCH  15  16
BRANCH  15  26
ATOM     26  O   LIG    1       22.348 -15.148   5.365  0.00  0.00    -0.386 OA
ATOM     27  H   LIG    1       21.965 -15.803   5.977  0.00  0.00    +0.210 HD
ENDBRANCH  15  26
ENDBRANCH   1  15
TORSDOF 10
ENDMDL
MODEL 7
REMARK VINA RESULT:      -4.6      2.670      7.445
REMARK  Name = *****
REMARK                            x       y       z     vdW  Elec       q    Type
REMARK                         _______ _______ _______ _____ _____    ______ ____
ROOT
ATOM      1  C   LIG    1       21.854 -16.985   4.095  0.00  0.00    +0.117 C 
ENDROOT
BRANCH   1   2
ATOM      2  N   LIG    1       23.172 -16.338   3.918  0.00  0.00    -0.310 NA
ATOM      3  H   LIG    1       23.918 -17.034   3.935  0.00  0.00    +0.122 HD
BRANCH   2   5
ATOM      4  C   LIG    1       22.112 -15.204   5.817  0.00  0.00    +0.024 C 
ATOM      5  C   LIG    1       23.402 -15.333   5.002  0.00  0.00    +0.055 C 
BRANCH   5   6
ATOM      6  C   LIG    1       23.884 -13.948   4.475  0.00  0.00    +0.053 C 
BRANCH   6   7
ATOM      7  C   LIG    1       25.367 -13.807   4.188  0.00  0.00    -0.046 A 
ATOM      8  C   LIG    1       25.891 -14.131   2.924  0.00  0.00    +0.007 A 
ATOM      9  C   LIG    1       27.254 -13.960   2.659  0.00  0.00    +0.045 A 
ATOM     10  C   LIG    1       28.098 -13.469   3.642  0.00  0.00    +0.117 A 
ATOM     11  C   LIG    1       27.599 -13.125   4.896  0.00  0.00    +0.045 A 
ATOM     12  C   LIG    1       26.234 -13.287   5.158  0.00  0.00    +0.007 A 
BRANCH  10  13
ATOM     13  O   LIG    1       29.423 -13.329   3.345  0.00  0.00    -0.507 OA
ATOM     14  H   LIG    1       29.733 -14.142   2.920  0.00  0.00    +0.292 HD
ENDBRANCH  10  13
ENDBRANCH   6   7
ENDBRANCH   5   6
ENDBRANCH   2   5
ENDBRANCH   1   2
BRANCH   1  15
ATOM     15  C   LIG    1       21.711 -18.454   3.609  0.00  0.00    +0.158 C 
BRANCH  15  16
ATOM     16  C   LIG    1       22.813 -19.309   4.221  0.00  0.00    -0.011 A 
ATOM     17  C   LIG    1       22.569 -20.102   5.360  0.00  0.00    +0.051 A 
ATOM     18  C   LIG    1       23.599 -20.825   5.958  0.00  0.00    +0.121 A 
ATOM     19  C   LIG    1       24.892 -20.776   5.456  0.00  0.00    +0.090 A 
ATOM     20  C   LIG    1       25.137 -20.008   4.328  0.00  0.00    +0.121 A 
ATOM     21  C   LIG    1       24.119 -19.279   3.705  0.00  0.00    +0.051 A 
BRANCH  18  22
ATOM     22  O   LIG    1       23.299 -21.572   7.061  0.00  0.00    -0.507 OA
ATOM     23  H   LIG    1       22.409 -21.938   6.948  0.00  0.00    +0.292 HD
ENDBRANCH  18  22
BRANCH  20  24
ATOM     24  O   LIG    1       26.419 -19.971   3.855  0.00  0.00    -0.507 OA
ATOM     25  H   LIG    1       26.996 -20.446   4.477  0.00  0.00    +0.292 HD
ENDBRANCH  20  24
ENDBRANCH  15  16
BRANCH  15  26
ATOM     26  O   LIG    1       20.443 -18.995   3.971  0.00  0.00    -0.386 OA
ATOM     27  H   LIG    1       20.295 -19.746   3.367  0.00  0.00    +0.210 HD
ENDBRANCH  15  26
ENDBRANCH   1  15
TORSDOF 10
ENDMDL
MODEL 8
REMARK VINA RESULT:      -4.5      2.246      6.971
REMARK  Name = *****
REMARK                            x       y       z     vdW  Elec       q    Type
REMARK                         _______ _______ _______ _____ _____    ______ ____
ROOT
ATOM      1  C   LIG    1       23.282 -18.405   3.899  0.00  0.00    +0.117 C 
ENDROOT
BRANCH   1   2
ATOM      2  N   LIG    1       24.149 -17.208   3.892  0.00  0.00    -0.310 NA
ATOM      3  H   LIG    1       25.058 -17.422   4.304  0.00  0.00    +0.122 HD
BRANCH   2   5
ATOM      4  C   LIG    1       22.010 -16.418   4.796  0.00  0.00    +0.024 C 
ATOM      5  C   LIG    1       23.502 -16.099   4.660  0.00  0.00    +0.055 C 
BRANCH   5   6
ATOM      6  C   LIG    1       23.729 -14.691   4.031  0.00  0.00    +0.053 C 
BRANCH   6   7
ATOM      7  C   LIG    1       25.167 -14.230   3.895  0.00  0.00    -0.046 A 
ATOM      8  C   LIG    1       25.864 -13.704   4.997  0.00  0.00    +0.007 A 
ATOM      9  C   LIG    1       27.202 -13.319   4.869  0.00  0.00    +0.045 A 
ATOM     10  C   LIG    1       27.852 -13.454   3.653  0.00  0.00    +0.117 A 
ATOM     11  C   LIG    1       27.188 -13.987   2.551  0.00  0.00    +0.045 A 
ATOM     12  C   LIG    1       25.852 -14.382   2.682  0.00  0.00    +0.007 A 
BRANCH  10  13
ATOM     13  O   LIG    1       29.155 -13.054   3.568  0.00  0.00    -0.507 OA
ATOM     14  H   LIG    1       29.628 -13.661   2.980  0.00  0.00    +0.292 HD
ENDBRANCH  10  13
ENDBRANCH   6   7
ENDBRANCH   5   6
ENDBRANCH   2   5
ENDBRANCH   1   2
BRANCH   1  15
ATOM     15  C   LIG    1       23.968 -19.783   3.684  0.00  0.00    +0.158 C 
BRANCH  15  16
ATOM     16  C   LIG    1       25.332 -19.790   4.362  0.00  0.00    -0.011 A 
ATOM     17  C   LIG    1       25.624 -20.699   5.397  0.00  0.00    +0.051 A 
ATOM     18  C   LIG    1       26.847 -20.653   6.063  0.00  0.00    +0.121 A 
ATOM     19  C   LIG    1       27.805 -19.706   5.731  0.00  0.00    +0.090 A 
ATOM     20  C   LIG    1       27.531 -18.815   4.705  0.00  0.00    +0.121 A 
ATOM     21  C   LIG    1       26.313 -18.846   4.017  0.00  0.00    +0.051 A 
BRANCH  18  22
ATOM     22  O   LIG    1       27.068 -21.560   7.059  0.00  0.00    -0.507 OA
ATOM     23  H   LIG    1       26.545 -22.354   6.870  0.00  0.00    +0.292 HD
ENDBRANCH  18  22
BRANCH  20  24
ATOM     24  O   LIG    1       28.487 -17.888   4.400  0.00  0.00    -0.507 OA
ATOM     25  H   LIG    1       28.234 -17.434   3.578  0.00  0.00    +0.292 HD
ENDBRANCH  20  24
ENDBRANCH  15  16
BRANCH  15  26
ATOM     26  O   LIG    1       23.175 -20.841   4.216  0.00  0.00    -0.386 OA
ATOM     27  H   LIG    1       22.366 -20.863   3.672  0.00  0.00    +0.210 HD
ENDBRANCH  15  26
ENDBRANCH   1  15
TORSDOF 10
ENDMDL
MODEL 9
REMARK VINA RESULT:      -4.4      2.710      7.622
REMARK  Name = *****
REMARK                            x       y       z     vdW  Elec       q    Type
REMARK                         _______ _______ _______ _____ _____    ______ ____
ROOT
ATOM      1  C   LIG    1       21.755 -16.924   4.094  0.00  0.00    +0.117 C 
ENDROOT
BRANCH   1   2
ATOM      2  N   LIG    1       22.968 -16.151   3.752  0.00  0.00    -0.310 NA
ATOM      3  H   LIG    1       23.727 -16.778   3.480  0.00  0.00    +0.122 HD
BRANCH   2   5
ATOM      4  C   LIG    1       22.250 -15.291   5.934  0.00  0.00    +0.024 C 
ATOM      5  C   LIG    1       23.399 -15.324   4.922  0.00  0.00    +0.055 C 
BRANCH   5   6
ATOM      6  C   LIG    1       23.856 -13.885   4.532  0.00  0.00    +0.053 C 
BRANCH   6   7
ATOM      7  C   LIG    1       25.330 -13.699   4.226  0.00  0.00    -0.046 A 
ATOM      8  C   LIG    1       26.271 -13.562   5.261  0.00  0.00    +0.007 A 
ATOM      9  C   LIG    1       27.632 -13.430   4.967  0.00  0.00    +0.045 A 
ATOM     10  C   LIG    1       28.063 -13.435   3.650  0.00  0.00    +0.117 A 
ATOM     11  C   LIG    1       27.152 -13.587   2.608  0.00  0.00    +0.045 A 
ATOM     12  C   LIG    1       25.791 -13.728   2.903  0.00  0.00    +0.007 A 
BRANCH  10  13
ATOM     13  O   LIG    1       29.399 -13.292   3.407  0.00  0.00    -0.507 OA
ATOM     14  H   LIG    1       29.521 -13.055   2.476  0.00  0.00    +0.292 HD
ENDBRANCH  10  13
ENDBRANCH   6   7
ENDBRANCH   5   6
ENDBRANCH   2   5
ENDBRANCH   1   2
BRANCH   1  15
ATOM     15  C   LIG    1       21.703 -18.408   3.635  0.00  0.00    +0.158 C 
BRANCH  15  16
ATOM     16  C   LIG    1       22.826 -19.193   4.300  0.00  0.00    -0.011 A 
ATOM     17  C   LIG    1       24.130 -19.193   3.765  0.00  0.00    +0.051 A 
ATOM     18  C   LIG    1       25.135 -19.970   4.336  0.00  0.00    +0.121 A 
ATOM     19  C   LIG    1       24.878 -20.772   5.439  0.00  0.00    +0.090 A 
ATOM     20  C   LIG    1       23.601 -20.769   5.979  0.00  0.00    +0.121 A 
ATOM     21  C   LIG    1       22.576 -19.991   5.429  0.00  0.00    +0.051 A 
BRANCH  18  22
ATOM     22  O   LIG    1       26.376 -19.928   3.769  0.00  0.00    -0.507 OA
ATOM     23  H   LIG    1       26.345 -19.322   3.013  0.00  0.00    +0.292 HD
ENDBRANCH  18  22
BRANCH  20  24
ATOM     24  O   LIG    1       23.371 -21.571   7.061  0.00  0.00    -0.507 OA
ATOM     25  H   LIG    1       23.204 -22.477   6.751  0.00  0.00    +0.292 HD
ENDBRANCH  20  24
ENDBRANCH  15  16
BRANCH  15  26
ATOM     26  O   LIG    1       20.453 -19.006   3.968  0.00  0.00    -0.386 OA
ATOM     27  H   LIG    1       20.336 -19.740   3.336  0.00  0.00    +0.210 HD
ENDBRANCH  15  26
ENDBRANCH   1  15
TORSDOF 10
ENDMDL
