MODEL 1
REMARK VINA RESULT:      -7.7      0.000      0.000
REMARK  Name = *****
REMARK                            x       y       z     vdW  Elec       q    Type
REMARK                         _______ _______ _______ _____ _____    ______ ____
ROOT
ATOM      1  C   LIG    1       22.482 -19.320   4.286  0.00  0.00    +0.105 C 
ATOM      2  N   LIG    1       23.302 -20.418   4.758  0.00  0.00    -0.301 NA
ATOM      3  C   LIG    1       24.660 -20.516   4.189  0.00  0.00    +0.069 C 
ATOM      4  C   LIG    1       25.433 -21.679   4.882  0.00  0.00    +0.043 C 
ATOM      5  C   LIG    1       25.703 -21.177   6.312  0.00  0.00    +0.048 C 
ATOM      6  C   LIG    1       26.400 -22.139   7.284  0.00  0.00    +0.217 C 
ATOM      7  O   LIG    1       27.845 -21.893   7.249  0.00  0.00    -0.481 OA
ATOM      8  C   LIG    1       27.999 -20.666   6.652  0.00  0.00    +0.167 A 
ATOM      9  C   LIG    1       29.171 -19.966   6.443  0.00  0.00    +0.162 A 
ATOM     10  C   LIG    1       29.089 -18.814   5.632  0.00  0.00    +0.050 A 
ATOM     11  C   LIG    1       27.904 -18.457   4.949  0.00  0.00    +0.008 A 
ATOM     12  C   LIG    1       26.758 -19.225   5.116  0.00  0.00    -0.038 A 
ATOM     13  C   LIG    1       26.066 -23.628   7.008  0.00  0.00    +0.178 C 
ATOM     14  C   LIG    1       25.112 -23.920   5.879  0.00  0.00    +0.004 C 
ATOM     15  C   LIG    1       26.818 -20.224   6.077  0.00  0.00    +0.012 A 
ATOM     16  C   LIG    1       24.482 -20.471   6.967  0.00  0.00    +0.031 C 
ATOM     17  C   LIG    1       24.808 -23.042   4.900  0.00  0.00    -0.023 C 
ATOM     18  C   LIG    1       25.540 -19.180   4.208  0.00  0.00    +0.055 C 
ATOM     19  C   LIG    1       23.184 -20.671   6.189  0.00  0.00    +0.085 C 
ENDROOT
BRANCH  13  20
ATOM     20  O   LIG    1       25.484 -24.204   8.185  0.00  0.00    -0.384 OA
ATOM     21  H   LIG    1       24.565 -23.894   8.239  0.00  0.00    +0.210 HD
ENDBRANCH  13  20
BRANCH   9  22
ATOM     22  O   LIG    1       30.426 -20.247   6.899  0.00  0.00    -0.487 OA
BRANCH  22  23
ATOM     23  C   LIG    1       30.701 -20.166   8.308  0.00  0.00    +0.244 C 
BRANCH  23  24
ATOM     24  C   LIG    1       31.752 -19.037   8.490  0.00  0.00    +0.125 C 
BRANCH  24  25
ATOM     25  N   LIG    1       31.260 -17.642   8.548  0.00  0.00    -0.295 NA
ATOM     26  C   LIG    1       30.067 -17.521   9.435  0.00  0.00    +0.112 C 
ATOM     27  C   LIG    1       30.382 -17.640  10.939  0.00  0.00    +0.175 C 
ATOM     28  O   LIG    1       31.370 -16.684  11.340  0.00  0.00    -0.377 OA
ATOM     29  C   LIG    1       32.565 -16.836  10.563  0.00  0.00    +0.175 C 
ATOM     30  C   LIG    1       32.277 -16.696   9.057  0.00  0.00    +0.112 C 
ENDBRANCH  24  25
ENDBRANCH  23  24
ENDBRANCH  22  23
ENDBRANCH   9  22
TORSDOF 5
ENDMDL
MODEL 2
REMARK VINA RESULT:      -7.7      5.898      9.432
REMARK  Name = *****
REMARK                            x       y       z     vdW  Elec       q    Type
REMARK                         _______ _______ _______ _____ _____    ______ ____
ROOT
ATOM      1  C   LIG    1       22.894 -33.215   7.750  0.00  0.00    +0.105 C 
ATOM      2  N   LIG    1       24.016 -32.443   8.245  0.00  0.00    -0.301 NA
ATOM      3  C   LIG    1       24.881 -31.815   7.227  0.00  0.00    +0.069 C 
ATOM      4  C   LIG    1       25.965 -30.942   7.931  0.00  0.00    +0.043 C 
ATOM      5  C   LIG    1       25.192 -29.740   8.503  0.00  0.00    +0.048 C 
ATOM      6  C   LIG    1       25.983 -28.715   9.328  0.00  0.00    +0.217 C 
ATOM      7  O   LIG    1       26.422 -27.628   8.448  0.00  0.00    -0.481 OA
ATOM      8  C   LIG    1       25.660 -27.738   7.311  0.00  0.00    +0.167 A 
ATOM      9  C   LIG    1       25.658 -26.907   6.208  0.00  0.00    +0.162 A 
ATOM     10  C   LIG    1       24.926 -27.343   5.083  0.00  0.00    +0.050 A 
ATOM     11  C   LIG    1       24.332 -28.625   5.022  0.00  0.00    +0.008 A 
ATOM     12  C   LIG    1       24.417 -29.473   6.120  0.00  0.00    -0.038 A 
ATOM     13  C   LIG    1       27.172 -29.343  10.099  0.00  0.00    +0.178 C 
ATOM     14  C   LIG    1       27.369 -30.831   9.963  0.00  0.00    +0.004 C 
ATOM     15  C   LIG    1       24.963 -28.935   7.276  0.00  0.00    +0.012 A 
ATOM     16  C   LIG    1       23.852 -30.128   9.187  0.00  0.00    +0.031 C 
ATOM     17  C   LIG    1       26.824 -31.579   8.982  0.00  0.00    -0.023 C 
ATOM     18  C   LIG    1       24.144 -30.968   6.088  0.00  0.00    +0.055 C 
ATOM     19  C   LIG    1       23.705 -31.630   9.414  0.00  0.00    +0.085 C 
ENDROOT
BRANCH  13  20
ATOM     20  O   LIG    1       27.011 -29.086  11.500  0.00  0.00    -0.384 OA
ATOM     21  H   LIG    1       27.431 -29.817  11.982  0.00  0.00    +0.210 HD
ENDBRANCH  13  20
BRANCH   9  22
ATOM     22  O   LIG    1       26.293 -25.712   6.038  0.00  0.00    -0.487 OA
BRANCH  22  23
ATOM     23  C   LIG    1       25.949 -24.601   6.885  0.00  0.00    +0.244 C 
BRANCH  23  24
ATOM     24  C   LIG    1       25.189 -23.582   5.992  0.00  0.00    +0.125 C 
BRANCH  24  25
ATOM     25  N   LIG    1       25.471 -22.144   6.195  0.00  0.00    -0.295 NA
ATOM     26  C   LIG    1       24.978 -21.325   5.050  0.00  0.00    +0.112 C 
ATOM     27  C   LIG    1       23.445 -21.178   4.990  0.00  0.00    +0.175 C 
ATOM     28  O   LIG    1       22.926 -20.644   6.213  0.00  0.00    -0.377 OA
ATOM     29  C   LIG    1       23.308 -21.464   7.325  0.00  0.00    +0.175 C 
ATOM     30  C   LIG    1       24.839 -21.603   7.419  0.00  0.00    +0.112 C 
ENDBRANCH  24  25
ENDBRANCH  23  24
ENDBRANCH  22  23
ENDBRANCH   9  22
TORSDOF 5
ENDMDL
MODEL 3
REMARK VINA RESULT:      -7.6      1.775      3.255
REMARK  Name = *****
REMARK                            x       y       z     vdW  Elec       q    Type
REMARK                         _______ _______ _______ _____ _____    ______ ____
ROOT
ATOM      1  C   LIG    1       22.872 -24.119   6.954  0.00  0.00    +0.105 C 
ATOM      2  N   LIG    1       23.174 -22.829   6.367  0.00  0.00    -0.301 NA
ATOM      3  C   LIG    1       23.850 -21.851   7.242  0.00  0.00    +0.069 C 
ATOM      4  C   LIG    1       24.192 -20.569   6.423  0.00  0.00    +0.043 C 
ATOM      5  C   LIG    1       25.319 -21.000   5.466  0.00  0.00    +0.048 C 
ATOM      6  C   LIG    1       25.835 -19.961   4.462  0.00  0.00    +0.217 C 
ATOM      7  O   LIG    1       26.997 -19.275   5.036  0.00  0.00    -0.481 OA
ATOM      8  C   LIG    1       27.412 -20.061   6.084  0.00  0.00    +0.167 A 
ATOM      9  C   LIG    1       28.508 -19.872   6.902  0.00  0.00    +0.162 A 
ATOM     10  C   LIG    1       28.611 -20.711   8.032  0.00  0.00    +0.050 A 
ATOM     11  C   LIG    1       27.584 -21.611   8.397  0.00  0.00    +0.008 A 
ATOM     12  C   LIG    1       26.455 -21.725   7.596  0.00  0.00    -0.038 A 
ATOM     13  C   LIG    1       24.743 -18.957   4.011  0.00  0.00    +0.178 C 
ATOM     14  C   LIG    1       23.360 -19.146   4.579  0.00  0.00    +0.004 C 
ATOM     15  C   LIG    1       26.481 -21.040   6.390  0.00  0.00    +0.012 A 
ATOM     16  C   LIG    1       25.076 -22.383   4.799  0.00  0.00    +0.031 C 
ATOM     17  C   LIG    1       23.088 -19.881   5.677  0.00  0.00    -0.023 C 
ATOM     18  C   LIG    1       25.146 -22.369   8.023  0.00  0.00    +0.055 C 
ATOM     19  C   LIG    1       23.653 -22.903   4.992  0.00  0.00    +0.085 C 
ENDROOT
BRANCH  13  20
ATOM     20  O   LIG    1       24.604 -19.022   2.586  0.00  0.00    -0.384 OA
ATOM     21  H   LIG    1       24.065 -18.263   2.309  0.00  0.00    +0.210 HD
ENDBRANCH  13  20
BRANCH   9  22
ATOM     22  O   LIG    1       29.513 -18.957   6.786  0.00  0.00    -0.487 OA
BRANCH  22  23
ATOM     23  C   LIG    1       30.881 -19.390   6.896  0.00  0.00    +0.244 C 
BRANCH  23  24
ATOM     24  C   LIG    1       31.423 -18.807   8.230  0.00  0.00    +0.125 C 
BRANCH  24  25
ATOM     25  N   LIG    1       31.096 -17.399   8.549  0.00  0.00    -0.295 NA
ATOM     26  C   LIG    1       30.037 -17.310   9.596  0.00  0.00    +0.112 C 
ATOM     27  C   LIG    1       30.514 -17.687  11.012  0.00  0.00    +0.175 C 
ATOM     28  O   LIG    1       31.641 -16.897  11.409  0.00  0.00    -0.377 OA
ATOM     29  C   LIG    1       32.711 -17.034  10.466  0.00  0.00    +0.175 C 
ATOM     30  C   LIG    1       32.263 -16.637   9.047  0.00  0.00    +0.112 C 
ENDBRANCH  24  25
ENDBRANCH  23  24
ENDBRANCH  22  23
ENDBRANCH   9  22
TORSDOF 5
ENDMDL
MODEL 4
REMARK VINA RESULT:      -6.9      4.229      7.950
REMARK  Name = *****
REMARK                            x       y       z     vdW  Elec       q    Type
REMARK                         _______ _______ _______ _____ _____    ______ ____
ROOT
ATOM      1  C   LIG    1       22.132 -20.003   5.048  0.00  0.00    +0.105 C 
ATOM      2  N   LIG    1       23.284 -20.277   5.884  0.00  0.00    -0.301 NA
ATOM      3  C   LIG    1       23.165 -21.419   6.812  0.00  0.00    +0.069 C 
ATOM      4  C   LIG    1       24.522 -21.634   7.549  0.00  0.00    +0.043 C 
ATOM      5  C   LIG    1       25.477 -22.177   6.469  0.00  0.00    +0.048 C 
ATOM      6  C   LIG    1       26.936 -22.428   6.872  0.00  0.00    +0.217 C 
ATOM      7  O   LIG    1       27.087 -23.828   7.278  0.00  0.00    -0.481 OA
ATOM      8  C   LIG    1       25.974 -24.476   6.801  0.00  0.00    +0.167 A 
ATOM      9  C   LIG    1       25.681 -25.823   6.875  0.00  0.00    +0.162 A 
ATOM     10  C   LIG    1       24.383 -26.215   6.483  0.00  0.00    +0.050 A 
ATOM     11  C   LIG    1       23.379 -25.275   6.158  0.00  0.00    +0.008 A 
ATOM     12  C   LIG    1       23.680 -23.918   6.167  0.00  0.00    -0.038 A 
ATOM     13  C   LIG    1       27.439 -21.455   7.970  0.00  0.00    +0.178 C 
ATOM     14  C   LIG    1       26.470 -20.411   8.459  0.00  0.00    +0.004 C 
ATOM     15  C   LIG    1       25.014 -23.583   6.355  0.00  0.00    +0.012 A 
ATOM     16  C   LIG    1       25.368 -21.431   5.109  0.00  0.00    +0.031 C 
ATOM     17  C   LIG    1       25.135 -20.473   8.274  0.00  0.00    -0.023 C 
ATOM     18  C   LIG    1       22.653 -22.798   6.184  0.00  0.00    +0.055 C 
ATOM     19  C   LIG    1       24.561 -20.138   5.195  0.00  0.00    +0.085 C 
ENDROOT
BRANCH  13  20
ATOM     20  O   LIG    1       28.582 -20.744   7.479  0.00  0.00    -0.384 OA
ATOM     21  H   LIG    1       28.276 -20.145   6.777  0.00  0.00    +0.210 HD
ENDBRANCH  13  20
BRANCH   9  22
ATOM     22  O   LIG    1       26.474 -26.848   7.303  0.00  0.00    -0.487 OA
BRANCH  22  23
ATOM     23  C   LIG    1       25.868 -28.079   7.734  0.00  0.00    +0.244 C 
BRANCH  23  24
ATOM     24  C   LIG    1       26.319 -28.304   9.203  0.00  0.00    +0.125 C 
BRANCH  24  25
ATOM     25  N   LIG    1       27.284 -29.395   9.468  0.00  0.00    -0.295 NA
ATOM     26  C   LIG    1       27.749 -29.379  10.885  0.00  0.00    +0.112 C 
ATOM     27  C   LIG    1       26.692 -29.852  11.903  0.00  0.00    +0.175 C 
ATOM     28  O   LIG    1       26.205 -31.159  11.578  0.00  0.00    -0.377 OA
ATOM     29  C   LIG    1       25.667 -31.182  10.250  0.00  0.00    +0.175 C 
ATOM     30  C   LIG    1       26.716 -30.737   9.212  0.00  0.00    +0.112 C 
ENDBRANCH  24  25
ENDBRANCH  23  24
ENDBRANCH  22  23
ENDBRANCH   9  22
TORSDOF 5
ENDMDL
MODEL 5
REMARK VINA RESULT:      -6.7      4.235      8.266
REMARK  Name = *****
REMARK                            x       y       z     vdW  Elec       q    Type
REMARK                         _______ _______ _______ _____ _____    ______ ____
ROOT
ATOM      1  C   LIG    1       22.232 -19.746   5.107  0.00  0.00    +0.105 C 
ATOM      2  N   LIG    1       23.380 -20.083   5.926  0.00  0.00    -0.301 NA
ATOM      3  C   LIG    1       23.224 -21.236   6.834  0.00  0.00    +0.069 C 
ATOM      4  C   LIG    1       24.578 -21.520   7.552  0.00  0.00    +0.043 C 
ATOM      5  C   LIG    1       25.498 -22.081   6.452  0.00  0.00    +0.048 C 
ATOM      6  C   LIG    1       26.950 -22.399   6.835  0.00  0.00    +0.217 C 
ATOM      7  O   LIG    1       27.047 -23.812   7.214  0.00  0.00    -0.481 OA
ATOM      8  C   LIG    1       25.904 -24.405   6.737  0.00  0.00    +0.167 A 
ATOM      9  C   LIG    1       25.556 -25.740   6.789  0.00  0.00    +0.162 A 
ATOM     10  C   LIG    1       24.240 -26.071   6.404  0.00  0.00    +0.050 A 
ATOM     11  C   LIG    1       23.272 -25.084   6.108  0.00  0.00    +0.008 A 
ATOM     12  C   LIG    1       23.629 -23.742   6.138  0.00  0.00    -0.038 A 
ATOM     13  C   LIG    1       27.504 -21.469   7.945  0.00  0.00    +0.178 C 
ATOM     14  C   LIG    1       26.583 -20.395   8.463  0.00  0.00    +0.004 C 
ATOM     15  C   LIG    1       24.976 -23.465   6.318  0.00  0.00    +0.012 A 
ATOM     16  C   LIG    1       25.407 -21.306   5.108  0.00  0.00    +0.031 C 
ATOM     17  C   LIG    1       25.245 -20.399   8.291  0.00  0.00    -0.023 C 
ATOM     18  C   LIG    1       22.649 -22.581   6.186  0.00  0.00    +0.055 C 
ATOM     19  C   LIG    1       24.655 -19.983   5.226  0.00  0.00    +0.085 C 
ENDROOT
BRANCH  13  20
ATOM     20  O   LIG    1       28.670 -20.796   7.455  0.00  0.00    -0.384 OA
ATOM     21  H   LIG    1       29.414 -21.418   7.513  0.00  0.00    +0.210 HD
ENDBRANCH  13  20
BRANCH   9  22
ATOM     22  O   LIG    1       26.311 -26.804   7.190  0.00  0.00    -0.487 OA
BRANCH  22  23
ATOM     23  C   LIG    1       25.745 -28.126   7.154  0.00  0.00    +0.244 C 
BRANCH  23  24
ATOM     24  C   LIG    1       25.878 -28.704   8.589  0.00  0.00    +0.125 C 
BRANCH  24  25
ATOM     25  N   LIG    1       24.995 -29.832   8.962  0.00  0.00    -0.295 NA
ATOM     26  C   LIG    1       25.511 -31.126   8.430  0.00  0.00    +0.112 C 
ATOM     27  C   LIG    1       26.762 -31.657   9.157  0.00  0.00    +0.175 C 
ATOM     28  O   LIG    1       26.530 -31.782  10.565  0.00  0.00    -0.377 OA
ATOM     29  C   LIG    1       26.120 -30.528  11.122  0.00  0.00    +0.175 C 
ATOM     30  C   LIG    1       24.855 -29.991  10.427  0.00  0.00    +0.112 C 
ENDBRANCH  24  25
ENDBRANCH  23  24
ENDBRANCH  22  23
ENDBRANCH   9  22
TORSDOF 5
ENDMDL
MODEL 6
REMARK VINA RESULT:      -6.5      7.352     11.356
REMARK  Name = *****
REMARK                            x       y       z     vdW  Elec       q    Type
REMARK                         _______ _______ _______ _____ _____    ______ ____
ROOT
ATOM      1  C   LIG    1       26.489 -28.374  15.276  0.00  0.00    +0.105 C 
ATOM      2  N   LIG    1       25.227 -28.419  14.564  0.00  0.00    -0.301 NA
ATOM      3  C   LIG    1       25.212 -27.819  13.216  0.00  0.00    +0.069 C 
ATOM      4  C   LIG    1       23.817 -28.051  12.558  0.00  0.00    +0.043 C 
ATOM      5  C   LIG    1       23.769 -29.560  12.255  0.00  0.00    +0.048 C 
ATOM      6  C   LIG    1       22.473 -30.123  11.657  0.00  0.00    +0.217 C 
ATOM      7  O   LIG    1       22.587 -30.141  10.196  0.00  0.00    -0.481 OA
ATOM      8  C   LIG    1       23.926 -30.000   9.925  0.00  0.00    +0.167 A 
ATOM      9  C   LIG    1       24.548 -30.018   8.693  0.00  0.00    +0.162 A 
ATOM     10  C   LIG    1       25.912 -29.656   8.662  0.00  0.00    +0.050 A 
ATOM     11  C   LIG    1       26.586 -29.166   9.804  0.00  0.00    +0.008 A 
ATOM     12  C   LIG    1       25.912 -29.085  11.017  0.00  0.00    -0.038 A 
ATOM     13  C   LIG    1       21.207 -29.359  12.124  0.00  0.00    +0.178 C 
ATOM     14  C   LIG    1       21.408 -28.222  13.090  0.00  0.00    +0.004 C 
ATOM     15  C   LIG    1       24.642 -29.640  11.056  0.00  0.00    +0.012 A 
ATOM     16  C   LIG    1       24.310 -30.446  13.412  0.00  0.00    +0.031 C 
ATOM     17  C   LIG    1       22.593 -27.613  13.305  0.00  0.00    -0.023 C 
ATOM     18  C   LIG    1       26.376 -28.277  12.218  0.00  0.00    +0.055 C 
ATOM     19  C   LIG    1       24.507 -29.678  14.716  0.00  0.00    +0.085 C 
ENDROOT
BRANCH  13  20
ATOM     20  O   LIG    1       20.314 -30.279  12.765  0.00  0.00    -0.384 OA
ATOM     21  H   LIG    1       19.411 -29.938  12.651  0.00  0.00    +0.210 HD
ENDBRANCH  13  20
BRANCH   9  22
ATOM     22  O   LIG    1       24.017 -30.319   7.472  0.00  0.00    -0.487 OA
BRANCH  22  23
ATOM     23  C   LIG    1       24.550 -29.688   6.294  0.00  0.00    +0.244 C 
BRANCH  23  24
ATOM     24  C   LIG    1       24.049 -28.217   6.315  0.00  0.00    +0.125 C 
BRANCH  24  25
ATOM     25  N   LIG    1       24.481 -27.328   5.213  0.00  0.00    -0.295 NA
ATOM     26  C   LIG    1       24.046 -25.921   5.449  0.00  0.00    +0.112 C 
ATOM     27  C   LIG    1       24.832 -25.193   6.557  0.00  0.00    +0.175 C 
ATOM     28  O   LIG    1       26.240 -25.218   6.298  0.00  0.00    -0.377 OA
ATOM     29  C   LIG    1       26.704 -26.566   6.158  0.00  0.00    +0.175 C 
ATOM     30  C   LIG    1       25.949 -27.305   5.037  0.00  0.00    +0.112 C 
ENDBRANCH  24  25
ENDBRANCH  23  24
ENDBRANCH  22  23
ENDBRANCH   9  22
TORSDOF 5
ENDMDL
MODEL 7
REMARK VINA RESULT:      -6.3      9.313     12.268
REMARK  Name = *****
REMARK                            x       y       z     vdW  Elec       q    Type
REMARK                         _______ _______ _______ _____ _____    ______ ____
ROOT
ATOM      1  C   LIG    1       26.205 -23.746  15.312  0.00  0.00    +0.105 C 
ATOM      2  N   LIG    1       26.646 -25.092  15.000  0.00  0.00    -0.301 NA
ATOM      3  C   LIG    1       25.690 -26.179  15.287  0.00  0.00    +0.069 C 
ATOM      4  C   LIG    1       26.281 -27.535  14.794  0.00  0.00    +0.043 C 
ATOM      5  C   LIG    1       26.241 -27.449  13.258  0.00  0.00    +0.048 C 
ATOM      6  C   LIG    1       26.829 -28.623  12.464  0.00  0.00    +0.217 C 
ATOM      7  O   LIG    1       25.756 -29.567  12.137  0.00  0.00    -0.481 OA
ATOM      8  C   LIG    1       24.583 -28.879  12.333  0.00  0.00    +0.167 A 
ATOM      9  C   LIG    1       23.295 -29.317  12.101  0.00  0.00    +0.162 A 
ATOM     10  C   LIG    1       22.248 -28.493  12.567  0.00  0.00    +0.050 A 
ATOM     11  C   LIG    1       22.489 -27.342  13.353  0.00  0.00    +0.008 A 
ATOM     12  C   LIG    1       23.796 -26.967  13.638  0.00  0.00    -0.038 A 
ATOM     13  C   LIG    1       28.003 -29.323  13.196  0.00  0.00    +0.178 C 
ATOM     14  C   LIG    1       28.414 -28.759  14.532  0.00  0.00    +0.004 C 
ATOM     15  C   LIG    1       24.798 -27.680  12.994  0.00  0.00    +0.012 A 
ATOM     16  C   LIG    1       26.708 -26.076  12.698  0.00  0.00    +0.031 C 
ATOM     17  C   LIG    1       27.643 -27.938  15.275  0.00  0.00    -0.023 C 
ATOM     18  C   LIG    1       24.204 -25.988  14.727  0.00  0.00    +0.055 C 
ATOM     19  C   LIG    1       27.383 -25.197  13.747  0.00  0.00    +0.085 C 
ENDROOT
BRANCH  13  20
ATOM     20  O   LIG    1       29.170 -29.277  12.365  0.00  0.00    -0.384 OA
ATOM     21  H   LIG    1       29.050 -28.549  11.732  0.00  0.00    +0.210 HD
ENDBRANCH  13  20
BRANCH   9  22
ATOM     22  O   LIG    1       22.880 -30.466  11.494  0.00  0.00    -0.487 OA
BRANCH  22  23
ATOM     23  C   LIG    1       22.617 -30.464  10.080  0.00  0.00    +0.244 C 
BRANCH  23  24
ATOM     24  C   LIG    1       23.866 -31.087   9.397  0.00  0.00    +0.125 C 
BRANCH  24  25
ATOM     25  N   LIG    1       24.882 -30.163   8.847  0.00  0.00    -0.295 NA
ATOM     26  C   LIG    1       26.162 -30.871   8.556  0.00  0.00    +0.112 C 
ATOM     27  C   LIG    1       26.107 -31.798   7.325  0.00  0.00    +0.175 C 
ATOM     28  O   LIG    1       25.683 -31.085   6.157  0.00  0.00    -0.377 OA
ATOM     29  C   LIG    1       24.409 -30.468   6.377  0.00  0.00    +0.175 C 
ATOM     30  C   LIG    1       24.448 -29.517   7.588  0.00  0.00    +0.112 C 
ENDBRANCH  24  25
ENDBRANCH  23  24
ENDBRANCH  22  23
ENDBRANCH   9  22
TORSDOF 5
ENDMDL
MODEL 8
REMARK VINA RESULT:      -6.0      7.018     10.602
REMARK  Name = *****
REMARK                            x       y       z     vdW  Elec       q    Type
REMARK                         _______ _______ _______ _____ _____    ______ ____
ROOT
ATOM      1  C   LIG    1       25.847 -33.490  10.679  0.00  0.00    +0.105 C 
ATOM      2  N   LIG    1       25.221 -33.251   9.393  0.00  0.00    -0.301 NA
ATOM      3  C   LIG    1       24.513 -31.966   9.235  0.00  0.00    +0.069 C 
ATOM      4  C   LIG    1       23.998 -31.831   7.770  0.00  0.00    +0.043 C 
ATOM      5  C   LIG    1       25.266 -31.622   6.923  0.00  0.00    +0.048 C 
ATOM      6  C   LIG    1       25.096 -31.524   5.400  0.00  0.00    +0.217 C 
ATOM      7  O   LIG    1       24.977 -30.112   5.022  0.00  0.00    -0.481 OA
ATOM      8  C   LIG    1       25.428 -29.397   6.104  0.00  0.00    +0.167 A 
ATOM      9  C   LIG    1       25.570 -28.029   6.217  0.00  0.00    +0.162 A 
ATOM     10  C   LIG    1       25.868 -27.522   7.499  0.00  0.00    +0.050 A 
ATOM     11  C   LIG    1       25.890 -28.346   8.648  0.00  0.00    +0.008 A 
ATOM     12  C   LIG    1       25.666 -29.711   8.517  0.00  0.00    -0.038 A 
ATOM     13  C   LIG    1       23.906 -32.362   4.867  0.00  0.00    +0.178 C 
ATOM     14  C   LIG    1       23.119 -33.157   5.876  0.00  0.00    +0.004 C 
ATOM     15  C   LIG    1       25.582 -30.202   7.222  0.00  0.00    +0.012 A 
ATOM     16  C   LIG    1       26.441 -32.561   7.317  0.00  0.00    +0.031 C 
ATOM     17  C   LIG    1       23.150 -32.932   7.206  0.00  0.00    -0.023 C 
ATOM     18  C   LIG    1       25.319 -30.651   9.660  0.00  0.00    +0.055 C 
ATOM     19  C   LIG    1       26.021 -33.689   8.256  0.00  0.00    +0.085 C 
ENDROOT
BRANCH  13  20
ATOM     20  O   LIG    1       24.391 -33.305   3.903  0.00  0.00    -0.384 OA
ATOM     21  H   LIG    1       25.301 -33.052   3.678  0.00  0.00    +0.210 HD
ENDBRANCH  13  20
BRANCH   9  22
ATOM     22  O   LIG    1       25.437 -27.074   5.250  0.00  0.00    -0.487 OA
BRANCH  22  23
ATOM     23  C   LIG    1       24.330 -26.158   5.309  0.00  0.00    +0.244 C 
BRANCH  23  24
ATOM     24  C   LIG    1       24.936 -24.744   5.528  0.00  0.00    +0.125 C 
BRANCH  24  25
ATOM     25  N   LIG    1       24.692 -24.084   6.830  0.00  0.00    -0.295 NA
ATOM     26  C   LIG    1       25.804 -23.157   7.188  0.00  0.00    +0.112 C 
ATOM     27  C   LIG    1       25.839 -21.860   6.357  0.00  0.00    +0.175 C 
ATOM     28  O   LIG    1       24.592 -21.158   6.436  0.00  0.00    -0.377 OA
ATOM     29  C   LIG    1       23.512 -21.998   6.010  0.00  0.00    +0.175 C 
ATOM     30  C   LIG    1       23.443 -23.291   6.846  0.00  0.00    +0.112 C 
ENDBRANCH  24  25
ENDBRANCH  23  24
ENDBRANCH  22  23
ENDBRANCH   9  22
TORSDOF 5
ENDMDL
MODEL 9
REMARK VINA RESULT:      -5.8      9.176     10.841
REMARK  Name = *****
REMARK                            x       y       z     vdW  Elec       q    Type
REMARK                         _______ _______ _______ _____ _____    ______ ____
ROOT
ATOM      1  C   LIG    1       26.144 -31.748   5.940  0.00  0.00    +0.105 C 
ATOM      2  N   LIG    1       25.170 -31.845   7.010  0.00  0.00    -0.301 NA
ATOM      3  C   LIG    1       25.705 -32.079   8.365  0.00  0.00    +0.069 C 
ATOM      4  C   LIG    1       24.538 -32.049   9.398  0.00  0.00    +0.043 C 
ATOM      5  C   LIG    1       24.102 -30.573   9.459  0.00  0.00    +0.048 C 
ATOM      6  C   LIG    1       22.903 -30.223  10.352  0.00  0.00    +0.217 C 
ATOM      7  O   LIG    1       23.392 -29.817  11.673  0.00  0.00    -0.481 OA
ATOM      8  C   LIG    1       24.729 -29.548  11.508  0.00  0.00    +0.167 A 
ATOM      9  C   LIG    1       25.620 -29.072  12.450  0.00  0.00    +0.162 A 
ATOM     10  C   LIG    1       26.984 -29.062  12.088  0.00  0.00    +0.050 A 
ATOM     11  C   LIG    1       27.447 -29.633  10.881  0.00  0.00    +0.008 A 
ATOM     12  C   LIG    1       26.534 -30.177   9.985  0.00  0.00    -0.038 A 
ATOM     13  C   LIG    1       21.865 -31.369  10.453  0.00  0.00    +0.178 C 
ATOM     14  C   LIG    1       22.147 -32.623   9.665  0.00  0.00    +0.004 C 
ATOM     15  C   LIG    1       25.192 -29.984  10.277  0.00  0.00    +0.012 A 
ATOM     16  C   LIG    1       24.007 -29.893   8.064  0.00  0.00    +0.031 C 
ATOM     17  C   LIG    1       23.360 -32.949   9.173  0.00  0.00    -0.023 C 
ATOM     18  C   LIG    1       26.889 -31.114   8.841  0.00  0.00    +0.055 C 
ATOM     19  C   LIG    1       24.079 -30.885   6.906  0.00  0.00    +0.085 C 
ENDROOT
BRANCH  13  20
ATOM     20  O   LIG    1       20.591 -30.890  10.002  0.00  0.00    -0.384 OA
ATOM     21  H   LIG    1       20.032 -30.762  10.787  0.00  0.00    +0.210 HD
ENDBRANCH  13  20
BRANCH   9  22
ATOM     22  O   LIG    1       25.368 -28.622  13.713  0.00  0.00    -0.487 OA
BRANCH  22  23
ATOM     23  C   LIG    1       26.469 -28.325  14.590  0.00  0.00    +0.244 C 
BRANCH  23  24
ATOM     24  C   LIG    1       26.361 -26.815  14.941  0.00  0.00    +0.125 C 
BRANCH  24  25
ATOM     25  N   LIG    1       26.533 -25.839  13.843  0.00  0.00    -0.295 NA
ATOM     26  C   LIG    1       25.433 -24.832  13.831  0.00  0.00    +0.112 C 
ATOM     27  C   LIG    1       25.507 -23.800  14.974  0.00  0.00    +0.175 C 
ATOM     28  O   LIG    1       26.769 -23.123  14.981  0.00  0.00    -0.377 OA
ATOM     29  C   LIG    1       27.845 -24.063  15.084  0.00  0.00    +0.175 C 
ATOM     30  C   LIG    1       27.805 -25.089  13.936  0.00  0.00    +0.112 C 
ENDBRANCH  24  25
ENDBRANCH  23  24
ENDBRANCH  22  23
ENDBRANCH   9  22
TORSDOF 5
ENDMDL
