MODEL 1
REMARK VINA RESULT:      -7.0      0.000      0.000
REMARK  Name = *****
REMARK                            x       y       z     vdW  Elec       q    Type
REMARK                         _______ _______ _______ _____ _____    ______ ____
ROOT
ATOM      1  C   LIG    1       24.461 -21.487   6.318  0.00  0.00    +0.104 C 
ATOM      2  C   LIG    1       25.544 -21.064   7.313  0.00  0.00    +0.152 C 
ATOM      3  O   LIG    1       25.313 -21.024   8.526  0.00  0.00    -0.296 OA
ATOM      4  C   LIG    1       26.940 -20.793   6.776  0.00  0.00    +0.070 C 
ATOM      5  C   LIG    1       27.820 -20.084   7.799  0.00  0.00    +0.017 C 
ATOM      6  C   LIG    1       26.785 -19.953   5.524  0.00  0.00    +0.115 C 
ATOM      7  N   LIG    1       25.981 -20.644   4.551  0.00  0.00    -0.314 N 
ATOM      8  H   LIG    1       26.139 -20.495   3.559  0.00  0.00    +0.149 HD
ATOM      9  C   LIG    1       24.836 -21.323   4.847  0.00  0.00    +0.226 C 
ATOM     10  O   LIG    1       24.144 -21.755   3.928  0.00  0.00    -0.275 OA
ENDROOT
BRANCH   1  12
ATOM     11  C   LIG    1       22.626 -23.264   6.770  0.00  0.00    +0.005 C 
ATOM     12  C   LIG    1       24.113 -22.979   6.579  0.00  0.00    +0.020 C 
ENDBRANCH   1  12
BRANCH   1  13
ATOM     13  C   LIG    1       23.181 -20.644   6.581  0.00  0.00    +0.020 C 
ATOM     14  C   LIG    1       22.762 -19.730   5.434  0.00  0.00    +0.005 C 
ENDBRANCH   1  13
TORSDOF 2
ENDMDL
MODEL 2
REMARK VINA RESULT:      -6.6      1.934      3.012
REMARK  Name = *****
REMARK                            x       y       z     vdW  Elec       q    Type
REMARK                         _______ _______ _______ _____ _____    ______ ____
ROOT
ATOM      1  C   LIG    1       24.524 -21.164   6.213  0.00  0.00    +0.104 C 
ATOM      2  C   LIG    1       25.937 -20.589   6.090  0.00  0.00    +0.152 C 
ATOM      3  O   LIG    1       26.401 -20.270   4.990  0.00  0.00    -0.296 OA
ATOM      4  C   LIG    1       26.715 -20.328   7.369  0.00  0.00    +0.070 C 
ATOM      5  C   LIG    1       28.193 -20.067   7.098  0.00  0.00    +0.017 C 
ATOM      6  C   LIG    1       26.537 -21.542   8.259  0.00  0.00    +0.115 C 
ATOM      7  N   LIG    1       25.143 -21.762   8.538  0.00  0.00    -0.314 N 
ATOM      8  H   LIG    1       24.857 -22.181   9.418  0.00  0.00    +0.149 HD
ATOM      9  C   LIG    1       24.152 -21.672   7.604  0.00  0.00    +0.226 C 
ATOM     10  O   LIG    1       23.014 -22.021   7.908  0.00  0.00    -0.275 OA
ENDROOT
BRANCH   1  12
ATOM     11  C   LIG    1       22.360 -20.547   4.922  0.00  0.00    +0.005 C 
ATOM     12  C   LIG    1       23.510 -20.061   5.799  0.00  0.00    +0.020 C 
ENDBRANCH   1  12
BRANCH   1  13
ATOM     13  C   LIG    1       24.375 -22.349   5.217  0.00  0.00    +0.020 C 
ATOM     14  C   LIG    1       25.050 -23.647   5.651  0.00  0.00    +0.005 C 
ENDBRANCH   1  13
TORSDOF 2
ENDMDL
MODEL 3
REMARK VINA RESULT:      -6.6      2.118      3.385
REMARK  Name = *****
REMARK                            x       y       z     vdW  Elec       q    Type
REMARK                         _______ _______ _______ _____ _____    ______ ____
ROOT
ATOM      1  C   LIG    1       24.570 -22.030   6.535  0.00  0.00    +0.104 C 
ATOM      2  C   LIG    1       25.102 -21.027   5.508  0.00  0.00    +0.152 C 
ATOM      3  O   LIG    1       26.227 -20.531   5.627  0.00  0.00    -0.296 OA
ATOM      4  C   LIG    1       24.247 -20.735   4.287  0.00  0.00    +0.070 C 
ATOM      5  C   LIG    1       24.733 -19.505   3.527  0.00  0.00    +0.017 C 
ATOM      6  C   LIG    1       22.823 -20.542   4.770  0.00  0.00    +0.115 C 
ATOM      7  N   LIG    1       22.361 -21.719   5.456  0.00  0.00    -0.314 N 
ATOM      8  H   LIG    1       21.376 -21.969   5.435  0.00  0.00    +0.149 HD
ATOM      9  C   LIG    1       23.106 -22.424   6.354  0.00  0.00    +0.226 C 
ATOM     10  O   LIG    1       22.572 -23.327   6.994  0.00  0.00    -0.275 OA
ENDROOT
BRANCH   1  12
ATOM     11  C   LIG    1       25.087 -24.265   5.322  0.00  0.00    +0.005 C 
ATOM     12  C   LIG    1       25.444 -23.314   6.461  0.00  0.00    +0.020 C 
ENDBRANCH   1  12
BRANCH   1  13
ATOM     13  C   LIG    1       24.730 -21.425   7.959  0.00  0.00    +0.020 C 
ATOM     14  C   LIG    1       25.988 -21.857   8.706  0.00  0.00    +0.005 C 
ENDBRANCH   1  13
TORSDOF 2
ENDMDL
MODEL 4
REMARK VINA RESULT:      -6.5      1.761      3.562
REMARK  Name = *****
REMARK                            x       y       z     vdW  Elec       q    Type
REMARK                         _______ _______ _______ _____ _____    ______ ____
ROOT
ATOM      1  C   LIG    1       25.506 -22.165   7.231  0.00  0.00    +0.104 C 
ATOM      2  C   LIG    1       24.093 -21.756   6.809  0.00  0.00    +0.152 C 
ATOM      3  O   LIG    1       23.101 -22.336   7.261  0.00  0.00    -0.296 OA
ATOM      4  C   LIG    1       23.942 -20.552   5.894  0.00  0.00    +0.070 C 
ATOM      5  C   LIG    1       22.541 -20.452   5.303  0.00  0.00    +0.017 C 
ATOM      6  C   LIG    1       24.981 -20.686   4.799  0.00  0.00    +0.115 C 
ATOM      7  N   LIG    1       26.303 -20.745   5.363  0.00  0.00    -0.314 N 
ATOM      8  H   LIG    1       27.097 -20.380   4.845  0.00  0.00    +0.149 HD
ATOM      9  C   LIG    1       26.634 -21.481   6.463  0.00  0.00    +0.226 C 
ATOM     10  O   LIG    1       27.817 -21.581   6.780  0.00  0.00    -0.275 OA
ENDROOT
BRANCH   1  12
ATOM     11  C   LIG    1       25.897 -20.378   9.071  0.00  0.00    +0.005 C 
ATOM     12  C   LIG    1       25.673 -21.852   8.745  0.00  0.00    +0.020 C 
ENDBRANCH   1  12
BRANCH   1  13
ATOM     13  C   LIG    1       25.663 -23.701   7.041  0.00  0.00    +0.020 C 
ATOM     14  C   LIG    1       25.237 -24.229   5.675  0.00  0.00    +0.005 C 
ENDBRANCH   1  13
TORSDOF 2
ENDMDL
MODEL 5
REMARK VINA RESULT:      -6.4      2.128      4.070
REMARK  Name = *****
REMARK                            x       y       z     vdW  Elec       q    Type
REMARK                         _______ _______ _______ _____ _____    ______ ____
ROOT
ATOM      1  C   LIG    1       25.050 -21.966   7.104  0.00  0.00    +0.104 C 
ATOM      2  C   LIG    1       25.199 -23.434   6.695  0.00  0.00    +0.152 C 
ATOM      3  O   LIG    1       26.283 -23.879   6.307  0.00  0.00    -0.296 OA
ATOM      4  C   LIG    1       24.000 -24.350   6.877  0.00  0.00    +0.070 C 
ATOM      5  C   LIG    1       24.176 -25.677   6.146  0.00  0.00    +0.017 C 
ATOM      6  C   LIG    1       22.784 -23.608   6.360  0.00  0.00    +0.115 C 
ATOM      7  N   LIG    1       22.605 -22.373   7.078  0.00  0.00    -0.314 N 
ATOM      8  H   LIG    1       21.674 -21.994   7.217  0.00  0.00    +0.149 HD
ATOM      9  C   LIG    1       23.620 -21.519   7.395  0.00  0.00    +0.226 C 
ATOM     10  O   LIG    1       23.347 -20.423   7.879  0.00  0.00    -0.275 OA
ENDROOT
BRANCH   1  12
ATOM     11  C   LIG    1       26.853 -20.521   8.284  0.00  0.00    +0.005 C 
ATOM     12  C   LIG    1       25.916 -21.722   8.372  0.00  0.00    +0.020 C 
ENDBRANCH   1  12
BRANCH   1  13
ATOM     13  C   LIG    1       25.608 -21.068   5.963  0.00  0.00    +0.020 C 
ATOM     14  C   LIG    1       24.780 -21.062   4.682  0.00  0.00    +0.005 C 
ENDBRANCH   1  13
TORSDOF 2
ENDMDL
MODEL 6
REMARK VINA RESULT:      -6.3      1.547      3.426
REMARK  Name = *****
REMARK                            x       y       z     vdW  Elec       q    Type
REMARK                         _______ _______ _______ _____ _____    ______ ____
ROOT
ATOM      1  C   LIG    1       25.394 -22.131   6.801  0.00  0.00    +0.104 C 
ATOM      2  C   LIG    1       25.168 -21.510   5.420  0.00  0.00    +0.152 C 
ATOM      3  O   LIG    1       24.492 -22.090   4.565  0.00  0.00    -0.296 OA
ATOM      4  C   LIG    1       25.715 -20.115   5.168  0.00  0.00    +0.070 C 
ATOM      5  C   LIG    1       25.705 -19.755   3.686  0.00  0.00    +0.017 C 
ATOM      6  C   LIG    1       27.126 -20.078   5.721  0.00  0.00    +0.115 C 
ATOM      7  N   LIG    1       27.124 -20.386   7.127  0.00  0.00    -0.314 N 
ATOM      8  H   LIG    1       27.825 -19.980   7.740  0.00  0.00    +0.149 HD
ATOM      9  C   LIG    1       26.388 -21.387   7.690  0.00  0.00    +0.226 C 
ATOM     10  O   LIG    1       26.566 -21.664   8.874  0.00  0.00    -0.275 OA
ENDROOT
BRANCH   1  12
ATOM     11  C   LIG    1       23.235 -20.895   7.538  0.00  0.00    +0.005 C 
ATOM     12  C   LIG    1       24.025 -22.200   7.535  0.00  0.00    +0.020 C 
ENDBRANCH   1  12
BRANCH   1  13
ATOM     13  C   LIG    1       25.913 -23.586   6.619  0.00  0.00    +0.020 C 
ATOM     14  C   LIG    1       24.843 -24.669   6.716  0.00  0.00    +0.005 C 
ENDBRANCH   1  13
TORSDOF 2
ENDMDL
MODEL 7
REMARK VINA RESULT:      -6.2      1.762      3.373
REMARK  Name = *****
REMARK                            x       y       z     vdW  Elec       q    Type
REMARK                         _______ _______ _______ _____ _____    ______ ____
ROOT
ATOM      1  C   LIG    1       24.251 -21.573   6.904  0.00  0.00    +0.104 C 
ATOM      2  C   LIG    1       23.676 -20.429   6.066  0.00  0.00    +0.152 C 
ATOM      3  O   LIG    1       22.850 -19.644   6.542  0.00  0.00    -0.296 OA
ATOM      4  C   LIG    1       24.226 -20.226   4.664  0.00  0.00    +0.070 C 
ATOM      5  C   LIG    1       23.360 -19.280   3.840  0.00  0.00    +0.017 C 
ATOM      6  C   LIG    1       24.306 -21.591   4.010  0.00  0.00    +0.115 C 
ATOM      7  N   LIG    1       25.152 -22.467   4.776  0.00  0.00    -0.314 N 
ATOM      8  H   LIG    1       25.684 -23.198   4.312  0.00  0.00    +0.149 HD
ATOM      9  C   LIG    1       25.125 -22.561   6.136  0.00  0.00    +0.226 C 
ATOM     10  O   LIG    1       25.782 -23.443   6.686  0.00  0.00    -0.275 OA
ENDROOT
BRANCH   1  12
ATOM     11  C   LIG    1       26.440 -20.385   7.632  0.00  0.00    +0.005 C 
ATOM     12  C   LIG    1       25.092 -20.958   8.059  0.00  0.00    +0.020 C 
ENDBRANCH   1  12
BRANCH   1  13
ATOM     13  C   LIG    1       23.077 -22.369   7.541  0.00  0.00    +0.020 C 
ATOM     14  C   LIG    1       22.478 -23.456   6.653  0.00  0.00    +0.005 C 
ENDBRANCH   1  13
TORSDOF 2
ENDMDL
MODEL 8
REMARK VINA RESULT:      -6.2      1.818      3.992
REMARK  Name = *****
REMARK                            x       y       z     vdW  Elec       q    Type
REMARK                         _______ _______ _______ _____ _____    ______ ____
ROOT
ATOM      1  C   LIG    1       25.925 -21.323   6.970  0.00  0.00    +0.104 C 
ATOM      2  C   LIG    1       25.277 -21.026   5.615  0.00  0.00    +0.152 C 
ATOM      3  O   LIG    1       25.966 -20.860   4.603  0.00  0.00    -0.296 OA
ATOM      4  C   LIG    1       23.760 -21.042   5.531  0.00  0.00    +0.070 C 
ATOM      5  C   LIG    1       23.251 -20.425   4.232  0.00  0.00    +0.017 C 
ATOM      6  C   LIG    1       23.235 -20.279   6.731  0.00  0.00    +0.115 C 
ATOM      7  N   LIG    1       23.692 -20.887   7.953  0.00  0.00    -0.314 N 
ATOM      8  H   LIG    1       23.121 -20.839   8.792  0.00  0.00    +0.149 HD
ATOM      9  C   LIG    1       24.965 -21.333   8.157  0.00  0.00    +0.226 C 
ATOM     10  O   LIG    1       25.294 -21.702   9.282  0.00  0.00    -0.275 OA
ENDROOT
BRANCH   1  12
ATOM     11  C   LIG    1       25.678 -23.890   6.689  0.00  0.00    +0.005 C 
ATOM     12  C   LIG    1       26.623 -22.709   6.884  0.00  0.00    +0.020 C 
ENDBRANCH   1  12
BRANCH   1  13
ATOM     13  C   LIG    1       27.018 -20.253   7.249  0.00  0.00    +0.020 C 
ATOM     14  C   LIG    1       28.449 -20.782   7.270  0.00  0.00    +0.005 C 
ENDBRANCH   1  13
TORSDOF 2
ENDMDL
MODEL 9
REMARK VINA RESULT:      -6.1      1.912      3.513
REMARK  Name = *****
REMARK                            x       y       z     vdW  Elec       q    Type
REMARK                         _______ _______ _______ _____ _____    ______ ____
ROOT
ATOM      1  C   LIG    1       24.127 -21.566   6.190  0.00  0.00    +0.104 C 
ATOM      2  C   LIG    1       23.632 -23.008   6.321  0.00  0.00    +0.152 C 
ATOM      3  O   LIG    1       22.454 -23.253   6.601  0.00  0.00    -0.296 OA
ATOM      4  C   LIG    1       24.605 -24.129   5.998  0.00  0.00    +0.070 C 
ATOM      5  C   LIG    1       24.095 -25.485   6.471  0.00  0.00    +0.017 C 
ATOM      6  C   LIG    1       25.923 -23.786   6.665  0.00  0.00    +0.115 C 
ATOM      7  N   LIG    1       26.414 -22.521   6.189  0.00  0.00    -0.314 N 
ATOM      8  H   LIG    1       27.414 -22.346   6.138  0.00  0.00    +0.149 HD
ATOM      9  C   LIG    1       25.636 -21.414   6.013  0.00  0.00    +0.226 C 
ATOM     10  O   LIG    1       26.175 -20.343   5.742  0.00  0.00    -0.275 OA
ENDROOT
BRANCH   1  12
ATOM     11  C   LIG    1       22.606 -19.662   5.299  0.00  0.00    +0.005 C 
ATOM     12  C   LIG    1       23.415 -20.913   4.971  0.00  0.00    +0.020 C 
ENDBRANCH   1  12
BRANCH   1  13
ATOM     13  C   LIG    1       23.715 -20.775   7.464  0.00  0.00    +0.020 C 
ATOM     14  C   LIG    1       24.750 -20.769   8.584  0.00  0.00    +0.005 C 
ENDBRANCH   1  13
TORSDOF 2
ENDMDL
