MODEL 1
REMARK VINA RESULT:      -6.1      0.000      0.000
REMARK  Name = *****
REMARK                            x       y       z     vdW  Elec       q    Type
REMARK                         _______ _______ _______ _____ _____    ______ ____
ROOT
ATOM      1  C   LIG    1       25.656 -29.406   7.486  0.00  0.00    +0.169 C 
ATOM      2  C   LIG    1       26.314 -30.129   8.707  0.00  0.00    +0.175 C 
ATOM      3  C   LIG    1       25.343 -30.547   9.883  0.00  0.00    +0.169 C 
ATOM      4  C   LIG    1       24.253 -31.426   9.208  0.00  0.00    +0.084 C 
ATOM      5  C   LIG    1       23.454 -30.568   8.221  0.00  0.00    +0.042 C 
ATOM      6  C   LIG    1       24.359 -30.177   7.041  0.00  0.00    +0.084 C 
ENDROOT
BRANCH   4   7
ATOM      7  N   LIG    1       23.393 -32.205  10.089  0.00  0.00    -0.325 NA
ATOM      8  H   LIG    1       22.412 -31.924  10.018  0.00  0.00    +0.118 HD
ATOM      9  H   LIG    1       23.683 -32.129  11.057  0.00  0.00    +0.118 HD
ENDBRANCH   4   7
BRANCH   6  10
ATOM     10  N   LIG    1       23.569 -29.469   6.021  0.00  0.00    -0.325 NA
ATOM     11  H   LIG    1       23.883 -28.506   5.933  0.00  0.00    +0.118 HD
ATOM     12  H   LIG    1       23.738 -29.924   5.120  0.00  0.00    +0.118 HD
ENDBRANCH   6  10
BRANCH   2  13
ATOM     13  O   LIG    1       27.490 -29.454   9.177  0.00  0.00    -0.387 OA
ATOM     14  H   LIG    1       27.957 -29.105   8.412  0.00  0.00    +0.210 HD
ENDBRANCH   2  13
BRANCH   1  15
ATOM     15  O   LIG    1       25.352 -28.011   7.635  0.00  0.00    -0.342 OA
BRANCH  15  18
ATOM     16  C   LIG    1       25.967 -24.683   6.504  0.00  0.00    +0.138 C 
ATOM     17  O   LIG    1       25.674 -25.763   7.392  0.00  0.00    -0.345 OA
ATOM     18  C   LIG    1       26.162 -27.049   6.945  0.00  0.00    +0.268 C 
ATOM     19  C   LIG    1       26.265 -27.104   5.356  0.00  0.00    +0.107 C 
ATOM     20  C   LIG    1       25.160 -26.271   4.689  0.00  0.00    +0.026 C 
ATOM     21  C   LIG    1       25.113 -24.841   5.241  0.00  0.00    +0.035 C 
BRANCH  19  22
ATOM     22  N   LIG    1       26.392 -28.395   4.667  0.00  0.00    -0.323 NA
ATOM     23  H   LIG    1       26.218 -28.283   3.681  0.00  0.00    +0.119 HD
ATOM     24  H   LIG    1       27.373 -28.696   4.760  0.00  0.00    +0.119 HD
ENDBRANCH  19  22
BRANCH  16  25
ATOM     25  C   LIG    1       25.765 -23.328   7.244  0.00  0.00    +0.079 C 
ATOM     26  C   LIG    1       24.321 -22.816   7.129  0.00  0.00    +0.026 C 
BRANCH  25  28
ATOM     27  C   LIG    1       25.986 -21.027   6.424  0.00  0.00    +0.101 C 
ATOM     28  N   LIG    1       26.677 -22.240   6.839  0.00  0.00    -0.314 NA
ATOM     29  H   LIG    1       27.325 -22.025   7.596  0.00  0.00    +0.122 HD
ENDBRANCH  25  28
ENDBRANCH  16  25
ENDBRANCH  15  18
ENDBRANCH   1  15
BRANCH   3  30
ATOM     30  O   LIG    1       24.868 -29.386  10.588  0.00  0.00    -0.341 OA
BRANCH  30  31
ATOM     31  C   LIG    1       25.112 -29.284  12.016  0.00  0.00    +0.281 C 
ATOM     32  C   LIG    1       25.886 -27.935  12.226  0.00  0.00    +0.190 C 
ATOM     33  C   LIG    1       26.495 -27.771  13.641  0.00  0.00    +0.121 C 
ATOM     34  C   LIG    1       27.212 -29.079  14.093  0.00  0.00    +0.104 C 
ATOM     35  C   LIG    1       28.547 -29.370  13.383  0.00  0.00    +0.045 C 
ATOM     36  C   LIG    1       26.243 -30.253  13.879  0.00  0.00    +0.199 C 
ATOM     37  O   LIG    1       25.867 -30.397  12.498  0.00  0.00    -0.346 OA
BRANCH  33  38
ATOM     38  N   LIG    1       27.457 -26.639  13.813  0.00  0.00    -0.311 NA
ATOM     39  H   LIG    1       28.068 -26.652  12.989  0.00  0.00    +0.122 HD
ATOM     40  C   LIG    1       26.830 -25.322  13.809  0.00  0.00    +0.101 C 
ENDBRANCH  33  38
BRANCH  32  41
ATOM     41  O   LIG    1       26.957 -27.833  11.265  0.00  0.00    -0.385 OA
ATOM     42  H   LIG    1       26.512 -27.831  10.396  0.00  0.00    +0.210 HD
ENDBRANCH  32  41
BRANCH  34  43
ATOM     43  O   LIG    1       27.514 -28.953  15.494  0.00  0.00    -0.385 OA
ATOM     44  H   LIG    1       28.481 -29.112  15.553  0.00  0.00    +0.210 HD
ENDBRANCH  34  43
ENDBRANCH  30  31
ENDBRANCH   3  30
TORSDOF 13
ENDMDL
MODEL 2
REMARK VINA RESULT:      -5.7      1.649      2.299
REMARK  Name = *****
REMARK                            x       y       z     vdW  Elec       q    Type
REMARK                         _______ _______ _______ _____ _____    ______ ____
ROOT
ATOM      1  C   LIG    1       25.647 -29.444   7.445  0.00  0.00    +0.169 C 
ATOM      2  C   LIG    1       26.277 -30.110   8.712  0.00  0.00    +0.175 C 
ATOM      3  C   LIG    1       25.270 -30.543   9.851  0.00  0.00    +0.169 C 
ATOM      4  C   LIG    1       24.251 -31.483   9.148  0.00  0.00    +0.084 C 
ATOM      5  C   LIG    1       23.463 -30.682   8.105  0.00  0.00    +0.042 C 
ATOM      6  C   LIG    1       24.406 -30.278   6.959  0.00  0.00    +0.084 C 
ENDROOT
BRANCH   4   7
ATOM      7  N   LIG    1       23.383 -32.278  10.007  0.00  0.00    -0.325 NA
ATOM      8  H   LIG    1       22.458 -31.856  10.119  0.00  0.00    +0.118 HD
ATOM      9  H   LIG    1       23.790 -32.415  10.925  0.00  0.00    +0.118 HD
ENDBRANCH   4   7
BRANCH   6  10
ATOM     10  N   LIG    1       23.636 -29.628   5.888  0.00  0.00    -0.325 NA
ATOM     11  H   LIG    1       23.903 -30.001   4.980  0.00  0.00    +0.118 HD
ATOM     12  H   LIG    1       22.647 -29.857   6.026  0.00  0.00    +0.118 HD
ENDBRANCH   6  10
BRANCH   2  13
ATOM     13  O   LIG    1       27.400 -29.375   9.219  0.00  0.00    -0.387 OA
ATOM     14  H   LIG    1       27.605 -28.677   8.590  0.00  0.00    +0.210 HD
ENDBRANCH   2  13
BRANCH   1  15
ATOM     15  O   LIG    1       25.279 -28.060   7.546  0.00  0.00    -0.342 OA
BRANCH  15  18
ATOM     16  C   LIG    1       25.897 -24.705   6.499  0.00  0.00    +0.138 C 
ATOM     17  O   LIG    1       25.580 -25.803   7.355  0.00  0.00    -0.345 OA
ATOM     18  C   LIG    1       26.105 -27.075   6.909  0.00  0.00    +0.268 C 
ATOM     19  C   LIG    1       26.277 -27.101   5.325  0.00  0.00    +0.107 C 
ATOM     20  C   LIG    1       25.191 -26.271   4.624  0.00  0.00    +0.026 C 
ATOM     21  C   LIG    1       25.101 -24.852   5.197  0.00  0.00    +0.035 C 
BRANCH  19  22
ATOM     22  N   LIG    1       26.453 -28.379   4.620  0.00  0.00    -0.323 NA
ATOM     23  H   LIG    1       25.633 -28.593   4.076  0.00  0.00    +0.119 HD
ATOM     24  H   LIG    1       27.227 -28.256   3.951  0.00  0.00    +0.119 HD
ENDBRANCH  19  22
BRANCH  16  25
ATOM     25  C   LIG    1       25.644 -23.366   7.252  0.00  0.00    +0.079 C 
ATOM     26  C   LIG    1       24.201 -22.867   7.076  0.00  0.00    +0.026 C 
BRANCH  25  28
ATOM     27  C   LIG    1       26.775 -21.323   8.005  0.00  0.00    +0.101 C 
ATOM     28  N   LIG    1       26.563 -22.261   6.911  0.00  0.00    -0.314 NA
ATOM     29  H   LIG    1       27.458 -22.634   6.597  0.00  0.00    +0.122 HD
ENDBRANCH  25  28
ENDBRANCH  16  25
ENDBRANCH  15  18
ENDBRANCH   1  15
BRANCH   3  30
ATOM     30  O   LIG    1       24.714 -29.388  10.506  0.00  0.00    -0.341 OA
BRANCH  30  31
ATOM     31  C   LIG    1       25.162 -29.059  11.847  0.00  0.00    +0.281 C 
ATOM     32  C   LIG    1       23.909 -29.236  12.776  0.00  0.00    +0.190 C 
ATOM     33  C   LIG    1       24.095 -28.660  14.202  0.00  0.00    +0.121 C 
ATOM     34  C   LIG    1       24.745 -27.245  14.150  0.00  0.00    +0.104 C 
ATOM     35  C   LIG    1       23.823 -26.120  13.647  0.00  0.00    +0.045 C 
ATOM     36  C   LIG    1       25.996 -27.327  13.260  0.00  0.00    +0.199 C 
ATOM     37  O   LIG    1       25.676 -27.727  11.916  0.00  0.00    -0.346 OA
BRANCH  33  38
ATOM     38  N   LIG    1       22.856 -28.563  15.035  0.00  0.00    -0.311 NA
ATOM     39  H   LIG    1       22.160 -28.074  14.462  0.00  0.00    +0.122 HD
ATOM     40  C   LIG    1       22.255 -29.853  15.356  0.00  0.00    +0.101 C 
ENDBRANCH  33  38
BRANCH  32  41
ATOM     41  O   LIG    1       22.766 -28.590  12.179  0.00  0.00    -0.385 OA
ATOM     42  H   LIG    1       23.096 -28.233  11.332  0.00  0.00    +0.210 HD
ENDBRANCH  32  41
BRANCH  34  43
ATOM     43  O   LIG    1       25.131 -26.889  15.490  0.00  0.00    -0.385 OA
ATOM     44  H   LIG    1       25.556 -27.699  15.847  0.00  0.00    +0.210 HD
ENDBRANCH  34  43
ENDBRANCH  30  31
ENDBRANCH   3  30
TORSDOF 13
ENDMDL
MODEL 3
REMARK VINA RESULT:      -5.7      5.354      9.548
REMARK  Name = *****
REMARK                            x       y       z     vdW  Elec       q    Type
REMARK                         _______ _______ _______ _____ _____    ______ ____
ROOT
ATOM      1  C   LIG    1       24.498 -21.216   5.183  0.00  0.00    +0.169 C 
ATOM      2  C   LIG    1       25.245 -20.239   6.149  0.00  0.00    +0.175 C 
ATOM      3  C   LIG    1       26.529 -19.521   5.569  0.00  0.00    +0.169 C 
ATOM      4  C   LIG    1       26.036 -18.800   4.283  0.00  0.00    +0.084 C 
ATOM      5  C   LIG    1       25.580 -19.848   3.261  0.00  0.00    +0.042 C 
ATOM      6  C   LIG    1       24.307 -20.539   3.776  0.00  0.00    +0.084 C 
ENDROOT
BRANCH   4   7
ATOM      7  N   LIG    1       26.928 -17.807   3.699  0.00  0.00    -0.325 NA
ATOM      8  H   LIG    1       26.478 -16.893   3.603  0.00  0.00    +0.118 HD
ATOM      9  H   LIG    1       27.267 -18.098   2.790  0.00  0.00    +0.118 HD
ENDBRANCH   4   7
BRANCH   6  10
ATOM     10  N   LIG    1       23.783 -21.449   2.746  0.00  0.00    -0.325 NA
ATOM     11  H   LIG    1       23.495 -22.331   3.162  0.00  0.00    +0.118 HD
ATOM     12  H   LIG    1       22.945 -21.020   2.343  0.00  0.00    +0.118 HD
ENDBRANCH   6  10
BRANCH   2  13
ATOM     13  O   LIG    1       25.474 -20.814   7.444  0.00  0.00    -0.387 OA
ATOM     14  H   LIG    1       26.344 -21.225   7.436  0.00  0.00    +0.210 HD
ENDBRANCH   2  13
BRANCH   1  15
ATOM     15  O   LIG    1       25.063 -22.524   5.008  0.00  0.00    -0.342 OA
BRANCH  15  18
ATOM     16  C   LIG    1       25.376 -25.784   6.425  0.00  0.00    +0.138 C 
ATOM     17  O   LIG    1       25.662 -24.643   5.616  0.00  0.00    -0.345 OA
ATOM     18  C   LIG    1       25.153 -23.397   6.143  0.00  0.00    +0.268 C 
ATOM     19  C   LIG    1       23.866 -23.641   7.050  0.00  0.00    +0.107 C 
ATOM     20  C   LIG    1       23.026 -24.820   6.535  0.00  0.00    +0.026 C 
ATOM     21  C   LIG    1       23.874 -26.082   6.341  0.00  0.00    +0.035 C 
BRANCH  19  22
ATOM     22  N   LIG    1       22.981 -22.520   7.398  0.00  0.00    -0.323 NA
ATOM     23  H   LIG    1       22.795 -22.516   8.388  0.00  0.00    +0.119 HD
ATOM     24  H   LIG    1       23.493 -21.650   7.190  0.00  0.00    +0.119 HD
ENDBRANCH  19  22
BRANCH  16  25
ATOM     25  C   LIG    1       26.286 -26.972   5.994  0.00  0.00    +0.079 C 
ATOM     26  C   LIG    1       26.379 -27.104   4.466  0.00  0.00    +0.026 C 
BRANCH  25  28
ATOM     27  C   LIG    1       25.331 -29.193   5.572  0.00  0.00    +0.101 C 
ATOM     28  N   LIG    1       25.918 -28.289   6.552  0.00  0.00    -0.314 NA
ATOM     29  H   LIG    1       26.733 -28.728   6.981  0.00  0.00    +0.122 HD
ENDBRANCH  25  28
ENDBRANCH  16  25
ENDBRANCH  15  18
ENDBRANCH   1  15
BRANCH   3  30
ATOM     30  O   LIG    1       27.602 -20.463   5.390  0.00  0.00    -0.341 OA
BRANCH  30  31
ATOM     31  C   LIG    1       28.955 -20.056   5.727  0.00  0.00    +0.281 C 
ATOM     32  C   LIG    1       29.307 -20.795   7.066  0.00  0.00    +0.190 C 
ATOM     33  C   LIG    1       30.597 -20.278   7.750  0.00  0.00    +0.121 C 
ATOM     34  C   LIG    1       30.632 -18.720   7.768  0.00  0.00    +0.104 C 
ATOM     35  C   LIG    1       29.656 -18.056   8.757  0.00  0.00    +0.045 C 
ATOM     36  C   LIG    1       30.347 -18.220   6.343  0.00  0.00    +0.199 C 
ATOM     37  O   LIG    1       29.053 -18.638   5.873  0.00  0.00    -0.346 OA
BRANCH  33  38
ATOM     38  N   LIG    1       30.834 -20.757   9.148  0.00  0.00    -0.311 NA
ATOM     39  H   LIG    1       29.931 -20.696   9.631  0.00  0.00    +0.122 HD
ATOM     40  C   LIG    1       31.226 -22.159   9.236  0.00  0.00    +0.101 C 
ENDBRANCH  33  38
BRANCH  32  41
ATOM     41  O   LIG    1       28.218 -20.652   8.001  0.00  0.00    -0.385 OA
ATOM     42  H   LIG    1       27.429 -20.957   7.514  0.00  0.00    +0.210 HD
ENDBRANCH  32  41
BRANCH  34  43
ATOM     43  O   LIG    1       31.954 -18.315   8.166  0.00  0.00    -0.385 OA
ATOM     44  H   LIG    1       32.332 -17.888   7.365  0.00  0.00    +0.210 HD
ENDBRANCH  34  43
ENDBRANCH  30  31
ENDBRANCH   3  30
TORSDOF 13
ENDMDL
MODEL 4
REMARK VINA RESULT:      -5.6      1.588      1.957
REMARK  Name = *****
REMARK                            x       y       z     vdW  Elec       q    Type
REMARK                         _______ _______ _______ _____ _____    ______ ____
ROOT
ATOM      1  C   LIG    1       25.335 -31.430   8.150  0.00  0.00    +0.169 C 
ATOM      2  C   LIG    1       26.060 -31.922   9.445  0.00  0.00    +0.175 C 
ATOM      3  C   LIG    1       25.150 -32.155  10.716  0.00  0.00    +0.169 C 
ATOM      4  C   LIG    1       24.058 -33.158  10.247  0.00  0.00    +0.084 C 
ATOM      5  C   LIG    1       23.197 -32.496   9.166  0.00  0.00    +0.042 C 
ATOM      6  C   LIG    1       24.043 -32.291   7.898  0.00  0.00    +0.084 C 
ENDROOT
BRANCH   4   7
ATOM      7  N   LIG    1       23.256 -33.794  11.284  0.00  0.00    -0.325 NA
ATOM      8  H   LIG    1       22.599 -33.142  11.719  0.00  0.00    +0.118 HD
ATOM      9  H   LIG    1       23.836 -34.202  12.007  0.00  0.00    +0.118 HD
ENDBRANCH   4   7
BRANCH   6  10
ATOM     10  N   LIG    1       23.193 -31.783   6.810  0.00  0.00    -0.325 NA
ATOM     11  H   LIG    1       23.075 -32.491   6.090  0.00  0.00    +0.118 HD
ATOM     12  H   LIG    1       22.264 -31.593   7.198  0.00  0.00    +0.118 HD
ENDBRANCH   6  10
BRANCH   2  13
ATOM     13  O   LIG    1       27.235 -31.154   9.743  0.00  0.00    -0.387 OA
ATOM     14  H   LIG    1       27.373 -30.533   9.021  0.00  0.00    +0.210 HD
ENDBRANCH   2  13
BRANCH   1  15
ATOM     15  O   LIG    1       24.999 -30.037   8.076  0.00  0.00    -0.342 OA
BRANCH  15  18
ATOM     16  C   LIG    1       25.360 -26.965   6.296  0.00  0.00    +0.138 C 
ATOM     17  O   LIG    1       25.215 -27.867   7.393  0.00  0.00    -0.345 OA
ATOM     18  C   LIG    1       25.685 -29.209   7.127  0.00  0.00    +0.268 C 
ATOM     19  C   LIG    1       25.591 -29.552   5.573  0.00  0.00    +0.107 C 
ATOM     20  C   LIG    1       24.385 -28.865   4.914  0.00  0.00    +0.026 C 
ATOM     21  C   LIG    1       24.361 -27.359   5.201  0.00  0.00    +0.035 C 
BRANCH  19  22
ATOM     22  N   LIG    1       25.674 -30.946   5.117  0.00  0.00    -0.323 NA
ATOM     23  H   LIG    1       25.671 -30.984   4.110  0.00  0.00    +0.119 HD
ATOM     24  H   LIG    1       26.587 -31.315   5.423  0.00  0.00    +0.119 HD
ENDBRANCH  19  22
BRANCH  16  25
ATOM     25  C   LIG    1       25.207 -25.500   6.799  0.00  0.00    +0.079 C 
ATOM     26  C   LIG    1       23.838 -24.904   6.437  0.00  0.00    +0.026 C 
BRANCH  25  28
ATOM     27  C   LIG    1       26.114 -23.223   6.911  0.00  0.00    +0.101 C 
ATOM     28  N   LIG    1       26.256 -24.561   6.352  0.00  0.00    -0.314 NA
ATOM     29  H   LIG    1       27.178 -24.933   6.577  0.00  0.00    +0.122 HD
ENDBRANCH  25  28
ENDBRANCH  16  25
ENDBRANCH  15  18
ENDBRANCH   1  15
BRANCH   3  30
ATOM     30  O   LIG    1       24.671 -30.902  11.236  0.00  0.00    -0.341 OA
BRANCH  30  31
ATOM     31  C   LIG    1       25.363 -30.300  12.363  0.00  0.00    +0.281 C 
ATOM     32  C   LIG    1       25.665 -28.819  11.943  0.00  0.00    +0.190 C 
ATOM     33  C   LIG    1       26.650 -28.085  12.886  0.00  0.00    +0.121 C 
ATOM     34  C   LIG    1       27.872 -28.988  13.228  0.00  0.00    +0.104 C 
ATOM     35  C   LIG    1       28.878 -29.188  12.080  0.00  0.00    +0.045 C 
ATOM     36  C   LIG    1       27.340 -30.353  13.696  0.00  0.00    +0.199 C 
ATOM     37  O   LIG    1       26.565 -31.008  12.677  0.00  0.00    -0.346 OA
BRANCH  33  38
ATOM     38  N   LIG    1       27.175 -26.774  12.392  0.00  0.00    -0.311 NA
ATOM     39  H   LIG    1       26.828 -26.666  11.433  0.00  0.00    +0.122 HD
ATOM     40  C   LIG    1       26.663 -25.618  13.120  0.00  0.00    +0.101 C 
ENDBRANCH  33  38
BRANCH  32  41
ATOM     41  O   LIG    1       26.221 -28.794  10.611  0.00  0.00    -0.385 OA
ATOM     42  H   LIG    1       27.168 -28.593  10.740  0.00  0.00    +0.210 HD
ENDBRANCH  32  41
BRANCH  34  43
ATOM     43  O   LIG    1       28.597 -28.360  14.301  0.00  0.00    -0.385 OA
ATOM     44  H   LIG    1       28.912 -29.107  14.856  0.00  0.00    +0.210 HD
ENDBRANCH  34  43
ENDBRANCH  30  31
ENDBRANCH   3  30
TORSDOF 13
ENDMDL
MODEL 5
REMARK VINA RESULT:      -5.5      4.155      8.470
REMARK  Name = *****
REMARK                            x       y       z     vdW  Elec       q    Type
REMARK                         _______ _______ _______ _____ _____    ______ ____
ROOT
ATOM      1  C   LIG    1       26.565 -20.386   6.453  0.00  0.00    +0.169 C 
ATOM      2  C   LIG    1       25.473 -20.689   5.375  0.00  0.00    +0.175 C 
ATOM      3  C   LIG    1       24.569 -21.961   5.628  0.00  0.00    +0.169 C 
ATOM      4  C   LIG    1       23.948 -21.737   7.035  0.00  0.00    +0.084 C 
ATOM      5  C   LIG    1       25.064 -21.738   8.085  0.00  0.00    +0.042 C 
ATOM      6  C   LIG    1       25.940 -20.489   7.894  0.00  0.00    +0.084 C 
ENDROOT
BRANCH   4   7
ATOM      7  N   LIG    1       22.833 -22.597   7.410  0.00  0.00    -0.325 NA
ATOM      8  H   LIG    1       22.106 -22.088   7.917  0.00  0.00    +0.118 HD
ATOM      9  H   LIG    1       23.139 -23.378   7.978  0.00  0.00    +0.118 HD
ENDBRANCH   4   7
BRANCH   6  10
ATOM     10  N   LIG    1       26.932 -20.406   8.978  0.00  0.00    -0.325 NA
ATOM     11  H   LIG    1       27.060 -19.440   9.270  0.00  0.00    +0.118 HD
ATOM     12  H   LIG    1       26.560 -20.915   9.784  0.00  0.00    +0.118 HD
ENDBRANCH   6  10
BRANCH   2  13
ATOM     13  O   LIG    1       25.992 -20.638   4.038  0.00  0.00    -0.387 OA
ATOM     14  H   LIG    1       26.949 -20.724   4.089  0.00  0.00    +0.210 HD
ENDBRANCH   2  13
BRANCH   1  15
ATOM     15  O   LIG    1       27.770 -21.164   6.402  0.00  0.00    -0.342 OA
BRANCH  15  18
ATOM     16  C   LIG    1       30.673 -19.552   7.710  0.00  0.00    +0.138 C 
ATOM     17  O   LIG    1       29.673 -20.552   7.507  0.00  0.00    -0.345 OA
ATOM     18  C   LIG    1       29.022 -20.489   6.217  0.00  0.00    +0.268 C 
ATOM     19  C   LIG    1       29.036 -19.003   5.640  0.00  0.00    +0.107 C 
ATOM     20  C   LIG    1       28.931 -17.959   6.762  0.00  0.00    +0.026 C 
ATOM     21  C   LIG    1       29.982 -18.190   7.854  0.00  0.00    +0.035 C 
BRANCH  19  22
ATOM     22  N   LIG    1       28.142 -18.631   4.534  0.00  0.00    -0.323 NA
ATOM     23  H   LIG    1       27.964 -19.429   3.946  0.00  0.00    +0.119 HD
ATOM     24  H   LIG    1       27.238 -18.362   4.950  0.00  0.00    +0.119 HD
ENDBRANCH  19  22
BRANCH  16  25
ATOM     25  C   LIG    1       31.565 -19.944   8.924  0.00  0.00    +0.079 C 
ATOM     26  C   LIG    1       31.386 -21.417   9.321  0.00  0.00    +0.026 C 
BRANCH  25  28
ATOM     27  C   LIG    1       32.093 -17.835  10.062  0.00  0.00    +0.101 C 
ATOM     28  N   LIG    1       31.396 -19.113  10.133  0.00  0.00    -0.314 NA
ATOM     29  H   LIG    1       30.406 -18.956  10.315  0.00  0.00    +0.122 HD
ENDBRANCH  25  28
ENDBRANCH  16  25
ENDBRANCH  15  18
ENDBRANCH   1  15
BRANCH   3  30
ATOM     30  O   LIG    1       25.334 -23.169   5.462  0.00  0.00    -0.341 OA
BRANCH  30  31
ATOM     31  C   LIG    1       24.747 -24.432   5.875  0.00  0.00    +0.281 C 
ATOM     32  C   LIG    1       25.851 -25.166   6.715  0.00  0.00    +0.190 C 
ATOM     33  C   LIG    1       25.534 -26.653   7.009  0.00  0.00    +0.121 C 
ATOM     34  C   LIG    1       25.019 -27.377   5.729  0.00  0.00    +0.104 C 
ATOM     35  C   LIG    1       26.091 -27.656   4.660  0.00  0.00    +0.045 C 
ATOM     36  C   LIG    1       23.890 -26.527   5.123  0.00  0.00    +0.199 C 
ATOM     37  O   LIG    1       24.344 -25.215   4.749  0.00  0.00    -0.346 OA
BRANCH  33  38
ATOM     38  N   LIG    1       26.660 -27.464   7.570  0.00  0.00    -0.311 NA
ATOM     39  H   LIG    1       27.395 -26.797   7.830  0.00  0.00    +0.122 HD
ATOM     40  C   LIG    1       26.326 -28.170   8.802  0.00  0.00    +0.101 C 
ENDBRANCH  33  38
BRANCH  32  41
ATOM     41  O   LIG    1       27.112 -25.108   6.017  0.00  0.00    -0.385 OA
ATOM     42  H   LIG    1       27.733 -25.608   6.581  0.00  0.00    +0.210 HD
ENDBRANCH  32  41
BRANCH  34  43
ATOM     43  O   LIG    1       24.497 -28.657   6.128  0.00  0.00    -0.385 OA
ATOM     44  H   LIG    1       24.591 -28.668   7.106  0.00  0.00    +0.210 HD
ENDBRANCH  34  43
ENDBRANCH  30  31
ENDBRANCH   3  30
TORSDOF 13
ENDMDL
MODEL 6
REMARK VINA RESULT:      -5.5      3.597      7.936
REMARK  Name = *****
REMARK                            x       y       z     vdW  Elec       q    Type
REMARK                         _______ _______ _______ _____ _____    ______ ____
ROOT
ATOM      1  C   LIG    1       25.607 -28.921  14.432  0.00  0.00    +0.169 C 
ATOM      2  C   LIG    1       25.924 -30.276  13.718  0.00  0.00    +0.175 C 
ATOM      3  C   LIG    1       26.770 -30.187  12.386  0.00  0.00    +0.169 C 
ATOM      4  C   LIG    1       28.065 -29.425  12.785  0.00  0.00    +0.084 C 
ATOM      5  C   LIG    1       27.700 -27.997  13.207  0.00  0.00    +0.042 C 
ATOM      6  C   LIG    1       26.909 -28.044  14.524  0.00  0.00    +0.084 C 
ENDROOT
BRANCH   4   7
ATOM      7  N   LIG    1       29.171 -29.459  11.837  0.00  0.00    -0.325 NA
ATOM      8  H   LIG    1       29.228 -30.352  11.342  0.00  0.00    +0.118 HD
ATOM      9  H   LIG    1       30.058 -29.282  12.292  0.00  0.00    +0.118 HD
ENDBRANCH   4   7
BRANCH   6  10
ATOM     10  N   LIG    1       26.671 -26.676  15.010  0.00  0.00    -0.325 NA
ATOM     11  H   LIG    1       26.548 -26.037  14.228  0.00  0.00    +0.118 HD
ATOM     12  H   LIG    1       25.793 -26.677  15.537  0.00  0.00    +0.118 HD
ENDBRANCH   6  10
BRANCH   2  13
ATOM     13  O   LIG    1       24.764 -31.109  13.580  0.00  0.00    -0.387 OA
ATOM     14  H   LIG    1       24.884 -31.880  14.142  0.00  0.00    +0.210 HD
ENDBRANCH   2  13
BRANCH   1  15
ATOM     15  O   LIG    1       24.538 -28.130  13.891  0.00  0.00    -0.342 OA
BRANCH  15  18
ATOM     16  C   LIG    1       21.131 -29.064  13.390  0.00  0.00    +0.138 C 
ATOM     17  O   LIG    1       22.557 -29.143  13.376  0.00  0.00    -0.345 OA
ATOM     18  C   LIG    1       23.207 -28.334  14.384  0.00  0.00    +0.268 C 
ATOM     19  C   LIG    1       22.312 -27.075  14.774  0.00  0.00    +0.107 C 
ATOM     20  C   LIG    1       21.511 -26.556  13.571  0.00  0.00    +0.026 C 
ATOM     21  C   LIG    1       20.712 -27.675  12.892  0.00  0.00    +0.035 C 
BRANCH  19  22
ATOM     22  N   LIG    1       22.904 -25.942  15.499  0.00  0.00    -0.323 NA
ATOM     23  H   LIG    1       22.184 -25.402  15.950  0.00  0.00    +0.119 HD
ATOM     24  H   LIG    1       23.493 -26.332  16.249  0.00  0.00    +0.119 HD
ENDBRANCH  19  22
BRANCH  16  25
ATOM     25  C   LIG    1       20.534 -30.242  12.565  0.00  0.00    +0.079 C 
ATOM     26  C   LIG    1       21.385 -31.516  12.678  0.00  0.00    +0.026 C 
BRANCH  25  28
ATOM     27  C   LIG    1       19.686 -31.072  10.418  0.00  0.00    +0.101 C 
ATOM     28  N   LIG    1       20.303 -29.963  11.133  0.00  0.00    -0.314 NA
ATOM     29  H   LIG    1       19.734 -29.125  11.027  0.00  0.00    +0.122 HD
ENDBRANCH  25  28
ENDBRANCH  16  25
ENDBRANCH  15  18
ENDBRANCH   1  15
BRANCH   3  30
ATOM     30  O   LIG    1       25.993 -29.597  11.328  0.00  0.00    -0.341 OA
BRANCH  30  31
ATOM     31  C   LIG    1       25.301 -30.469  10.396  0.00  0.00    +0.281 C 
ATOM     32  C   LIG    1       26.293 -30.699   9.202  0.00  0.00    +0.190 C 
ATOM     33  C   LIG    1       25.645 -31.368   7.964  0.00  0.00    +0.121 C 
ATOM     34  C   LIG    1       24.273 -30.710   7.630  0.00  0.00    +0.104 C 
ATOM     35  C   LIG    1       24.357 -29.300   7.017  0.00  0.00    +0.045 C 
ATOM     36  C   LIG    1       23.438 -30.666   8.920  0.00  0.00    +0.199 C 
ATOM     37  O   LIG    1       24.074 -29.889   9.948  0.00  0.00    -0.346 OA
BRANCH  33  38
ATOM     38  N   LIG    1       26.468 -31.369   6.715  0.00  0.00    -0.311 NA
ATOM     39  H   LIG    1       27.191 -30.654   6.845  0.00  0.00    +0.122 HD
ATOM     40  C   LIG    1       27.193 -32.614   6.483  0.00  0.00    +0.101 C 
ENDBRANCH  33  38
BRANCH  32  41
ATOM     41  O   LIG    1       26.853 -29.437   8.785  0.00  0.00    -0.385 OA
ATOM     42  H   LIG    1       26.396 -29.226   7.948  0.00  0.00    +0.210 HD
ENDBRANCH  32  41
BRANCH  34  43
ATOM     43  O   LIG    1       23.613 -31.539   6.657  0.00  0.00    -0.385 OA
ATOM     44  H   LIG    1       22.799 -31.851   7.110  0.00  0.00    +0.210 HD
ENDBRANCH  34  43
ENDBRANCH  30  31
ENDBRANCH   3  30
TORSDOF 13
ENDMDL
MODEL 7
REMARK VINA RESULT:      -5.5      3.889      7.963
REMARK  Name = *****
REMARK                            x       y       z     vdW  Elec       q    Type
REMARK                         _______ _______ _______ _____ _____    ______ ____
ROOT
ATOM      1  C   LIG    1       23.422 -30.284  12.695  0.00  0.00    +0.169 C 
ATOM      2  C   LIG    1       24.358 -31.345  12.028  0.00  0.00    +0.175 C 
ATOM      3  C   LIG    1       25.811 -30.855  11.641  0.00  0.00    +0.169 C 
ATOM      4  C   LIG    1       26.412 -30.302  12.963  0.00  0.00    +0.084 C 
ATOM      5  C   LIG    1       25.607 -29.076  13.408  0.00  0.00    +0.042 C 
ATOM      6  C   LIG    1       24.198 -29.522  13.832  0.00  0.00    +0.084 C 
ENDROOT
BRANCH   4   7
ATOM      7  N   LIG    1       27.849 -30.060  12.986  0.00  0.00    -0.325 NA
ATOM      8  H   LIG    1       28.373 -30.877  13.307  0.00  0.00    +0.118 HD
ATOM      9  H   LIG    1       28.085 -29.271  13.575  0.00  0.00    +0.118 HD
ENDBRANCH   4   7
BRANCH   6  10
ATOM     10  N   LIG    1       23.460 -28.378  14.390  0.00  0.00    -0.325 NA
ATOM     11  H   LIG    1       22.990 -27.863  13.650  0.00  0.00    +0.118 HD
ATOM     12  H   LIG    1       22.732 -28.743  15.010  0.00  0.00    +0.118 HD
ENDBRANCH   6  10
BRANCH   2  13
ATOM     13  O   LIG    1       23.713 -32.054  10.961  0.00  0.00    -0.387 OA
ATOM     14  H   LIG    1       24.080 -32.942  10.931  0.00  0.00    +0.210 HD
ENDBRANCH   2  13
BRANCH   1  15
ATOM     15  O   LIG    1       22.792 -29.329  11.828  0.00  0.00    -0.342 OA
BRANCH  15  18
ATOM     16  C   LIG    1       19.532 -29.509  13.268  0.00  0.00    +0.138 C 
ATOM     17  O   LIG    1       20.869 -29.066  13.033  0.00  0.00    -0.345 OA
ATOM     18  C   LIG    1       21.363 -29.345  11.703  0.00  0.00    +0.268 C 
ATOM     19  C   LIG    1       20.644 -30.623  11.080  0.00  0.00    +0.107 C 
ATOM     20  C   LIG    1       20.304 -31.663  12.159  0.00  0.00    +0.026 C 
ATOM     21  C   LIG    1       19.525 -31.041  13.324  0.00  0.00    +0.035 C 
BRANCH  19  22
ATOM     22  N   LIG    1       21.219 -31.299   9.908  0.00  0.00    -0.323 NA
ATOM     23  H   LIG    1       22.213 -31.142   9.868  0.00  0.00    +0.119 HD
ATOM     24  H   LIG    1       21.086 -32.312  10.043  0.00  0.00    +0.119 HD
ENDBRANCH  19  22
BRANCH  16  25
ATOM     25  C   LIG    1       18.971 -28.823  14.548  0.00  0.00    +0.079 C 
ATOM     26  C   LIG    1       18.298 -29.829  15.495  0.00  0.00    +0.026 C 
BRANCH  25  28
ATOM     27  C   LIG    1       18.695 -26.447  14.001  0.00  0.00    +0.101 C 
ATOM     28  N   LIG    1       18.033 -27.707  14.313  0.00  0.00    -0.314 NA
ATOM     29  H   LIG    1       17.381 -27.948  13.567  0.00  0.00    +0.122 HD
ENDBRANCH  25  28
ENDBRANCH  16  25
ENDBRANCH  15  18
ENDBRANCH   1  15
BRANCH   3  30
ATOM     30  O   LIG    1       25.760 -29.933  10.537  0.00  0.00    -0.341 OA
BRANCH  30  31
ATOM     31  C   LIG    1       26.070 -30.417   9.204  0.00  0.00    +0.281 C 
ATOM     32  C   LIG    1       25.011 -29.761   8.249  0.00  0.00    +0.190 C 
ATOM     33  C   LIG    1       24.984 -30.368   6.825  0.00  0.00    +0.121 C 
ATOM     34  C   LIG    1       25.018 -31.925   6.883  0.00  0.00    +0.104 C 
ATOM     35  C   LIG    1       23.713 -32.589   7.359  0.00  0.00    +0.045 C 
ATOM     36  C   LIG    1       26.178 -32.343   7.801  0.00  0.00    +0.199 C 
ATOM     37  O   LIG    1       26.014 -31.844   9.139  0.00  0.00    -0.346 OA
BRANCH  33  38
ATOM     38  N   LIG    1       23.828 -29.968   5.964  0.00  0.00    -0.311 NA
ATOM     39  H   LIG    1       23.015 -29.898   6.587  0.00  0.00    +0.122 HD
ATOM     40  C   LIG    1       23.967 -28.648   5.360  0.00  0.00    +0.101 C 
ENDBRANCH  33  38
BRANCH  32  41
ATOM     41  O   LIG    1       23.692 -29.898   8.818  0.00  0.00    -0.385 OA
ATOM     42  H   LIG    1       23.263 -30.596   8.287  0.00  0.00    +0.210 HD
ENDBRANCH  32  41
BRANCH  34  43
ATOM     43  O   LIG    1       25.259 -32.409   5.550  0.00  0.00    -0.385 OA
ATOM     44  H   LIG    1       24.645 -33.169   5.448  0.00  0.00    +0.210 HD
ENDBRANCH  34  43
ENDBRANCH  30  31
ENDBRANCH   3  30
TORSDOF 13
ENDMDL
MODEL 8
REMARK VINA RESULT:      -5.5      2.610      3.076
REMARK  Name = *****
REMARK                            x       y       z     vdW  Elec       q    Type
REMARK                         _______ _______ _______ _____ _____    ______ ____
ROOT
ATOM      1  C   LIG    1       25.617 -29.235   6.979  0.00  0.00    +0.169 C 
ATOM      2  C   LIG    1       25.735 -30.014   8.330  0.00  0.00    +0.175 C 
ATOM      3  C   LIG    1       24.475 -30.866   8.763  0.00  0.00    +0.169 C 
ATOM      4  C   LIG    1       24.208 -31.820   7.566  0.00  0.00    +0.084 C 
ATOM      5  C   LIG    1       23.815 -30.990   6.338  0.00  0.00    +0.042 C 
ATOM      6  C   LIG    1       25.032 -30.179   5.865  0.00  0.00    +0.084 C 
ENDROOT
BRANCH   4   7
ATOM      7  N   LIG    1       23.296 -32.933   7.798  0.00  0.00    -0.325 NA
ATOM      8  H   LIG    1       22.550 -32.973   7.099  0.00  0.00    +0.118 HD
ATOM      9  H   LIG    1       22.875 -32.885   8.719  0.00  0.00    +0.118 HD
ENDBRANCH   4   7
BRANCH   6  10
ATOM     10  N   LIG    1       24.709 -29.484   4.609  0.00  0.00    -0.325 NA
ATOM     11  H   LIG    1       23.815 -29.006   4.687  0.00  0.00    +0.118 HD
ATOM     12  H   LIG    1       25.421 -28.765   4.454  0.00  0.00    +0.118 HD
ENDBRANCH   6  10
BRANCH   2  13
ATOM     13  O   LIG    1       26.238 -29.194   9.395  0.00  0.00    -0.387 OA
ATOM     14  H   LIG    1       25.991 -28.283   9.210  0.00  0.00    +0.210 HD
ENDBRANCH   2  13
BRANCH   1  15
ATOM     15  O   LIG    1       24.880 -28.004   6.995  0.00  0.00    -0.342 OA
BRANCH  15  18
ATOM     16  C   LIG    1       24.925 -24.476   6.460  0.00  0.00    +0.138 C 
ATOM     17  O   LIG    1       24.605 -25.737   7.049  0.00  0.00    -0.345 OA
ATOM     18  C   LIG    1       25.589 -26.770   6.814  0.00  0.00    +0.268 C 
ATOM     19  C   LIG    1       26.380 -26.510   5.456  0.00  0.00    +0.107 C 
ATOM     20  C   LIG    1       25.484 -25.852   4.396  0.00  0.00    +0.026 C 
ATOM     21  C   LIG    1       24.789 -24.597   4.937  0.00  0.00    +0.035 C 
BRANCH  19  22
ATOM     22  N   LIG    1       27.164 -27.589   4.838  0.00  0.00    -0.323 NA
ATOM     23  H   LIG    1       26.740 -28.482   5.030  0.00  0.00    +0.119 HD
ATOM     24  H   LIG    1       27.120 -27.454   3.818  0.00  0.00    +0.119 HD
ENDBRANCH  19  22
BRANCH  16  25
ATOM     25  C   LIG    1       24.037 -23.363   7.091  0.00  0.00    +0.079 C 
ATOM     26  C   LIG    1       22.563 -23.497   6.680  0.00  0.00    +0.026 C 
BRANCH  25  28
ATOM     27  C   LIG    1       23.422 -20.989   7.044  0.00  0.00    +0.101 C 
ATOM     28  N   LIG    1       24.470 -21.977   6.825  0.00  0.00    -0.314 NA
ATOM     29  H   LIG    1       25.284 -21.748   7.394  0.00  0.00    +0.122 HD
ENDBRANCH  25  28
ENDBRANCH  16  25
ENDBRANCH  15  18
ENDBRANCH   1  15
BRANCH   3  30
ATOM     30  O   LIG    1       23.384 -30.006   9.139  0.00  0.00    -0.341 OA
BRANCH  30  31
ATOM     31  C   LIG    1       22.508 -30.417  10.222  0.00  0.00    +0.281 C 
ATOM     32  C   LIG    1       22.883 -29.510  11.447  0.00  0.00    +0.190 C 
ATOM     33  C   LIG    1       22.266 -29.978  12.789  0.00  0.00    +0.121 C 
ATOM     34  C   LIG    1       22.427 -31.517  12.970  0.00  0.00    +0.104 C 
ATOM     35  C   LIG    1       23.858 -31.991  13.284  0.00  0.00    +0.045 C 
ATOM     36  C   LIG    1       21.922 -32.203  11.690  0.00  0.00    +0.199 C 
ATOM     37  O   LIG    1       22.673 -31.803  10.531  0.00  0.00    -0.346 OA
BRANCH  33  38
ATOM     38  N   LIG    1       22.798 -29.315  14.020  0.00  0.00    -0.311 NA
ATOM     39  H   LIG    1       23.810 -29.219  13.882  0.00  0.00    +0.122 HD
ATOM     40  C   LIG    1       22.305 -27.957  14.223  0.00  0.00    +0.101 C 
ENDBRANCH  33  38
BRANCH  32  41
ATOM     41  O   LIG    1       24.317 -29.473  11.604  0.00  0.00    -0.385 OA
ATOM     42  H   LIG    1       24.473 -29.743  12.530  0.00  0.00    +0.210 HD
ENDBRANCH  32  41
BRANCH  34  43
ATOM     43  O   LIG    1       21.611 -31.917  14.085  0.00  0.00    -0.385 OA
ATOM     44  H   LIG    1       20.787 -31.391  13.988  0.00  0.00    +0.210 HD
ENDBRANCH  34  43
ENDBRANCH  30  31
ENDBRANCH   3  30
TORSDOF 13
ENDMDL
MODEL 9
REMARK VINA RESULT:      -5.4      2.134      3.064
REMARK  Name = *****
REMARK                            x       y       z     vdW  Elec       q    Type
REMARK                         _______ _______ _______ _____ _____    ______ ____
ROOT
ATOM      1  C   LIG    1       25.689 -29.398   7.467  0.00  0.00    +0.169 C 
ATOM      2  C   LIG    1       26.297 -30.041   8.756  0.00  0.00    +0.175 C 
ATOM      3  C   LIG    1       25.270 -30.474   9.877  0.00  0.00    +0.169 C 
ATOM      4  C   LIG    1       24.279 -31.435   9.161  0.00  0.00    +0.084 C 
ATOM      5  C   LIG    1       23.506 -30.657   8.091  0.00  0.00    +0.042 C 
ATOM      6  C   LIG    1       24.470 -30.254   6.962  0.00  0.00    +0.084 C 
ENDROOT
BRANCH   4   7
ATOM      7  N   LIG    1       23.402 -32.232  10.010  0.00  0.00    -0.325 NA
ATOM      8  H   LIG    1       23.562 -33.236   9.896  0.00  0.00    +0.118 HD
ATOM      9  H   LIG    1       22.425 -32.037   9.825  0.00  0.00    +0.118 HD
ENDBRANCH   4   7
BRANCH   6  10
ATOM     10  N   LIG    1       23.717 -29.627   5.866  0.00  0.00    -0.325 NA
ATOM     11  H   LIG    1       23.757 -30.204   5.029  0.00  0.00    +0.118 HD
ATOM     12  H   LIG    1       22.734 -29.576   6.147  0.00  0.00    +0.118 HD
ENDBRANCH   6  10
BRANCH   2  13
ATOM     13  O   LIG    1       27.399 -29.286   9.280  0.00  0.00    -0.387 OA
ATOM     14  H   LIG    1       27.185 -29.041  10.186  0.00  0.00    +0.210 HD
ENDBRANCH   2  13
BRANCH   1  15
ATOM     15  O   LIG    1       25.301 -28.018   7.543  0.00  0.00    -0.342 OA
BRANCH  15  18
ATOM     16  C   LIG    1       25.912 -24.660   6.500  0.00  0.00    +0.138 C 
ATOM     17  O   LIG    1       25.598 -25.761   7.355  0.00  0.00    -0.345 OA
ATOM     18  C   LIG    1       26.124 -27.031   6.906  0.00  0.00    +0.268 C 
ATOM     19  C   LIG    1       26.295 -27.054   5.322  0.00  0.00    +0.107 C 
ATOM     20  C   LIG    1       25.207 -26.225   4.624  0.00  0.00    +0.026 C 
ATOM     21  C   LIG    1       25.115 -24.807   5.199  0.00  0.00    +0.035 C 
BRANCH  19  22
ATOM     22  N   LIG    1       26.472 -28.331   4.616  0.00  0.00    -0.323 NA
ATOM     23  H   LIG    1       26.056 -29.081   5.142  0.00  0.00    +0.119 HD
ATOM     24  H   LIG    1       25.949 -28.265   3.730  0.00  0.00    +0.119 HD
ENDBRANCH  19  22
BRANCH  16  25
ATOM     25  C   LIG    1       25.657 -23.323   7.255  0.00  0.00    +0.079 C 
ATOM     26  C   LIG    1       24.237 -22.785   7.017  0.00  0.00    +0.026 C 
BRANCH  25  28
ATOM     27  C   LIG    1       26.010 -21.073   6.342  0.00  0.00    +0.101 C 
ATOM     28  N   LIG    1       26.618 -22.238   6.971  0.00  0.00    -0.314 NA
ATOM     29  H   LIG    1       27.095 -21.959   7.827  0.00  0.00    +0.122 HD
ENDBRANCH  25  28
ENDBRANCH  16  25
ENDBRANCH  15  18
ENDBRANCH   1  15
BRANCH   3  30
ATOM     30  O   LIG    1       24.684 -29.319  10.504  0.00  0.00    -0.341 OA
BRANCH  30  31
ATOM     31  C   LIG    1       24.447 -29.344  11.937  0.00  0.00    +0.281 C 
ATOM     32  C   LIG    1       23.056 -30.046  12.132  0.00  0.00    +0.190 C 
ATOM     33  C   LIG    1       22.482 -29.919  13.564  0.00  0.00    +0.121 C 
ATOM     34  C   LIG    1       22.620 -28.459  14.093  0.00  0.00    +0.104 C 
ATOM     35  C   LIG    1       21.662 -27.439  13.451  0.00  0.00    +0.045 C 
ATOM     36  C   LIG    1       24.075 -28.011  13.879  0.00  0.00    +0.199 C 
ATOM     37  O   LIG    1       24.446 -28.026  12.490  0.00  0.00    -0.346 OA
BRANCH  33  38
ATOM     38  N   LIG    1       21.055 -30.334  13.737  0.00  0.00    -0.311 NA
ATOM     39  H   LIG    1       20.514 -29.800  13.048  0.00  0.00    +0.122 HD
ATOM     40  C   LIG    1       20.803 -31.736  13.424  0.00  0.00    +0.101 C 
ENDBRANCH  33  38
BRANCH  32  41
ATOM     41  O   LIG    1       22.095 -29.485  11.214  0.00  0.00    -0.385 OA
ATOM     42  H   LIG    1       21.309 -29.296  11.761  0.00  0.00    +0.210 HD
ENDBRANCH  32  41
BRANCH  34  43
ATOM     43  O   LIG    1       22.321 -28.471  15.500  0.00  0.00    -0.385 OA
ATOM     44  H   LIG    1       23.195 -28.382  15.938  0.00  0.00    +0.210 HD
ENDBRANCH  34  43
ENDBRANCH  30  31
ENDBRANCH   3  30
TORSDOF 13
ENDMDL
