MODEL 1
REMARK VINA RESULT:      39.4      0.000      0.000
REMARK  Name = *****
REMARK                            x       y       z     vdW  Elec       q    Type
REMARK                         _______ _______ _______ _____ _____    ______ ____
ROOT
ATOM      1  C   LIG    1       27.547 -13.123   6.270  0.00  0.00    +0.167 C 
ATOM      2  N   LIG    1       26.392 -13.543   5.478  0.00  0.00    -0.233 N 
ATOM      3  C   LIG    1       26.462 -13.850   4.080  0.00  0.00    +0.269 C 
ATOM      4  O   LIG    1       25.354 -13.190   3.474  0.00  0.00    -0.298 OA
ATOM      5  C   LIG    1       24.299 -13.066   4.476  0.00  0.00    +0.220 C 
ATOM      6  C   LIG    1       27.842 -13.509   3.462  0.00  0.00    +0.156 C 
ATOM      7  N   LIG    1       28.536 -12.401   4.099  0.00  0.00    -0.290 N 
ATOM      8  C   LIG    1       29.473 -11.763   3.185  0.00  0.00    +0.108 C 
ATOM      9  C   LIG    1       29.331 -12.558   1.886  0.00  0.00    +0.021 C 
ATOM     10  C   LIG    1       27.919 -13.148   1.978  0.00  0.00    +0.031 C 
ATOM     11  C   LIG    1       25.176 -12.928   5.724  0.00  0.00    +0.271 C 
ATOM     12  O   LIG    1       24.890 -12.371   6.781  0.00  0.00    -0.270 OA
ATOM     13  C   LIG    1       28.569 -12.256   5.470  0.00  0.00    +0.237 C 
ATOM     14  O   LIG    1       29.407 -11.551   6.029  0.00  0.00    -0.274 OA
ENDROOT
BRANCH   5  15
ATOM     15  N   LIG    1       23.562 -14.325   4.439  0.00  0.00    -0.280 N 
ATOM     16  H   LIG    1       23.722 -14.886   3.613  0.00  0.00    +0.152 HD
ATOM     17  C   LIG    1       22.416 -14.525   5.174  0.00  0.00    +0.220 C 
ATOM     18  O   LIG    1       21.980 -13.672   5.941  0.00  0.00    -0.275 OA
BRANCH  17  19
ATOM     19  C   LIG    1       21.810 -15.925   5.161  0.00  0.00    +0.090 C 
ATOM     20  C   LIG    1       21.119 -16.139   3.797  0.00  0.00    +0.097 C 
ATOM     21  N   LIG    1       20.503 -17.467   3.678  0.00  0.00    -0.301 NA
ATOM     22  C   LIG    1       19.743 -17.586   2.436  0.00  0.00    +0.105 C 
ATOM     23  C   LIG    1       21.476 -18.565   3.869  0.00  0.00    +0.068 C 
ATOM     24  C   LIG    1       22.117 -18.420   5.308  0.00  0.00    +0.038 C 
ATOM     25  C   LIG    1       23.118 -19.520   5.572  0.00  0.00    -0.033 C 
ATOM     26  C   LIG    1       23.757 -20.083   4.464  0.00  0.00    +0.006 C 
ATOM     27  C   LIG    1       24.710 -21.073   4.585  0.00  0.00    +0.047 C 
ATOM     28  N   LIG    1       25.099 -21.373   3.298  0.00  0.00    -0.360 NA
ATOM     29  H   LIG    1       25.790 -22.069   3.054  0.00  0.00    +0.165 HD
ATOM     30  C   LIG    1       24.408 -20.592   2.390  0.00  0.00    +0.087 C 
ATOM     31  C   LIG    1       25.088 -21.564   5.836  0.00  0.00    +0.026 C 
ATOM     32  C   LIG    1       24.454 -20.999   6.958  0.00  0.00    +0.002 C 
ATOM     33  C   LIG    1       23.554 -19.782   3.102  0.00  0.00    -0.021 C 
ATOM     34  C   LIG    1       23.489 -19.991   6.835  0.00  0.00    +0.005 C 
ATOM     35  C   LIG    1       22.548 -18.745   2.718  0.00  0.00    +0.056 C 
ATOM     36  C   LIG    1       22.793 -17.050   5.470  0.00  0.00    +0.023 C 
ENDBRANCH  17  19
ENDBRANCH   5  15
BRANCH   5  37
ATOM     37  C   LIG    1       23.485 -11.783   4.179  0.00  0.00    +0.043 C 
ATOM     38  C   LIG    1       22.885 -11.769   2.769  0.00  0.00    +0.012 C 
ATOM     39  C   LIG    1       22.380 -11.487   5.193  0.00  0.00    +0.012 C 
ENDBRANCH   5  37
BRANCH   3  40
ATOM     40  O   LIG    1       26.276 -15.247   3.939  0.00  0.00    -0.348 OA
ATOM     41  H   LIG    1       25.312 -15.354   3.917  0.00  0.00    +0.214 HD
ENDBRANCH   3  40
BRANCH   1  42
ATOM     42  C   LIG    1       28.241 -14.287   6.995  0.00  0.00    +0.035 C 
BRANCH  42  44
ATOM     43  C   LIG    1       28.882 -15.547   4.911  0.00  0.00    +0.007 C 
ATOM     44  C   LIG    1       28.209 -15.664   6.283  0.00  0.00    -0.015 C 
ATOM     45  C   LIG    1       28.898 -16.796   7.054  0.00  0.00    +0.007 C 
ENDBRANCH  42  44
ENDBRANCH   1  42
TORSDOF 6
ENDMDL
