MODEL 1
REMARK VINA RESULT:       9.2      0.000      0.000
REMARK  Name = *****
REMARK                            x       y       z     vdW  Elec       q    Type
REMARK                         _______ _______ _______ _____ _____    ______ ____
ROOT
ATOM      1  C   LIG    1       26.632 -14.072   5.220  0.00  0.00    +0.014 C 
ATOM      2  C   LIG    1       25.382 -14.278   4.363  0.00  0.00    -0.000 C 
ATOM      3  C   LIG    1       24.847 -12.835   3.864  0.00  0.00    +0.069 C 
ATOM      4  C   LIG    1       25.172 -11.611   4.704  0.00  0.00    +0.042 C 
ATOM      5  C   LIG    1       23.479 -13.228   3.364  0.00  0.00    +0.035 C 
ATOM      6  C   LIG    1       23.879 -14.528   2.547  0.00  0.00    +0.007 C 
ATOM      7  C   LIG    1       25.412 -14.900   2.980  0.00  0.00    +0.001 C 
ATOM      8  C   LIG    1       25.944 -16.336   2.903  0.00  0.00    -0.004 C 
ATOM      9  C   LIG    1       27.249 -16.701   3.686  0.00  0.00    +0.004 C 
ATOM     10  C   LIG    1       27.081 -17.762   4.814  0.00  0.00    +0.005 C 
ATOM     11  C   LIG    1       26.446 -19.088   4.302  0.00  0.00    +0.001 C 
ATOM     12  C   LIG    1       25.393 -18.781   3.157  0.00  0.00    -0.022 C 
ATOM     13  C   LIG    1       26.156 -19.054   1.812  0.00  0.00    +0.012 C 
ATOM     14  C   LIG    1       24.170 -19.730   3.095  0.00  0.00    +0.045 C 
ATOM     15  C   LIG    1       23.663 -19.964   4.452  0.00  0.00    -0.006 A 
ATOM     16  C   LIG    1       24.512 -20.198   5.478  0.00  0.00    +0.040 A 
ATOM     17  N   LIG    1       23.721 -20.534   6.555  0.00  0.00    -0.281 N 
ATOM     18  H   LIG    1       23.971 -20.928   7.430  0.00  0.00    +0.189 HD
ATOM     19  N   LIG    1       22.423 -20.216   6.320  0.00  0.00    -0.182 NA
ATOM     20  C   LIG    1       22.394 -19.839   5.040  0.00  0.00    +0.138 A 
ATOM     21  C   LIG    1       25.993 -20.087   5.433  0.00  0.00    +0.059 C 
ATOM     22  C   LIG    1       24.848 -17.289   3.269  0.00  0.00    -0.001 C 
ATOM     23  C   LIG    1       24.182 -16.789   4.612  0.00  0.00    +0.005 C 
ATOM     24  C   LIG    1       24.437 -15.302   5.178  0.00  0.00    +0.010 C 
ENDROOT
BRANCH   3  25
ATOM     25  O   LIG    1       25.505 -12.383   2.623  0.00  0.00    -0.388 OA
ATOM     26  H   LIG    1       25.574 -11.411   2.662  0.00  0.00    +0.210 HD
ENDBRANCH   3  25
TORSDOF 1
ENDMDL
MODEL 2
REMARK VINA RESULT:      11.7      3.380      6.281
REMARK  Name = *****
REMARK                            x       y       z     vdW  Elec       q    Type
REMARK                         _______ _______ _______ _____ _____    ______ ____
ROOT
ATOM      1  C   LIG    1       23.098 -18.807   6.309  0.00  0.00    +0.014 C 
ATOM      2  C   LIG    1       23.660 -18.946   4.894  0.00  0.00    -0.000 C 
ATOM      3  C   LIG    1       23.489 -20.481   4.412  0.00  0.00    +0.069 C 
ATOM      4  C   LIG    1       23.431 -21.571   5.469  0.00  0.00    +0.042 C 
ATOM      5  C   LIG    1       24.388 -20.470   3.199  0.00  0.00    +0.035 C 
ATOM      6  C   LIG    1       23.897 -19.113   2.540  0.00  0.00    +0.007 C 
ATOM      7  C   LIG    1       22.998 -18.343   3.670  0.00  0.00    +0.001 C 
ATOM      8  C   LIG    1       22.847 -16.817   3.674  0.00  0.00    -0.004 C 
ATOM      9  C   LIG    1       22.326 -16.113   4.971  0.00  0.00    +0.004 C 
ATOM     10  C   LIG    1       23.326 -15.133   5.653  0.00  0.00    +0.005 C 
ATOM     11  C   LIG    1       23.838 -14.028   4.684  0.00  0.00    +0.001 C 
ATOM     12  C   LIG    1       23.969 -14.608   3.215  0.00  0.00    -0.022 C 
ATOM     13  C   LIG    1       22.665 -14.143   2.471  0.00  0.00    +0.012 C 
ATOM     14  C   LIG    1       25.119 -14.021   2.358  0.00  0.00    +0.045 C 
ATOM     15  C   LIG    1       26.337 -13.929   3.172  0.00  0.00    -0.006 A 
ATOM     16  C   LIG    1       26.286 -13.474   4.445  0.00  0.00    +0.040 A 
ATOM     17  N   LIG    1       27.595 -13.358   4.859  0.00  0.00    -0.281 N 
ATOM     18  H   LIG    1       27.973 -12.910   5.658  0.00  0.00    +0.189 HD
ATOM     19  N   LIG    1       28.429 -14.014   4.011  0.00  0.00    -0.182 NA
ATOM     20  C   LIG    1       27.652 -14.388   2.994  0.00  0.00    +0.138 A 
ATOM     21  C   LIG    1       25.054 -13.183   5.223  0.00  0.00    +0.059 C 
ATOM     22  C   LIG    1       24.138 -16.192   3.240  0.00  0.00    -0.001 C 
ATOM     23  C   LIG    1       25.311 -16.848   4.069  0.00  0.00    +0.005 C 
ATOM     24  C   LIG    1       25.097 -18.210   4.902  0.00  0.00    +0.010 C 
ENDROOT
BRANCH   3  25
ATOM     25  O   LIG    1       22.169 -20.743   3.808  0.00  0.00    -0.388 OA
ATOM     26  H   LIG    1       22.306 -21.326   3.039  0.00  0.00    +0.210 HD
ENDBRANCH   3  25
TORSDOF 1
ENDMDL
