MODEL 1
REMARK VINA RESULT:      -8.0      0.000      0.000
REMARK  Name = *****
REMARK                            x       y       z     vdW  Elec       q    Type
REMARK                         _______ _______ _______ _____ _____    ______ ____
ROOT
ATOM      1  C   LIG    1       26.626 -20.889   7.646  0.00  0.00    +0.195 C 
ENDROOT
BRANCH   1   2
ATOM      2  C   LIG    1       25.593 -21.984   7.343  0.00  0.00    -0.015 A 
ATOM      3  C   LIG    1       24.206 -21.892   6.981  0.00  0.00    -0.038 A 
ATOM      4  C   LIG    1       23.520 -23.098   6.648  0.00  0.00    +0.053 A 
ATOM      5  C   LIG    1       24.155 -24.298   6.600  0.00  0.00    +0.167 A 
ATOM      6  O   LIG    1       23.620 -25.494   6.245  0.00  0.00    -0.453 OA
ATOM      7  C   LIG    1       24.783 -26.347   6.305  0.00  0.00    +0.466 C 
ATOM      8  O   LIG    1       25.972 -25.652   6.748  0.00  0.00    -0.453 OA
ATOM      9  C   LIG    1       25.503 -24.390   6.896  0.00  0.00    +0.167 A 
ATOM     10  C   LIG    1       26.203 -23.276   7.263  0.00  0.00    +0.055 A 
BRANCH   3  11
ATOM     11  C   LIG    1       23.373 -20.639   6.790  0.00  0.00    +0.035 C 
BRANCH  11  12
ATOM     12  C   LIG    1       22.605 -20.453   5.485  0.00  0.00    +0.001 C 
ATOM     13  C   LIG    1       22.514 -19.050   4.946  0.00  0.00    +0.004 C 
ENDBRANCH  11  12
ENDBRANCH   3  11
ENDBRANCH   1   2
BRANCH   1  14
ATOM     14  O   LIG    1       27.848 -21.106   8.360  0.00  0.00    -0.373 OA
BRANCH  14  15
ATOM     15  C   LIG    1       28.960 -20.887   7.477  0.00  0.00    +0.188 C 
BRANCH  15  16
ATOM     16  C   LIG    1       29.105 -19.555   6.719  0.00  0.00    +0.188 C 
BRANCH  16  17
ATOM     17  O   LIG    1       30.435 -19.050   6.613  0.00  0.00    -0.375 OA
BRANCH  17  18
ATOM     18  C   LIG    1       31.251 -19.449   7.730  0.00  0.00    +0.188 C 
BRANCH  18  19
ATOM     19  C   LIG    1       31.363 -18.374   8.828  0.00  0.00    +0.188 C 
BRANCH  19  20
ATOM     20  O   LIG    1       30.716 -18.723  10.054  0.00  0.00    -0.378 OA
BRANCH  20  21
ATOM     21  C   LIG    1       30.243 -17.622  10.827  0.00  0.00    +0.160 C 
BRANCH  21  22
ATOM     22  C   LIG    1       31.335 -16.583  11.080  0.00  0.00    +0.028 C 
BRANCH  22  24
ATOM     23  C   LIG    1       32.273 -15.806  13.284  0.00  0.00    +0.004 C 
ATOM     24  C   LIG    1       32.200 -16.947  12.278  0.00  0.00    -0.001 C 
ENDBRANCH  22  24
ENDBRANCH  21  22
ENDBRANCH  20  21
ENDBRANCH  19  20
ENDBRANCH  18  19
ENDBRANCH  17  18
ENDBRANCH  16  17
ENDBRANCH  15  16
ENDBRANCH  14  15
ENDBRANCH   1  14
TORSDOF 13
ENDMDL
MODEL 2
REMARK VINA RESULT:      -7.4      2.856      8.466
REMARK  Name = *****
REMARK                            x       y       z     vdW  Elec       q    Type
REMARK                         _______ _______ _______ _____ _____    ______ ____
ROOT
ATOM      1  C   LIG    1       23.532 -20.888   7.292  0.00  0.00    +0.195 C 
ENDROOT
BRANCH   1   2
ATOM      2  C   LIG    1       24.949 -20.690   6.735  0.00  0.00    -0.015 A 
ATOM      3  C   LIG    1       25.407 -20.454   5.394  0.00  0.00    -0.038 A 
ATOM      4  C   LIG    1       26.796 -20.196   5.198  0.00  0.00    +0.053 A 
ATOM      5  C   LIG    1       27.666 -20.105   6.236  0.00  0.00    +0.167 A 
ATOM      6  O   LIG    1       28.990 -19.812   6.174  0.00  0.00    -0.453 OA
ATOM      7  C   LIG    1       29.334 -19.777   7.575  0.00  0.00    +0.466 C 
ATOM      8  O   LIG    1       28.221 -20.104   8.439  0.00  0.00    -0.453 OA
ATOM      9  C   LIG    1       27.227 -20.280   7.536  0.00  0.00    +0.167 A 
ATOM     10  C   LIG    1       25.915 -20.570   7.784  0.00  0.00    +0.055 A 
BRANCH   3  11
ATOM     11  C   LIG    1       24.574 -20.324   4.134  0.00  0.00    +0.035 C 
BRANCH  11  12
ATOM     12  C   LIG    1       23.871 -19.002   3.844  0.00  0.00    +0.001 C 
ATOM     13  C   LIG    1       22.504 -18.814   4.449  0.00  0.00    +0.004 C 
ENDBRANCH  11  12
ENDBRANCH   3  11
ENDBRANCH   1   2
BRANCH   1  14
ATOM     14  O   LIG    1       23.021 -22.133   7.779  0.00  0.00    -0.373 OA
BRANCH  14  15
ATOM     15  C   LIG    1       22.929 -23.069   6.693  0.00  0.00    +0.188 C 
BRANCH  15  16
ATOM     16  C   LIG    1       23.849 -24.303   6.646  0.00  0.00    +0.188 C 
BRANCH  16  17
ATOM     17  O   LIG    1       24.883 -24.262   5.664  0.00  0.00    -0.375 OA
BRANCH  17  18
ATOM     18  C   LIG    1       24.958 -25.487   4.912  0.00  0.00    +0.188 C 
BRANCH  18  19
ATOM     19  C   LIG    1       26.082 -26.430   5.380  0.00  0.00    +0.188 C 
BRANCH  19  20
ATOM     20  O   LIG    1       25.615 -27.600   6.056  0.00  0.00    -0.378 OA
BRANCH  20  21
ATOM     21  C   LIG    1       24.909 -28.534   5.241  0.00  0.00    +0.160 C 
BRANCH  21  22
ATOM     22  C   LIG    1       24.231 -29.626   6.067  0.00  0.00    +0.028 C 
BRANCH  22  24
ATOM     23  C   LIG    1       25.220 -30.590   8.173  0.00  0.00    +0.004 C 
ATOM     24  C   LIG    1       24.449 -29.428   7.561  0.00  0.00    -0.001 C 
ENDBRANCH  22  24
ENDBRANCH  21  22
ENDBRANCH  20  21
ENDBRANCH  19  20
ENDBRANCH  18  19
ENDBRANCH  17  18
ENDBRANCH  16  17
ENDBRANCH  15  16
ENDBRANCH  14  15
ENDBRANCH   1  14
TORSDOF 13
ENDMDL
MODEL 3
REMARK VINA RESULT:      -7.0      2.985      8.285
REMARK  Name = *****
REMARK                            x       y       z     vdW  Elec       q    Type
REMARK                         _______ _______ _______ _____ _____    ______ ____
ROOT
ATOM      1  C   LIG    1       23.463 -22.660   7.183  0.00  0.00    +0.195 C 
ENDROOT
BRANCH   1   2
ATOM      2  C   LIG    1       24.683 -21.860   6.707  0.00  0.00    -0.015 A 
ATOM      3  C   LIG    1       24.839 -20.954   5.602  0.00  0.00    -0.038 A 
ATOM      4  C   LIG    1       26.081 -20.264   5.474  0.00  0.00    +0.053 A 
ATOM      5  C   LIG    1       27.074 -20.391   6.391  0.00  0.00    +0.167 A 
ATOM      6  O   LIG    1       28.269 -19.747   6.401  0.00  0.00    -0.453 OA
ATOM      7  C   LIG    1       28.832 -20.222   7.641  0.00  0.00    +0.466 C 
ATOM      8  O   LIG    1       27.986 -21.183   8.315  0.00  0.00    -0.453 OA
ATOM      9  C   LIG    1       26.915 -21.220   7.486  0.00  0.00    +0.167 A 
ATOM     10  C   LIG    1       25.764 -21.939   7.641  0.00  0.00    +0.055 A 
BRANCH   3  11
ATOM     11  C   LIG    1       23.794 -20.532   4.589  0.00  0.00    +0.035 C 
BRANCH  11  12
ATOM     12  C   LIG    1       22.545 -19.801   5.073  0.00  0.00    +0.001 C 
ATOM     13  C   LIG    1       22.247 -18.471   4.431  0.00  0.00    +0.004 C 
ENDBRANCH  11  12
ENDBRANCH   3  11
ENDBRANCH   1   2
BRANCH   1  14
ATOM     14  O   LIG    1       23.121 -23.969   6.715  0.00  0.00    -0.373 OA
BRANCH  14  15
ATOM     15  C   LIG    1       24.319 -24.671   6.347  0.00  0.00    +0.188 C 
BRANCH  15  16
ATOM     16  C   LIG    1       24.261 -26.156   5.942  0.00  0.00    +0.188 C 
BRANCH  16  17
ATOM     17  O   LIG    1       25.517 -26.759   5.638  0.00  0.00    -0.375 OA
BRANCH  17  18
ATOM     18  C   LIG    1       25.395 -28.179   5.433  0.00  0.00    +0.188 C 
BRANCH  18  19
ATOM     19  C   LIG    1       24.010 -28.740   5.806  0.00  0.00    +0.188 C 
BRANCH  19  20
ATOM     20  O   LIG    1       23.954 -29.340   7.102  0.00  0.00    -0.378 OA
BRANCH  20  21
ATOM     21  C   LIG    1       25.200 -29.816   7.607  0.00  0.00    +0.160 C 
BRANCH  21  22
ATOM     22  C   LIG    1       25.393 -29.479   9.084  0.00  0.00    +0.028 C 
BRANCH  22  24
ATOM     23  C   LIG    1       26.757 -28.212  10.780  0.00  0.00    +0.004 C 
ATOM     24  C   LIG    1       26.592 -28.569   9.308  0.00  0.00    -0.001 C 
ENDBRANCH  22  24
ENDBRANCH  21  22
ENDBRANCH  20  21
ENDBRANCH  19  20
ENDBRANCH  18  19
ENDBRANCH  17  18
ENDBRANCH  16  17
ENDBRANCH  15  16
ENDBRANCH  14  15
ENDBRANCH   1  14
TORSDOF 13
ENDMDL
MODEL 4
REMARK VINA RESULT:      -6.9      2.345      8.223
REMARK  Name = *****
REMARK                            x       y       z     vdW  Elec       q    Type
REMARK                         _______ _______ _______ _____ _____    ______ ____
ROOT
ATOM      1  C   LIG    1       27.752 -19.628   5.291  0.00  0.00    +0.195 C 
ENDROOT
BRANCH   1   2
ATOM      2  C   LIG    1       28.600 -19.737   6.566  0.00  0.00    -0.015 A 
ATOM      3  C   LIG    1       28.659 -20.765   7.569  0.00  0.00    -0.038 A 
ATOM      4  C   LIG    1       29.640 -20.639   8.597  0.00  0.00    +0.053 A 
ATOM      5  C   LIG    1       30.544 -19.626   8.610  0.00  0.00    +0.167 A 
ATOM      6  O   LIG    1       31.551 -19.437   9.501  0.00  0.00    -0.453 OA
ATOM      7  C   LIG    1       32.199 -18.273   8.947  0.00  0.00    +0.466 C 
ATOM      8  O   LIG    1       31.533 -17.761   7.769  0.00  0.00    -0.453 OA
ATOM      9  C   LIG    1       30.530 -18.660   7.620  0.00  0.00    +0.167 A 
ATOM     10  C   LIG    1       29.588 -18.704   6.633  0.00  0.00    +0.055 A 
BRANCH   3  11
ATOM     11  C   LIG    1       27.875 -22.060   7.623  0.00  0.00    +0.035 C 
BRANCH  11  12
ATOM     12  C   LIG    1       26.450 -22.041   8.168  0.00  0.00    +0.001 C 
ATOM     13  C   LIG    1       25.945 -20.724   8.698  0.00  0.00    +0.004 C 
ENDBRANCH  11  12
ENDBRANCH   3  11
ENDBRANCH   1   2
BRANCH   1  14
ATOM     14  O   LIG    1       26.430 -20.159   5.152  0.00  0.00    -0.373 OA
BRANCH  14  15
ATOM     15  C   LIG    1       25.747 -19.467   4.094  0.00  0.00    +0.188 C 
BRANCH  15  16
ATOM     16  C   LIG    1       24.304 -19.848   3.716  0.00  0.00    +0.188 C 
BRANCH  16  17
ATOM     17  O   LIG    1       23.295 -18.937   4.147  0.00  0.00    -0.375 OA
BRANCH  17  18
ATOM     18  C   LIG    1       22.425 -19.526   5.132  0.00  0.00    +0.188 C 
BRANCH  18  19
ATOM     19  C   LIG    1       22.238 -21.045   4.961  0.00  0.00    +0.188 C 
BRANCH  19  20
ATOM     20  O   LIG    1       22.488 -21.800   6.148  0.00  0.00    -0.378 OA
BRANCH  20  21
ATOM     21  C   LIG    1       23.785 -22.388   6.234  0.00  0.00    +0.160 C 
BRANCH  21  22
ATOM     22  C   LIG    1       23.728 -23.860   6.638  0.00  0.00    +0.028 C 
BRANCH  22  24
ATOM     23  C   LIG    1       25.598 -25.543   6.731  0.00  0.00    +0.004 C 
ATOM     24  C   LIG    1       24.696 -24.711   5.829  0.00  0.00    -0.001 C 
ENDBRANCH  22  24
ENDBRANCH  21  22
ENDBRANCH  20  21
ENDBRANCH  19  20
ENDBRANCH  18  19
ENDBRANCH  17  18
ENDBRANCH  16  17
ENDBRANCH  15  16
ENDBRANCH  14  15
ENDBRANCH   1  14
TORSDOF 13
ENDMDL
MODEL 5
REMARK VINA RESULT:      -6.8      3.059      9.663
REMARK  Name = *****
REMARK                            x       y       z     vdW  Elec       q    Type
REMARK                         _______ _______ _______ _____ _____    ______ ____
ROOT
ATOM      1  C   LIG    1       23.388 -22.841   7.189  0.00  0.00    +0.195 C 
ENDROOT
BRANCH   1   2
ATOM      2  C   LIG    1       24.606 -22.023   6.734  0.00  0.00    -0.015 A 
ATOM      3  C   LIG    1       24.758 -21.088   5.654  0.00  0.00    -0.038 A 
ATOM      4  C   LIG    1       25.998 -20.390   5.544  0.00  0.00    +0.053 A 
ATOM      5  C   LIG    1       26.991 -20.537   6.459  0.00  0.00    +0.167 A 
ATOM      6  O   LIG    1       28.183 -19.888   6.486  0.00  0.00    -0.453 OA
ATOM      7  C   LIG    1       28.747 -20.394   7.714  0.00  0.00    +0.466 C 
ATOM      8  O   LIG    1       27.904 -21.375   8.362  0.00  0.00    -0.453 OA
ATOM      9  C   LIG    1       26.835 -21.395   7.532  0.00  0.00    +0.167 A 
ATOM     10  C   LIG    1       25.686 -22.123   7.667  0.00  0.00    +0.055 A 
BRANCH   3  11
ATOM     11  C   LIG    1       23.712 -20.644   4.651  0.00  0.00    +0.035 C 
BRANCH  11  12
ATOM     12  C   LIG    1       22.512 -19.839   5.140  0.00  0.00    +0.001 C 
ATOM     13  C   LIG    1       22.287 -18.497   4.494  0.00  0.00    +0.004 C 
ENDBRANCH  11  12
ENDBRANCH   3  11
ENDBRANCH   1   2
BRANCH   1  14
ATOM     14  O   LIG    1       22.977 -24.076   6.594  0.00  0.00    -0.373 OA
BRANCH  14  15
ATOM     15  C   LIG    1       24.084 -24.991   6.582  0.00  0.00    +0.188 C 
BRANCH  15  16
ATOM     16  C   LIG    1       24.328 -25.905   5.366  0.00  0.00    +0.188 C 
BRANCH  16  17
ATOM     17  O   LIG    1       25.082 -27.087   5.629  0.00  0.00    -0.375 OA
BRANCH  17  18
ATOM     18  C   LIG    1       24.334 -28.280   5.327  0.00  0.00    +0.188 C 
BRANCH  18  19
ATOM     19  C   LIG    1       24.342 -29.318   6.464  0.00  0.00    +0.188 C 
BRANCH  19  20
ATOM     20  O   LIG    1       23.584 -30.497   6.183  0.00  0.00    -0.378 OA
BRANCH  20  21
ATOM     21  C   LIG    1       24.252 -31.728   6.451  0.00  0.00    +0.160 C 
BRANCH  21  22
ATOM     22  C   LIG    1       25.681 -31.740   5.912  0.00  0.00    +0.028 C 
BRANCH  22  24
ATOM     23  C   LIG    1       26.830 -33.152   4.173  0.00  0.00    +0.004 C 
ATOM     24  C   LIG    1       25.732 -32.131   4.442  0.00  0.00    -0.001 C 
ENDBRANCH  22  24
ENDBRANCH  21  22
ENDBRANCH  20  21
ENDBRANCH  19  20
ENDBRANCH  18  19
ENDBRANCH  17  18
ENDBRANCH  16  17
ENDBRANCH  15  16
ENDBRANCH  14  15
ENDBRANCH   1  14
TORSDOF 13
ENDMDL
MODEL 6
REMARK VINA RESULT:      -6.8      2.701      8.977
REMARK  Name = *****
REMARK                            x       y       z     vdW  Elec       q    Type
REMARK                         _______ _______ _______ _____ _____    ______ ____
ROOT
ATOM      1  C   LIG    1       24.928 -22.656   7.571  0.00  0.00    +0.195 C 
ENDROOT
BRANCH   1   2
ATOM      2  C   LIG    1       25.984 -21.727   6.954  0.00  0.00    -0.015 A 
ATOM      3  C   LIG    1       25.901 -20.821   5.842  0.00  0.00    -0.038 A 
ATOM      4  C   LIG    1       27.033 -19.996   5.567  0.00  0.00    +0.053 A 
ATOM      5  C   LIG    1       28.137 -20.001   6.358  0.00  0.00    +0.167 A 
ATOM      6  O   LIG    1       29.243 -19.225   6.226  0.00  0.00    -0.453 OA
ATOM      7  C   LIG    1       30.001 -19.622   7.388  0.00  0.00    +0.466 C 
ATOM      8  O   LIG    1       29.357 -20.664   8.155  0.00  0.00    -0.453 OA
ATOM      9  C   LIG    1       28.206 -20.832   7.462  0.00  0.00    +0.167 A 
ATOM     10  C   LIG    1       27.170 -21.675   7.751  0.00  0.00    +0.055 A 
BRANCH   3  11
ATOM     11  C   LIG    1       24.701 -20.530   4.963  0.00  0.00    +0.035 C 
BRANCH  11  12
ATOM     12  C   LIG    1       23.348 -20.273   5.619  0.00  0.00    +0.001 C 
ATOM     13  C   LIG    1       22.490 -19.198   5.004  0.00  0.00    +0.004 C 
ENDBRANCH  11  12
ENDBRANCH   3  11
ENDBRANCH   1   2
BRANCH   1  14
ATOM     14  O   LIG    1       24.240 -23.686   6.855  0.00  0.00    -0.373 OA
BRANCH  14  15
ATOM     15  C   LIG    1       25.128 -24.268   5.887  0.00  0.00    +0.188 C 
BRANCH  15  16
ATOM     16  C   LIG    1       25.789 -25.633   6.155  0.00  0.00    +0.188 C 
BRANCH  16  17
ATOM     17  O   LIG    1       26.085 -26.411   4.997  0.00  0.00    -0.375 OA
BRANCH  17  18
ATOM     18  C   LIG    1       25.692 -27.786   5.158  0.00  0.00    +0.188 C 
BRANCH  18  19
ATOM     19  C   LIG    1       24.480 -27.976   6.088  0.00  0.00    +0.188 C 
BRANCH  19  20
ATOM     20  O   LIG    1       23.791 -29.215   5.903  0.00  0.00    -0.378 OA
BRANCH  20  21
ATOM     21  C   LIG    1       24.167 -30.260   6.798  0.00  0.00    +0.160 C 
BRANCH  21  22
ATOM     22  C   LIG    1       24.577 -29.726   8.170  0.00  0.00    +0.028 C 
BRANCH  22  24
ATOM     23  C   LIG    1       23.344 -31.713   9.101  0.00  0.00    +0.004 C 
ATOM     24  C   LIG    1       23.664 -30.235   9.275  0.00  0.00    -0.001 C 
ENDBRANCH  22  24
ENDBRANCH  21  22
ENDBRANCH  20  21
ENDBRANCH  19  20
ENDBRANCH  18  19
ENDBRANCH  17  18
ENDBRANCH  16  17
ENDBRANCH  15  16
ENDBRANCH  14  15
ENDBRANCH   1  14
TORSDOF 13
ENDMDL
MODEL 7
REMARK VINA RESULT:      -6.8      3.985      6.273
REMARK  Name = *****
REMARK                            x       y       z     vdW  Elec       q    Type
REMARK                         _______ _______ _______ _____ _____    ______ ____
ROOT
ATOM      1  C   LIG    1       22.839 -22.140   6.756  0.00  0.00    +0.195 C 
ENDROOT
BRANCH   1   2
ATOM      2  C   LIG    1       23.976 -23.170   6.695  0.00  0.00    -0.015 A 
ATOM      3  C   LIG    1       25.354 -23.071   7.090  0.00  0.00    -0.038 A 
ATOM      4  C   LIG    1       26.157 -24.248   7.014  0.00  0.00    +0.053 A 
ATOM      5  C   LIG    1       25.640 -25.450   6.650  0.00  0.00    +0.167 A 
ATOM      6  O   LIG    1       26.292 -26.640   6.596  0.00  0.00    -0.453 OA
ATOM      7  C   LIG    1       25.215 -27.531   6.238  0.00  0.00    +0.466 C 
ATOM      8  O   LIG    1       23.958 -26.846   6.031  0.00  0.00    -0.453 OA
ATOM      9  C   LIG    1       24.303 -25.568   6.319  0.00  0.00    +0.167 A 
ATOM     10  C   LIG    1       23.494 -24.467   6.332  0.00  0.00    +0.055 A 
BRANCH   3  11
ATOM     11  C   LIG    1       26.066 -21.880   7.700  0.00  0.00    +0.035 C 
BRANCH  11  12
ATOM     12  C   LIG    1       27.554 -21.686   7.424  0.00  0.00    +0.001 C 
ATOM     13  C   LIG    1       28.032 -20.267   7.256  0.00  0.00    +0.004 C 
ENDBRANCH  11  12
ENDBRANCH   3  11
ENDBRANCH   1   2
BRANCH   1  14
ATOM     14  O   LIG    1       22.383 -21.373   5.637  0.00  0.00    -0.373 OA
BRANCH  14  15
ATOM     15  C   LIG    1       23.091 -20.124   5.594  0.00  0.00    +0.188 C 
BRANCH  15  16
ATOM     16  C   LIG    1       22.741 -19.063   4.534  0.00  0.00    +0.188 C 
BRANCH  16  17
ATOM     17  O   LIG    1       23.576 -19.053   3.377  0.00  0.00    -0.375 OA
BRANCH  17  18
ATOM     18  C   LIG    1       24.860 -19.650   3.636  0.00  0.00    +0.188 C 
BRANCH  18  19
ATOM     19  C   LIG    1       25.983 -18.622   3.866  0.00  0.00    +0.188 C 
BRANCH  19  20
ATOM     20  O   LIG    1       25.858 -17.436   3.079  0.00  0.00    -0.378 OA
BRANCH  20  21
ATOM     21  C   LIG    1       26.705 -16.356   3.467  0.00  0.00    +0.160 C 
BRANCH  21  22
ATOM     22  C   LIG    1       26.115 -14.996   3.095  0.00  0.00    +0.028 C 
BRANCH  22  24
ATOM     23  C   LIG    1       23.997 -13.900   3.902  0.00  0.00    +0.004 C 
ATOM     24  C   LIG    1       25.406 -14.342   4.273  0.00  0.00    -0.001 C 
ENDBRANCH  22  24
ENDBRANCH  21  22
ENDBRANCH  20  21
ENDBRANCH  19  20
ENDBRANCH  18  19
ENDBRANCH  17  18
ENDBRANCH  16  17
ENDBRANCH  15  16
ENDBRANCH  14  15
ENDBRANCH   1  14
TORSDOF 13
ENDMDL
MODEL 8
REMARK VINA RESULT:      -6.7      2.130      3.666
REMARK  Name = *****
REMARK                            x       y       z     vdW  Elec       q    Type
REMARK                         _______ _______ _______ _____ _____    ______ ____
ROOT
ATOM      1  C   LIG    1       26.274 -21.811   8.436  0.00  0.00    +0.195 C 
ENDROOT
BRANCH   1   2
ATOM      2  C   LIG    1       25.704 -21.956   7.018  0.00  0.00    -0.015 A 
ATOM      3  C   LIG    1       25.142 -23.094   6.343  0.00  0.00    -0.038 A 
ATOM      4  C   LIG    1       24.586 -22.894   5.045  0.00  0.00    +0.053 A 
ATOM      5  C   LIG    1       24.516 -21.664   4.473  0.00  0.00    +0.167 A 
ATOM      6  O   LIG    1       23.963 -21.348   3.275  0.00  0.00    -0.453 OA
ATOM      7  C   LIG    1       24.115 -19.913   3.267  0.00  0.00    +0.466 C 
ATOM      8  O   LIG    1       24.807 -19.411   4.435  0.00  0.00    -0.453 OA
ATOM      9  C   LIG    1       25.007 -20.553   5.135  0.00  0.00    +0.167 A 
ATOM     10  C   LIG    1       25.589 -20.689   6.363  0.00  0.00    +0.055 A 
BRANCH   3  11
ATOM     11  C   LIG    1       24.952 -24.497   6.884  0.00  0.00    +0.035 C 
BRANCH  11  12
ATOM     12  C   LIG    1       24.070 -25.474   6.112  0.00  0.00    +0.001 C 
ATOM     13  C   LIG    1       24.763 -26.639   5.455  0.00  0.00    +0.004 C 
ENDBRANCH  11  12
ENDBRANCH   3  11
ENDBRANCH   1   2
BRANCH   1  14
ATOM     14  O   LIG    1       26.900 -20.626   8.939  0.00  0.00    -0.373 OA
BRANCH  14  15
ATOM     15  C   LIG    1       27.941 -20.217   8.037  0.00  0.00    +0.188 C 
BRANCH  15  16
ATOM     16  C   LIG    1       29.173 -21.112   7.810  0.00  0.00    +0.188 C 
BRANCH  16  17
ATOM     17  O   LIG    1       30.155 -21.080   8.843  0.00  0.00    -0.375 OA
BRANCH  17  18
ATOM     18  C   LIG    1       31.402 -20.527   8.383  0.00  0.00    +0.188 C 
BRANCH  18  19
ATOM     19  C   LIG    1       31.231 -19.352   7.402  0.00  0.00    +0.188 C 
BRANCH  19  20
ATOM     20  O   LIG    1       31.937 -18.168   7.781  0.00  0.00    -0.378 OA
BRANCH  20  21
ATOM     21  C   LIG    1       31.859 -17.831   9.165  0.00  0.00    +0.160 C 
BRANCH  21  22
ATOM     22  C   LIG    1       30.483 -17.291   9.552  0.00  0.00    +0.028 C 
BRANCH  22  24
ATOM     23  C   LIG    1       31.662 -17.120  11.770  0.00  0.00    +0.004 C 
ATOM     24  C   LIG    1       30.496 -16.630  10.923  0.00  0.00    -0.001 C 
ENDBRANCH  22  24
ENDBRANCH  21  22
ENDBRANCH  20  21
ENDBRANCH  19  20
ENDBRANCH  18  19
ENDBRANCH  17  18
ENDBRANCH  16  17
ENDBRANCH  15  16
ENDBRANCH  14  15
ENDBRANCH   1  14
TORSDOF 13
ENDMDL
MODEL 9
REMARK VINA RESULT:      -6.7      2.091      4.304
REMARK  Name = *****
REMARK                            x       y       z     vdW  Elec       q    Type
REMARK                         _______ _______ _______ _____ _____    ______ ____
ROOT
ATOM      1  C   LIG    1       23.093 -22.693   6.887  0.00  0.00    +0.195 C 
ENDROOT
BRANCH   1   2
ATOM      2  C   LIG    1       24.165 -23.767   6.649  0.00  0.00    -0.015 A 
ATOM      3  C   LIG    1       25.575 -23.762   6.923  0.00  0.00    -0.038 A 
ATOM      4  C   LIG    1       26.305 -24.966   6.690  0.00  0.00    +0.053 A 
ATOM      5  C   LIG    1       25.697 -26.111   6.286  0.00  0.00    +0.167 A 
ATOM      6  O   LIG    1       26.277 -27.321   6.087  0.00  0.00    -0.453 OA
ATOM      7  C   LIG    1       25.128 -28.131   5.763  0.00  0.00    +0.466 C 
ATOM      8  O   LIG    1       23.896 -27.375   5.721  0.00  0.00    -0.453 OA
ATOM      9  C   LIG    1       24.331 -26.141   6.070  0.00  0.00    +0.167 A 
ATOM     10  C   LIG    1       23.585 -25.008   6.236  0.00  0.00    +0.055 A 
BRANCH   3  11
ATOM     11  C   LIG    1       26.399 -22.656   7.553  0.00  0.00    +0.035 C 
BRANCH  11  12
ATOM     12  C   LIG    1       25.797 -21.841   8.693  0.00  0.00    +0.001 C 
ATOM     13  C   LIG    1       26.179 -20.386   8.761  0.00  0.00    +0.004 C 
ENDBRANCH  11  12
ENDBRANCH   3  11
ENDBRANCH   1   2
BRANCH   1  14
ATOM     14  O   LIG    1       22.830 -21.602   5.998  0.00  0.00    -0.373 OA
BRANCH  14  15
ATOM     15  C   LIG    1       23.878 -21.522   5.019  0.00  0.00    +0.188 C 
BRANCH  15  16
ATOM     16  C   LIG    1       24.003 -20.286   4.109  0.00  0.00    +0.188 C 
BRANCH  16  17
ATOM     17  O   LIG    1       25.289 -19.669   4.085  0.00  0.00    -0.375 OA
BRANCH  17  18
ATOM     18  C   LIG    1       26.121 -20.120   5.170  0.00  0.00    +0.188 C 
BRANCH  18  19
ATOM     19  C   LIG    1       27.567 -19.596   5.096  0.00  0.00    +0.188 C 
BRANCH  19  20
ATOM     20  O   LIG    1       28.422 -20.098   6.127  0.00  0.00    -0.378 OA
BRANCH  20  21
ATOM     21  C   LIG    1       29.472 -19.220   6.528  0.00  0.00    +0.160 C 
BRANCH  21  22
ATOM     22  C   LIG    1       29.796 -19.347   8.015  0.00  0.00    +0.028 C 
BRANCH  22  24
ATOM     23  C   LIG    1       30.189 -17.360   9.511  0.00  0.00    +0.004 C 
ATOM     24  C   LIG    1       30.795 -18.294   8.472  0.00  0.00    -0.001 C 
ENDBRANCH  22  24
ENDBRANCH  21  22
ENDBRANCH  20  21
ENDBRANCH  19  20
ENDBRANCH  18  19
ENDBRANCH  17  18
ENDBRANCH  16  17
ENDBRANCH  15  16
ENDBRANCH  14  15
ENDBRANCH   1  14
TORSDOF 13
ENDMDL
