MODEL 1
REMARK VINA RESULT:      -9.5      0.000      0.000
REMARK  Name = *****
REMARK                            x       y       z     vdW  Elec       q    Type
REMARK                         _______ _______ _______ _____ _____    ______ ____
ROOT
ATOM      1  C   LIG    1       26.909 -20.752   6.926  0.00  0.00    -0.021 C 
ATOM      2  C   LIG    1       25.779 -21.105   6.255  0.00  0.00    -0.035 C 
ATOM      3  C   LIG    1       24.980 -22.341   6.644  0.00  0.00    +0.059 C 
ATOM      4  C   LIG    1       23.455 -22.135   6.797  0.00  0.00    +0.085 C 
ATOM      5  C   LIG    1       22.775 -23.468   7.052  0.00  0.00    -0.011 C 
ATOM      6  C   LIG    1       23.296 -24.625   6.638  0.00  0.00    +0.009 C 
ATOM      7  C   LIG    1       24.543 -24.676   5.872  0.00  0.00    +0.051 C 
ATOM      8  S   LIG    1       22.637 -21.423   5.338  0.00  0.00    -0.116 S 
ATOM      9  C   LIG    1       23.871 -20.274   4.757  0.00  0.00    +0.016 A 
ATOM     10  C   LIG    1       23.397 -19.387   3.767  0.00  0.00    +0.015 A 
ATOM     11  C   LIG    1       24.239 -18.467   3.153  0.00  0.00    +0.001 A 
ATOM     12  C   LIG    1       25.578 -18.443   3.505  0.00  0.00    +0.001 A 
ATOM     13  C   LIG    1       26.058 -19.314   4.490  0.00  0.00    +0.009 A 
ATOM     14  C   LIG    1       25.325 -23.576   5.829  0.00  0.00    -0.005 C 
ATOM     15  C   LIG    1       25.219 -20.227   5.171  0.00  0.00    -0.008 A 
ENDROOT
BRANCH   7  16
ATOM     16  C   LIG    1       24.940 -25.977   5.215  0.00  0.00    +0.417 C 
ATOM     17  F   LIG    1       26.035 -26.514   5.818  0.00  0.00    -0.166 F 
ATOM     18  F   LIG    1       25.256 -25.815   3.906  0.00  0.00    -0.166 F 
ATOM     19  F   LIG    1       23.971 -26.926   5.277  0.00  0.00    -0.166 F 
ENDBRANCH   7  16
BRANCH   1  20
ATOM     20  C   LIG    1       27.627 -21.487   8.050  0.00  0.00    +0.043 C 
BRANCH  20  21
ATOM     21  C   LIG    1       28.880 -20.772   8.626  0.00  0.00    +0.088 C 
BRANCH  21  25
ATOM     22  N   LIG    1       31.670 -18.180   8.290  0.00  0.00    -0.298 NA
ATOM     23  C   LIG    1       30.424 -18.181   7.492  0.00  0.00    +0.100 C 
ATOM     24  C   LIG    1       30.059 -19.534   6.830  0.00  0.00    +0.100 C 
ATOM     25  N   LIG    1       30.045 -20.707   7.721  0.00  0.00    -0.300 NA
ATOM     26  C   LIG    1       31.332 -20.721   8.455  0.00  0.00    +0.100 C 
ATOM     27  C   LIG    1       31.754 -19.391   9.136  0.00  0.00    +0.100 C 
BRANCH  22  28
ATOM     28  C   LIG    1       31.728 -16.944   9.117  0.00  0.00    +0.112 C 
BRANCH  28  29
ATOM     29  C   LIG    1       31.399 -17.146  10.609  0.00  0.00    +0.171 C 
BRANCH  29  30
ATOM     30  O   LIG    1       30.137 -16.578  10.947  0.00  0.00    -0.394 OA
ATOM     31  H   LIG    1       30.272 -16.086  11.779  0.00  0.00    +0.209 HD
ENDBRANCH  29  30
ENDBRANCH  28  29
ENDBRANCH  22  28
ENDBRANCH  21  25
ENDBRANCH  20  21
ENDBRANCH   1  20
TORSDOF 7
ENDMDL
MODEL 2
REMARK VINA RESULT:      -7.4      5.699      9.134
REMARK  Name = *****
REMARK                            x       y       z     vdW  Elec       q    Type
REMARK                         _______ _______ _______ _____ _____    ______ ____
ROOT
ATOM      1  C   LIG    1       24.660 -28.535   6.234  0.00  0.00    -0.021 C 
ATOM      2  C   LIG    1       24.822 -29.647   6.999  0.00  0.00    -0.035 C 
ATOM      3  C   LIG    1       24.653 -29.600   8.512  0.00  0.00    +0.059 C 
ATOM      4  C   LIG    1       23.755 -30.700   9.123  0.00  0.00    +0.085 C 
ATOM      5  C   LIG    1       23.786 -30.613  10.638  0.00  0.00    -0.011 C 
ATOM      6  C   LIG    1       24.821 -30.093  11.301  0.00  0.00    +0.009 C 
ATOM      7  C   LIG    1       26.017 -29.612  10.605  0.00  0.00    +0.051 C 
ATOM      8  S   LIG    1       24.249 -32.400   8.706  0.00  0.00    -0.116 S 
ATOM      9  C   LIG    1       24.802 -32.212   7.021  0.00  0.00    +0.016 A 
ATOM     10  C   LIG    1       25.010 -33.438   6.354  0.00  0.00    +0.015 A 
ATOM     11  C   LIG    1       25.505 -33.483   5.056  0.00  0.00    +0.001 A 
ATOM     12  C   LIG    1       25.825 -32.298   4.417  0.00  0.00    +0.001 A 
ATOM     13  C   LIG    1       25.618 -31.075   5.068  0.00  0.00    +0.009 A 
ATOM     14  C   LIG    1       25.959 -29.422   9.269  0.00  0.00    -0.005 C 
ATOM     15  C   LIG    1       25.068 -30.990   6.368  0.00  0.00    -0.008 A 
ENDROOT
BRANCH   7  16
ATOM     16  C   LIG    1       27.247 -29.281  11.415  0.00  0.00    +0.417 C 
ATOM     17  F   LIG    1       27.462 -27.938  11.451  0.00  0.00    -0.166 F 
ATOM     18  F   LIG    1       28.368 -29.842  10.899  0.00  0.00    -0.166 F 
ATOM     19  F   LIG    1       27.160 -29.684  12.710  0.00  0.00    -0.166 F 
ENDBRANCH   7  16
BRANCH   1  20
ATOM     20  C   LIG    1       24.396 -27.100   6.669  0.00  0.00    +0.043 C 
BRANCH  20  21
ATOM     21  C   LIG    1       24.065 -26.102   5.526  0.00  0.00    +0.088 C 
BRANCH  21  25
ATOM     22  N   LIG    1       25.444 -22.715   6.640  0.00  0.00    -0.298 NA
ATOM     23  C   LIG    1       24.462 -22.904   5.549  0.00  0.00    +0.100 C 
ATOM     24  C   LIG    1       24.835 -23.981   4.499  0.00  0.00    +0.100 C 
ATOM     25  N   LIG    1       25.204 -25.304   5.031  0.00  0.00    -0.300 NA
ATOM     26  C   LIG    1       26.238 -25.090   6.071  0.00  0.00    +0.100 C 
ATOM     27  C   LIG    1       25.923 -24.018   7.150  0.00  0.00    +0.100 C 
BRANCH  22  28
ATOM     28  C   LIG    1       24.825 -21.909   7.728  0.00  0.00    +0.112 C 
BRANCH  28  29
ATOM     29  C   LIG    1       25.577 -20.612   8.083  0.00  0.00    +0.171 C 
BRANCH  29  30
ATOM     30  O   LIG    1       25.911 -20.564   9.467  0.00  0.00    -0.394 OA
ATOM     31  H   LIG    1       25.801 -21.472   9.807  0.00  0.00    +0.209 HD
ENDBRANCH  29  30
ENDBRANCH  28  29
ENDBRANCH  22  28
ENDBRANCH  21  25
ENDBRANCH  20  21
ENDBRANCH   1  20
TORSDOF 7
ENDMDL
MODEL 3
REMARK VINA RESULT:      -7.3      1.520      1.916
REMARK  Name = *****
REMARK                            x       y       z     vdW  Elec       q    Type
REMARK                         _______ _______ _______ _____ _____    ______ ____
ROOT
ATOM      1  C   LIG    1       27.225 -19.792   5.074  0.00  0.00    -0.021 C 
ATOM      2  C   LIG    1       26.068 -20.372   5.492  0.00  0.00    -0.035 C 
ATOM      3  C   LIG    1       26.071 -21.522   6.490  0.00  0.00    +0.059 C 
ATOM      4  C   LIG    1       25.095 -21.383   7.680  0.00  0.00    +0.085 C 
ATOM      5  C   LIG    1       25.108 -22.652   8.512  0.00  0.00    -0.011 C 
ATOM      6  C   LIG    1       25.434 -23.839   7.997  0.00  0.00    +0.009 C 
ATOM      7  C   LIG    1       25.759 -23.999   6.578  0.00  0.00    +0.051 C 
ATOM      8  S   LIG    1       23.360 -21.109   7.207  0.00  0.00    -0.116 S 
ATOM      9  C   LIG    1       23.537 -20.063   5.774  0.00  0.00    +0.016 A 
ATOM     10  C   LIG    1       22.325 -19.481   5.344  0.00  0.00    +0.015 A 
ATOM     11  C   LIG    1       22.264 -18.691   4.203  0.00  0.00    +0.001 A 
ATOM     12  C   LIG    1       23.415 -18.494   3.459  0.00  0.00    +0.001 A 
ATOM     13  C   LIG    1       24.624 -19.061   3.879  0.00  0.00    +0.009 A 
ATOM     14  C   LIG    1       26.015 -22.896   5.842  0.00  0.00    -0.005 C 
ATOM     15  C   LIG    1       24.733 -19.828   5.063  0.00  0.00    -0.008 A 
ENDROOT
BRANCH   7  16
ATOM     16  C   LIG    1       25.863 -25.393   6.008  0.00  0.00    +0.417 C 
ATOM     17  F   LIG    1       27.115 -25.898   6.177  0.00  0.00    -0.166 F 
ATOM     18  F   LIG    1       25.606 -25.424   4.677  0.00  0.00    -0.166 F 
ATOM     19  F   LIG    1       25.016 -26.277   6.597  0.00  0.00    -0.166 F 
ENDBRANCH   7  16
BRANCH   1  20
ATOM     20  C   LIG    1       28.662 -20.178   5.397  0.00  0.00    +0.043 C 
BRANCH  20  21
ATOM     21  C   LIG    1       29.359 -19.320   6.488  0.00  0.00    +0.088 C 
BRANCH  21  25
ATOM     22  N   LIG    1       31.442 -18.435   9.569  0.00  0.00    -0.298 NA
ATOM     23  C   LIG    1       31.828 -19.442   8.555  0.00  0.00    +0.100 C 
ATOM     24  C   LIG    1       30.732 -20.478   8.197  0.00  0.00    +0.100 C 
ATOM     25  N   LIG    1       29.415 -19.927   7.832  0.00  0.00    -0.300 NA
ATOM     26  C   LIG    1       29.022 -18.975   8.899  0.00  0.00    +0.100 C 
ATOM     27  C   LIG    1       30.083 -17.916   9.305  0.00  0.00    +0.100 C 
BRANCH  22  28
ATOM     28  C   LIG    1       32.443 -17.333   9.578  0.00  0.00    +0.112 C 
BRANCH  28  29
ATOM     29  C   LIG    1       31.930 -15.995  10.143  0.00  0.00    +0.171 C 
BRANCH  29  30
ATOM     30  O   LIG    1       32.592 -15.655  11.358  0.00  0.00    -0.394 OA
ATOM     31  H   LIG    1       31.911 -15.268  11.942  0.00  0.00    +0.209 HD
ENDBRANCH  29  30
ENDBRANCH  28  29
ENDBRANCH  22  28
ENDBRANCH  21  25
ENDBRANCH  20  21
ENDBRANCH   1  20
TORSDOF 7
ENDMDL
MODEL 4
REMARK VINA RESULT:      -7.0      5.806      9.376
REMARK  Name = *****
REMARK                            x       y       z     vdW  Elec       q    Type
REMARK                         _______ _______ _______ _____ _____    ______ ____
ROOT
ATOM      1  C   LIG    1       24.725 -28.831   5.844  0.00  0.00    -0.021 C 
ATOM      2  C   LIG    1       24.884 -29.831   6.753  0.00  0.00    -0.035 C 
ATOM      3  C   LIG    1       24.582 -29.615   8.230  0.00  0.00    +0.059 C 
ATOM      4  C   LIG    1       23.699 -30.693   8.900  0.00  0.00    +0.085 C 
ATOM      5  C   LIG    1       23.594 -30.424  10.390  0.00  0.00    -0.011 C 
ATOM      6  C   LIG    1       24.536 -29.760  11.063  0.00  0.00    +0.009 C 
ATOM      7  C   LIG    1       25.758 -29.285  10.409  0.00  0.00    +0.051 C 
ATOM      8  S   LIG    1       24.325 -32.393   8.738  0.00  0.00    -0.116 S 
ATOM      9  C   LIG    1       25.011 -32.370   7.092  0.00  0.00    +0.016 A 
ATOM     10  C   LIG    1       25.347 -33.650   6.600  0.00  0.00    +0.015 A 
ATOM     11  C   LIG    1       25.954 -33.815   5.361  0.00  0.00    +0.001 A 
ATOM     12  C   LIG    1       26.259 -32.695   4.608  0.00  0.00    +0.001 A 
ATOM     13  C   LIG    1       25.926 -31.421   5.083  0.00  0.00    +0.009 A 
ATOM     14  C   LIG    1       25.804 -29.260   9.059  0.00  0.00    -0.005 C 
ATOM     15  C   LIG    1       25.261 -31.219   6.315  0.00  0.00    -0.008 A 
ENDROOT
BRANCH   7  16
ATOM     16  C   LIG    1       26.892 -28.777  11.267  0.00  0.00    +0.417 C 
ATOM     17  F   LIG    1       26.993 -27.422  11.190  0.00  0.00    -0.166 F 
ATOM     18  F   LIG    1       28.091 -29.280  10.883  0.00  0.00    -0.166 F 
ATOM     19  F   LIG    1       26.739 -29.070  12.584  0.00  0.00    -0.166 F 
ENDBRANCH   7  16
BRANCH   1  20
ATOM     20  C   LIG    1       24.342 -27.375   6.076  0.00  0.00    +0.043 C 
BRANCH  20  21
ATOM     21  C   LIG    1       25.446 -26.482   6.705  0.00  0.00    +0.088 C 
BRANCH  21  25
ATOM     22  N   LIG    1       24.517 -22.784   6.433  0.00  0.00    -0.298 NA
ATOM     23  C   LIG    1       23.936 -23.859   5.599  0.00  0.00    +0.100 C 
ATOM     24  C   LIG    1       24.962 -24.814   4.937  0.00  0.00    +0.100 C 
ATOM     25  N   LIG    1       25.966 -25.410   5.835  0.00  0.00    -0.300 NA
ATOM     26  C   LIG    1       26.580 -24.303   6.607  0.00  0.00    +0.100 C 
ATOM     27  C   LIG    1       25.602 -23.310   7.290  0.00  0.00    +0.100 C 
BRANCH  22  28
ATOM     28  C   LIG    1       23.443 -22.159   7.253  0.00  0.00    +0.112 C 
BRANCH  28  29
ATOM     29  C   LIG    1       23.342 -20.626   7.129  0.00  0.00    +0.171 C 
BRANCH  29  30
ATOM     30  O   LIG    1       22.796 -20.240   5.871  0.00  0.00    -0.394 OA
ATOM     31  H   LIG    1       23.427 -20.547   5.192  0.00  0.00    +0.209 HD
ENDBRANCH  29  30
ENDBRANCH  28  29
ENDBRANCH  22  28
ENDBRANCH  21  25
ENDBRANCH  20  21
ENDBRANCH   1  20
TORSDOF 7
ENDMDL
MODEL 5
REMARK VINA RESULT:      -6.6      5.557      9.053
REMARK  Name = *****
REMARK                            x       y       z     vdW  Elec       q    Type
REMARK                         _______ _______ _______ _____ _____    ______ ____
ROOT
ATOM      1  C   LIG    1       25.383 -27.863   6.299  0.00  0.00    -0.021 C 
ATOM      2  C   LIG    1       25.209 -29.011   7.006  0.00  0.00    -0.035 C 
ATOM      3  C   LIG    1       24.995 -28.990   8.513  0.00  0.00    +0.059 C 
ATOM      4  C   LIG    1       23.811 -29.835   9.036  0.00  0.00    +0.085 C 
ATOM      5  C   LIG    1       23.800 -29.829  10.554  0.00  0.00    -0.011 C 
ATOM      6  C   LIG    1       24.907 -29.637  11.274  0.00  0.00    +0.009 C 
ATOM      7  C   LIG    1       26.216 -29.463  10.640  0.00  0.00    +0.051 C 
ATOM      8  S   LIG    1       23.852 -31.584   8.540  0.00  0.00    -0.116 S 
ATOM      9  C   LIG    1       24.507 -31.475   6.885  0.00  0.00    +0.016 A 
ATOM     10  C   LIG    1       24.408 -32.680   6.156  0.00  0.00    +0.015 A 
ATOM     11  C   LIG    1       24.929 -32.797   4.873  0.00  0.00    +0.001 A 
ATOM     12  C   LIG    1       25.580 -31.713   4.311  0.00  0.00    +0.001 A 
ATOM     13  C   LIG    1       25.678 -30.510   5.021  0.00  0.00    +0.009 A 
ATOM     14  C   LIG    1       26.267 -29.204   9.316  0.00  0.00    -0.005 C 
ATOM     15  C   LIG    1       25.115 -30.340   6.309  0.00  0.00    -0.008 A 
ENDROOT
BRANCH   7  16
ATOM     16  C   LIG    1       27.454 -29.511  11.503  0.00  0.00    +0.417 C 
ATOM     17  F   LIG    1       28.471 -30.148  10.862  0.00  0.00    -0.166 F 
ATOM     18  F   LIG    1       27.245 -30.180  12.664  0.00  0.00    -0.166 F 
ATOM     19  F   LIG    1       27.927 -28.281  11.831  0.00  0.00    -0.166 F 
ENDBRANCH   7  16
BRANCH   1  20
ATOM     20  C   LIG    1       25.492 -26.431   6.805  0.00  0.00    +0.043 C 
BRANCH  20  21
ATOM     21  C   LIG    1       24.425 -25.442   6.259  0.00  0.00    +0.088 C 
BRANCH  21  25
ATOM     22  N   LIG    1       24.174 -21.714   5.454  0.00  0.00    -0.298 NA
ATOM     23  C   LIG    1       25.402 -22.390   5.927  0.00  0.00    +0.100 C 
ATOM     24  C   LIG    1       25.227 -23.285   7.180  0.00  0.00    +0.100 C 
ATOM     25  N   LIG    1       24.141 -24.278   7.120  0.00  0.00    -0.300 NA
ATOM     26  C   LIG    1       22.909 -23.561   6.713  0.00  0.00    +0.100 C 
ATOM     27  C   LIG    1       23.023 -22.643   5.465  0.00  0.00    +0.100 C 
BRANCH  22  28
ATOM     28  C   LIG    1       24.405 -21.165   4.090  0.00  0.00    +0.112 C 
BRANCH  28  29
ATOM     29  C   LIG    1       24.842 -19.688   4.050  0.00  0.00    +0.171 C 
BRANCH  29  30
ATOM     30  O   LIG    1       26.258 -19.561   4.147  0.00  0.00    -0.394 OA
ATOM     31  H   LIG    1       26.634 -20.348   3.710  0.00  0.00    +0.209 HD
ENDBRANCH  29  30
ENDBRANCH  28  29
ENDBRANCH  22  28
ENDBRANCH  21  25
ENDBRANCH  20  21
ENDBRANCH   1  20
TORSDOF 7
ENDMDL
