MODEL 1
REMARK VINA RESULT:       0.2      0.000      0.000
REMARK  Name = *****
REMARK                            x       y       z     vdW  Elec       q    Type
REMARK                         _______ _______ _______ _____ _____    ______ ____
ROOT
ATOM      1  N   LIG    1       27.576 -14.234   4.702  0.00  0.00    -0.295 NA
ATOM      2  C   LIG    1       27.003 -14.182   3.324  0.00  0.00    +0.065 C 
ATOM      3  C   LIG    1       26.583 -15.598   2.887  0.00  0.00    +0.054 C 
ATOM      4  C   LIG    1       25.263 -16.056   3.460  0.00  0.00    -0.042 A 
ATOM      5  C   LIG    1       24.374 -15.157   4.081  0.00  0.00    -0.034 A 
ATOM      6  C   LIG    1       24.727 -13.658   4.235  0.00  0.00    +0.002 C 
ATOM      7  C   LIG    1       23.444 -12.784   4.037  0.00  0.00    +0.012 C 
ATOM      8  C   LIG    1       23.683 -11.525   3.203  0.00  0.00    +0.001 C 
ATOM      9  C   LIG    1       24.223 -11.869   1.812  0.00  0.00    +0.000 C 
ATOM     10  C   LIG    1       25.233 -13.023   1.817  0.00  0.00    +0.006 C 
ATOM     11  C   LIG    1       25.333 -13.489   5.657  0.00  0.00    +0.027 C 
ATOM     12  C   LIG    1       23.175 -15.671   4.617  0.00  0.00    +0.049 A 
ATOM     13  C   LIG    1       22.847 -17.016   4.483  0.00  0.00    +0.117 A 
ATOM     14  C   LIG    1       23.704 -17.893   3.836  0.00  0.00    +0.045 A 
ATOM     15  C   LIG    1       24.911 -17.412   3.330  0.00  0.00    +0.007 A 
ATOM     16  C   LIG    1       25.815 -13.215   3.222  0.00  0.00    +0.017 C 
ATOM     17  C   LIG    1       26.871 -13.381   5.673  0.00  0.00    +0.086 C 
ENDROOT
BRANCH  13  18
ATOM     18  O   LIG    1       21.658 -17.436   5.004  0.00  0.00    -0.507 OA
ATOM     19  H   LIG    1       21.429 -18.287   4.596  0.00  0.00    +0.292 HD
ENDBRANCH  13  18
BRANCH   1  20
ATOM     20  C   LIG    1       29.017 -13.920   4.667  0.00  0.00    +0.111 C 
BRANCH  20  22
ATOM     21  C   LIG    1       29.357 -11.520   3.985  0.00  0.00    +0.005 C 
ATOM     22  C   LIG    1       29.370 -12.832   3.692  0.00  0.00    -0.019 C 
ENDBRANCH  20  22
ENDBRANCH   1  20
TORSDOF 3
ENDMDL
MODEL 2
REMARK VINA RESULT:       2.0      1.842      4.141
REMARK  Name = *****
REMARK                            x       y       z     vdW  Elec       q    Type
REMARK                         _______ _______ _______ _____ _____    ______ ____
ROOT
ATOM      1  N   LIG    1       24.310 -13.311   2.595  0.00  0.00    -0.295 NA
ATOM      2  C   LIG    1       24.447 -13.607   4.052  0.00  0.00    +0.065 C 
ATOM      3  C   LIG    1       23.576 -14.825   4.414  0.00  0.00    +0.054 C 
ATOM      4  C   LIG    1       24.191 -16.154   4.048  0.00  0.00    -0.042 A 
ATOM      5  C   LIG    1       25.550 -16.269   3.692  0.00  0.00    -0.034 A 
ATOM      6  C   LIG    1       26.469 -15.025   3.628  0.00  0.00    +0.002 C 
ATOM      7  C   LIG    1       27.901 -15.393   4.143  0.00  0.00    +0.012 C 
ATOM      8  C   LIG    1       28.521 -14.323   5.042  0.00  0.00    +0.001 C 
ATOM      9  C   LIG    1       27.648 -14.047   6.270  0.00  0.00    +0.000 C 
ATOM     10  C   LIG    1       26.145 -14.055   5.965  0.00  0.00    +0.006 C 
ATOM     11  C   LIG    1       26.485 -14.562   2.144  0.00  0.00    +0.027 C 
ATOM     12  C   LIG    1       26.039 -17.542   3.334  0.00  0.00    +0.049 A 
ATOM     13  C   LIG    1       25.222 -18.667   3.391  0.00  0.00    +0.117 A 
ATOM     14  C   LIG    1       23.896 -18.560   3.779  0.00  0.00    +0.045 A 
ATOM     15  C   LIG    1       23.382 -17.304   4.102  0.00  0.00    +0.007 A 
ATOM     16  C   LIG    1       25.905 -13.848   4.465  0.00  0.00    +0.017 C 
ATOM     17  C   LIG    1       25.586 -13.343   1.859  0.00  0.00    +0.086 C 
ENDROOT
BRANCH  13  18
ATOM     18  O   LIG    1       25.772 -19.870   3.055  0.00  0.00    -0.507 OA
ATOM     19  H   LIG    1       25.777 -20.434   3.846  0.00  0.00    +0.292 HD
ENDBRANCH  13  18
BRANCH   1  20
ATOM     20  C   LIG    1       23.616 -12.024   2.398  0.00  0.00    +0.111 C 
BRANCH  20  22
ATOM     21  C   LIG    1       23.693 -11.447   4.849  0.00  0.00    +0.005 C 
ATOM     22  C   LIG    1       23.053 -11.447   3.666  0.00  0.00    -0.019 C 
ENDBRANCH  20  22
ENDBRANCH   1  20
TORSDOF 3
ENDMDL
