MODEL 1
REMARK VINA RESULT:      -2.4      0.000      0.000
REMARK  Name = *****
REMARK                            x       y       z     vdW  Elec       q    Type
REMARK                         _______ _______ _______ _____ _____    ______ ____
ROOT
ATOM      1  C   LIG    1       27.377 -17.187   4.240  0.00  0.00    +0.122 C 
ATOM      2  C   LIG    1       26.593 -18.277   4.218  0.00  0.00    +0.079 C 
ATOM      3  N   LIG    1       26.849 -19.447   4.910  0.00  0.00    -0.267 N 
ATOM      4  C   LIG    1       28.045 -19.664   5.698  0.00  0.00    +0.139 C 
ATOM      5  C   LIG    1       25.860 -20.436   4.858  0.00  0.00    +0.248 C 
ATOM      6  O   LIG    1       25.991 -21.572   5.311  0.00  0.00    -0.273 OA
ATOM      7  C   LIG    1       24.552 -19.901   4.218  0.00  0.00    +0.208 C 
ATOM      8  S   LIG    1       25.151 -18.445   3.277  0.00  0.00    -0.081 S 
ENDROOT
BRANCH   7   9
ATOM      9  N   LIG    1       23.567 -19.545   5.275  0.00  0.00    -0.283 NA
ATOM     10  C   LIG    1       22.483 -18.653   4.824  0.00  0.00    +0.086 C 
ATOM     11  C   LIG    1       21.487 -19.310   3.867  0.00  0.00    +0.015 C 
ATOM     12  C   LIG    1       20.904 -20.588   4.462  0.00  0.00    +0.002 C 
ATOM     13  C   LIG    1       21.998 -21.499   5.006  0.00  0.00    +0.015 C 
ATOM     14  C   LIG    1       22.964 -20.731   5.914  0.00  0.00    +0.086 C 
ENDBRANCH   7   9
BRANCH   1  15
ATOM     15  C   LIG    1       27.099 -15.908   3.554  0.00  0.00    +0.334 C 
ATOM     16  O   LIG    1       26.259 -15.719   2.691  0.00  0.00    -0.245 OA
BRANCH  15  17
ATOM     17  O   LIG    1       27.930 -14.963   4.066  0.00  0.00    -0.462 OA
BRANCH  17  19
ATOM     18  C   LIG    1       26.618 -13.355   5.354  0.00  0.00    +0.048 C 
ATOM     19  C   LIG    1       27.400 -13.625   4.081  0.00  0.00    +0.229 C 
ENDBRANCH  17  19
ENDBRANCH  15  17
ENDBRANCH   1  15
TORSDOF 4
ENDMDL
MODEL 2
REMARK VINA RESULT:      -2.3      1.575      1.718
REMARK  Name = *****
REMARK                            x       y       z     vdW  Elec       q    Type
REMARK                         _______ _______ _______ _____ _____    ______ ____
ROOT
ATOM      1  C   LIG    1       27.212 -15.898   3.717  0.00  0.00    +0.122 C 
ATOM      2  C   LIG    1       26.781 -17.166   3.810  0.00  0.00    +0.079 C 
ATOM      3  N   LIG    1       27.445 -18.179   4.477  0.00  0.00    -0.267 N 
ATOM      4  C   LIG    1       28.739 -18.007   5.106  0.00  0.00    +0.139 C 
ATOM      5  C   LIG    1       26.785 -19.410   4.567  0.00  0.00    +0.248 C 
ATOM      6  O   LIG    1       27.293 -20.437   5.013  0.00  0.00    -0.273 OA
ATOM      7  C   LIG    1       25.312 -19.302   4.095  0.00  0.00    +0.208 C 
ATOM      8  S   LIG    1       25.346 -17.784   3.066  0.00  0.00    -0.081 S 
ENDROOT
BRANCH   7   9
ATOM      9  N   LIG    1       24.401 -19.190   5.268  0.00  0.00    -0.283 NA
ATOM     10  C   LIG    1       23.029 -18.761   4.936  0.00  0.00    +0.086 C 
ATOM     11  C   LIG    1       22.212 -19.805   4.175  0.00  0.00    +0.015 C 
ATOM     12  C   LIG    1       22.181 -21.137   4.918  0.00  0.00    +0.002 C 
ATOM     13  C   LIG    1       23.580 -21.572   5.340  0.00  0.00    +0.015 C 
ATOM     14  C   LIG    1       24.325 -20.438   6.052  0.00  0.00    +0.086 C 
ENDBRANCH   7   9
BRANCH   1  15
ATOM     15  C   LIG    1       26.496 -14.787   3.056  0.00  0.00    +0.334 C 
ATOM     16  O   LIG    1       26.534 -14.506   1.870  0.00  0.00    -0.245 OA
BRANCH  15  17
ATOM     17  O   LIG    1       25.764 -14.136   3.998  0.00  0.00    -0.462 OA
BRANCH  17  19
ATOM     18  C   LIG    1       23.476 -14.844   4.480  0.00  0.00    +0.048 C 
ATOM     19  C   LIG    1       24.379 -13.935   3.664  0.00  0.00    +0.229 C 
ENDBRANCH  17  19
ENDBRANCH  15  17
ENDBRANCH   1  15
TORSDOF 4
ENDMDL
MODEL 3
REMARK VINA RESULT:      -0.9      2.681      6.718
REMARK  Name = *****
REMARK                            x       y       z     vdW  Elec       q    Type
REMARK                         _______ _______ _______ _____ _____    ______ ____
ROOT
ATOM      1  C   LIG    1       23.919 -18.495   4.161  0.00  0.00    +0.122 C 
ATOM      2  C   LIG    1       24.303 -17.237   3.889  0.00  0.00    +0.079 C 
ATOM      3  N   LIG    1       23.592 -16.103   4.237  0.00  0.00    -0.267 N 
ATOM      4  C   LIG    1       22.295 -16.139   4.882  0.00  0.00    +0.139 C 
ATOM      5  C   LIG    1       24.205 -14.873   3.973  0.00  0.00    +0.248 C 
ATOM      6  O   LIG    1       23.654 -13.782   4.105  0.00  0.00    -0.273 OA
ATOM      7  C   LIG    1       25.689 -15.052   3.558  0.00  0.00    +0.208 C 
ATOM      8  S   LIG    1       25.726 -16.801   3.006  0.00  0.00    -0.081 S 
ENDROOT
BRANCH   7   9
ATOM      9  N   LIG    1       26.585 -14.790   4.718  0.00  0.00    -0.283 NA
ATOM     10  C   LIG    1       28.023 -14.917   4.419  0.00  0.00    +0.086 C 
ATOM     11  C   LIG    1       28.576 -13.817   3.513  0.00  0.00    +0.015 C 
ATOM     12  C   LIG    1       28.277 -12.431   4.076  0.00  0.00    +0.002 C 
ATOM     13  C   LIG    1       26.810 -12.292   4.465  0.00  0.00    +0.015 C 
ATOM     14  C   LIG    1       26.349 -13.468   5.332  0.00  0.00    +0.086 C 
ENDBRANCH   7   9
BRANCH   1  15
ATOM     15  C   LIG    1       24.686 -19.720   3.848  0.00  0.00    +0.334 C 
ATOM     16  O   LIG    1       24.481 -20.483   2.920  0.00  0.00    -0.245 OA
BRANCH  15  17
ATOM     17  O   LIG    1       25.680 -19.842   4.766  0.00  0.00    -0.462 OA
BRANCH  17  19
ATOM     18  C   LIG    1       26.340 -20.497   7.025  0.00  0.00    +0.048 C 
ATOM     19  C   LIG    1       25.396 -20.734   5.860  0.00  0.00    +0.229 C 
ENDBRANCH  17  19
ENDBRANCH  15  17
ENDBRANCH   1  15
TORSDOF 4
ENDMDL
MODEL 4
REMARK VINA RESULT:      -0.2      3.063      6.550
REMARK  Name = *****
REMARK                            x       y       z     vdW  Elec       q    Type
REMARK                         _______ _______ _______ _____ _____    ______ ____
ROOT
ATOM      1  C   LIG    1       23.531 -18.643   3.867  0.00  0.00    +0.122 C 
ATOM      2  C   LIG    1       24.207 -17.486   3.961  0.00  0.00    +0.079 C 
ATOM      3  N   LIG    1       25.542 -17.324   3.641  0.00  0.00    -0.267 N 
ATOM      4  C   LIG    1       26.403 -18.413   3.225  0.00  0.00    +0.139 C 
ATOM      5  C   LIG    1       26.046 -16.019   3.691  0.00  0.00    +0.248 C 
ATOM      6  O   LIG    1       27.234 -15.729   3.560  0.00  0.00    -0.273 OA
ATOM      7  C   LIG    1       24.912 -14.976   3.867  0.00  0.00    +0.208 C 
ATOM      8  S   LIG    1       23.552 -15.998   4.554  0.00  0.00    -0.081 S 
ENDROOT
BRANCH   7   9
ATOM      9  N   LIG    1       24.570 -14.359   2.557  0.00  0.00    -0.283 NA
ATOM     10  C   LIG    1       23.496 -13.349   2.619  0.00  0.00    +0.086 C 
ATOM     11  C   LIG    1       23.892 -12.054   3.328  0.00  0.00    +0.015 C 
ATOM     12  C   LIG    1       25.150 -11.447   2.716  0.00  0.00    +0.002 C 
ATOM     13  C   LIG    1       26.256 -12.485   2.569  0.00  0.00    +0.015 C 
ATOM     14  C   LIG    1       25.740 -13.757   1.888  0.00  0.00    +0.086 C 
ENDBRANCH   7   9
BRANCH   1  15
ATOM     15  C   LIG    1       22.093 -18.830   4.151  0.00  0.00    +0.334 C 
ATOM     16  O   LIG    1       21.173 -18.183   3.679  0.00  0.00    -0.245 OA
BRANCH  15  17
ATOM     17  O   LIG    1       21.965 -19.867   5.019  0.00  0.00    -0.462 OA
BRANCH  17  19
ATOM     18  C   LIG    1       23.174 -21.105   6.743  0.00  0.00    +0.048 C 
ATOM     19  C   LIG    1       23.187 -20.563   5.325  0.00  0.00    +0.229 C 
ENDBRANCH  17  19
ENDBRANCH  15  17
ENDBRANCH   1  15
TORSDOF 4
ENDMDL
