MODEL 1
REMARK VINA RESULT:      -4.5      0.000      0.000
REMARK  Name = *****
REMARK                            x       y       z     vdW  Elec       q    Type
REMARK                         _______ _______ _______ _____ _____    ______ ____
ROOT
ATOM      1  C   LIG    1       26.576 -19.482   4.440  0.00  0.00    +0.099 A 
ATOM      2  C   LIG    1       27.431 -18.368   4.351  0.00  0.00    +0.137 A 
ATOM      3  N   LIG    1       28.496 -18.262   5.186  0.00  0.00    -0.239 NA
ATOM      4  C   LIG    1       28.730 -19.245   6.087  0.00  0.00    +0.113 A 
ATOM      5  C   LIG    1       27.947 -20.373   6.218  0.00  0.00    +0.021 A 
ATOM      6  C   LIG    1       26.852 -20.492   5.379  0.00  0.00    +0.020 A 
ENDROOT
BRANCH   1   8
ATOM      7  O   LIG    1       25.115 -20.486   2.822  0.00  0.00    -0.245 OA
ATOM      8  C   LIG    1       25.358 -19.584   3.595  0.00  0.00    +0.346 C 
BRANCH   8   9
ATOM      9  O   LIG    1       24.619 -18.471   3.808  0.00  0.00    -0.417 OA
BRANCH   9  10
ATOM     10  C   LIG    1       23.746 -18.479   4.933  0.00  0.00    +0.403 C 
ATOM     11  C   LIG    1       22.369 -18.634   4.395  0.00  0.00    +0.047 A 
ATOM     12  C   LIG    1       21.866 -19.854   4.784  0.00  0.00    +0.069 A 
ATOM     13  C   LIG    1       20.641 -20.334   4.356  0.00  0.00    +0.015 A 
ATOM     14  C   LIG    1       19.900 -19.528   3.490  0.00  0.00    +0.001 A 
ATOM     15  C   LIG    1       20.388 -18.267   3.106  0.00  0.00    +0.001 A 
ATOM     16  C   LIG    1       22.843 -20.510   5.650  0.00  0.00    +0.343 C 
ATOM     17  O   LIG    1       22.708 -21.572   6.212  0.00  0.00    -0.245 OA
ATOM     18  C   LIG    1       21.628 -17.808   3.564  0.00  0.00    +0.012 A 
ATOM     19  O   LIG    1       23.934 -19.682   5.700  0.00  0.00    -0.417 OA
ENDBRANCH   9  10
ENDBRANCH   8   9
ENDBRANCH   1   8
BRANCH   2  20
ATOM     20  N   LIG    1       27.134 -17.320   3.452  0.00  0.00    -0.299 N 
ATOM     21  H   LIG    1       27.370 -17.575   2.495  0.00  0.00    +0.154 HD
BRANCH  20  22
ATOM     22  C   LIG    1       26.930 -15.938   3.634  0.00  0.00    +0.033 A 
ATOM     23  C   LIG    1       25.617 -15.440   3.552  0.00  0.00    +0.035 A 
ATOM     24  C   LIG    1       25.306 -14.095   3.836  0.00  0.00    +0.057 A 
ATOM     25  C   LIG    1       26.338 -13.228   4.209  0.00  0.00    +0.012 A 
ATOM     26  C   LIG    1       27.645 -13.702   4.299  0.00  0.00    +0.002 A 
ATOM     27  C   LIG    1       27.932 -15.044   4.022  0.00  0.00    +0.023 A 
BRANCH  24  28
ATOM     28  C   LIG    1       23.878 -13.621   3.755  0.00  0.00    +0.417 C 
ATOM     29  F   LIG    1       23.668 -12.466   4.446  0.00  0.00    -0.166 F 
ATOM     30  F   LIG    1       22.998 -14.526   4.270  0.00  0.00    -0.166 F 
ATOM     31  F   LIG    1       23.451 -13.374   2.484  0.00  0.00    -0.166 F 
ENDBRANCH  24  28
ENDBRANCH  20  22
ENDBRANCH   2  20
TORSDOF 6
ENDMDL
MODEL 2
REMARK VINA RESULT:      -3.7      3.057      6.368
REMARK  Name = *****
REMARK                            x       y       z     vdW  Elec       q    Type
REMARK                         _______ _______ _______ _____ _____    ______ ____
ROOT
ATOM      1  C   LIG    1       23.580 -18.656   3.655  0.00  0.00    +0.099 A 
ATOM      2  C   LIG    1       23.521 -19.966   4.165  0.00  0.00    +0.137 A 
ATOM      3  N   LIG    1       22.349 -20.456   4.643  0.00  0.00    -0.239 NA
ATOM      4  C   LIG    1       21.242 -19.676   4.605  0.00  0.00    +0.113 A 
ATOM      5  C   LIG    1       21.222 -18.391   4.104  0.00  0.00    +0.021 A 
ATOM      6  C   LIG    1       22.412 -17.875   3.620  0.00  0.00    +0.020 A 
ENDROOT
BRANCH   1   8
ATOM      7  O   LIG    1       25.663 -18.606   2.463  0.00  0.00    -0.245 OA
ATOM      8  C   LIG    1       24.866 -18.067   3.201  0.00  0.00    +0.346 C 
BRANCH   8   9
ATOM      9  O   LIG    1       24.999 -16.863   3.804  0.00  0.00    -0.417 OA
BRANCH   9  10
ATOM     10  C   LIG    1       25.510 -15.795   3.012  0.00  0.00    +0.403 C 
ATOM     11  C   LIG    1       25.006 -14.538   3.626  0.00  0.00    +0.047 A 
ATOM     12  C   LIG    1       26.067 -13.831   4.144  0.00  0.00    +0.069 A 
ATOM     13  C   LIG    1       25.910 -12.664   4.870  0.00  0.00    +0.015 A 
ATOM     14  C   LIG    1       24.608 -12.203   5.074  0.00  0.00    +0.001 A 
ATOM     15  C   LIG    1       23.517 -12.899   4.527  0.00  0.00    +0.001 A 
ATOM     16  C   LIG    1       27.304 -14.541   3.826  0.00  0.00    +0.343 C 
ATOM     17  O   LIG    1       28.428 -14.176   4.083  0.00  0.00    -0.245 OA
ATOM     18  C   LIG    1       23.711 -14.073   3.790  0.00  0.00    +0.012 A 
ATOM     19  O   LIG    1       26.936 -15.690   3.178  0.00  0.00    -0.417 OA
ENDBRANCH   9  10
ENDBRANCH   8   9
ENDBRANCH   1   8
BRANCH   2  20
ATOM     20  N   LIG    1       24.698 -20.742   4.258  0.00  0.00    -0.299 N 
ATOM     21  H   LIG    1       24.584 -21.645   3.801  0.00  0.00    +0.154 HD
BRANCH  20  22
ATOM     22  C   LIG    1       25.814 -20.682   5.116  0.00  0.00    +0.033 A 
ATOM     23  C   LIG    1       26.690 -19.587   4.998  0.00  0.00    +0.035 A 
ATOM     24  C   LIG    1       27.762 -19.385   5.889  0.00  0.00    +0.057 A 
ATOM     25  C   LIG    1       27.961 -20.304   6.924  0.00  0.00    +0.012 A 
ATOM     26  C   LIG    1       27.104 -21.393   7.061  0.00  0.00    +0.002 A 
ATOM     27  C   LIG    1       26.038 -21.572   6.170  0.00  0.00    +0.023 A 
BRANCH  24  28
ATOM     28  C   LIG    1       28.655 -18.181   5.728  0.00  0.00    +0.417 C 
ATOM     29  F   LIG    1       29.475 -17.990   6.799  0.00  0.00    -0.166 F 
ATOM     30  F   LIG    1       27.949 -17.023   5.590  0.00  0.00    -0.166 F 
ATOM     31  F   LIG    1       29.475 -18.246   4.642  0.00  0.00    -0.166 F 
ENDBRANCH  24  28
ENDBRANCH  20  22
ENDBRANCH   2  20
TORSDOF 6
ENDMDL
MODEL 3
REMARK VINA RESULT:      -2.6      1.846      2.322
REMARK  Name = *****
REMARK                            x       y       z     vdW  Elec       q    Type
REMARK                         _______ _______ _______ _____ _____    ______ ____
ROOT
ATOM      1  C   LIG    1       26.065 -19.662   4.393  0.00  0.00    +0.099 A 
ATOM      2  C   LIG    1       26.820 -18.487   4.216  0.00  0.00    +0.137 A 
ATOM      3  N   LIG    1       27.971 -18.309   4.914  0.00  0.00    -0.239 NA
ATOM      4  C   LIG    1       28.386 -19.279   5.763  0.00  0.00    +0.113 A 
ATOM      5  C   LIG    1       27.708 -20.462   5.973  0.00  0.00    +0.021 A 
ATOM      6  C   LIG    1       26.528 -20.655   5.274  0.00  0.00    +0.020 A 
ENDROOT
BRANCH   1   8
ATOM      7  O   LIG    1       24.425 -20.840   3.096  0.00  0.00    -0.245 OA
ATOM      8  C   LIG    1       24.762 -19.846   3.704  0.00  0.00    +0.346 C 
BRANCH   8   9
ATOM      9  O   LIG    1       24.063 -18.695   3.836  0.00  0.00    -0.417 OA
BRANCH   9  10
ATOM     10  C   LIG    1       23.025 -18.675   4.811  0.00  0.00    +0.403 C 
ATOM     11  C   LIG    1       21.770 -18.354   4.082  0.00  0.00    +0.047 A 
ATOM     12  C   LIG    1       20.932 -19.445   4.121  0.00  0.00    +0.069 A 
ATOM     13  C   LIG    1       19.726 -19.492   3.445  0.00  0.00    +0.015 A 
ATOM     14  C   LIG    1       19.365 -18.372   2.694  0.00  0.00    +0.001 A 
ATOM     15  C   LIG    1       20.197 -17.240   2.667  0.00  0.00    +0.001 A 
ATOM     16  C   LIG    1       21.555 -20.486   4.935  0.00  0.00    +0.343 C 
ATOM     17  O   LIG    1       21.075 -21.557   5.224  0.00  0.00    -0.245 OA
ATOM     18  C   LIG    1       21.407 -17.222   3.370  0.00  0.00    +0.012 A 
ATOM     19  O   LIG    1       22.783 -20.005   5.307  0.00  0.00    -0.417 OA
ENDBRANCH   9  10
ENDBRANCH   8   9
ENDBRANCH   1   8
BRANCH   2  20
ATOM     20  N   LIG    1       26.338 -17.457   3.378  0.00  0.00    -0.299 N 
ATOM     21  H   LIG    1       26.440 -17.702   2.395  0.00  0.00    +0.154 HD
BRANCH  20  22
ATOM     22  C   LIG    1       26.095 -16.087   3.596  0.00  0.00    +0.033 A 
ATOM     23  C   LIG    1       27.197 -15.215   3.664  0.00  0.00    +0.035 A 
ATOM     24  C   LIG    1       27.043 -13.818   3.761  0.00  0.00    +0.057 A 
ATOM     25  C   LIG    1       25.751 -13.282   3.791  0.00  0.00    +0.012 A 
ATOM     26  C   LIG    1       24.647 -14.127   3.721  0.00  0.00    +0.002 A 
ATOM     27  C   LIG    1       24.821 -15.513   3.617  0.00  0.00    +0.023 A 
BRANCH  24  28
ATOM     28  C   LIG    1       28.260 -12.930   3.807  0.00  0.00    +0.417 C 
ATOM     29  F   LIG    1       28.439 -12.350   5.027  0.00  0.00    -0.166 F 
ATOM     30  F   LIG    1       28.190 -11.902   2.914  0.00  0.00    -0.166 F 
ATOM     31  F   LIG    1       29.426 -13.580   3.532  0.00  0.00    -0.166 F 
ENDBRANCH  24  28
ENDBRANCH  20  22
ENDBRANCH   2  20
TORSDOF 6
ENDMDL
MODEL 4
REMARK VINA RESULT:      -1.7      1.583      2.433
REMARK  Name = *****
REMARK                            x       y       z     vdW  Elec       q    Type
REMARK                         _______ _______ _______ _____ _____    ______ ____
ROOT
ATOM      1  C   LIG    1       27.550 -19.140   4.761  0.00  0.00    +0.099 A 
ATOM      2  C   LIG    1       28.262 -17.926   4.750  0.00  0.00    +0.137 A 
ATOM      3  N   LIG    1       29.213 -17.689   5.690  0.00  0.00    -0.239 NA
ATOM      4  C   LIG    1       29.475 -18.639   6.619  0.00  0.00    +0.113 A 
ATOM      5  C   LIG    1       28.831 -19.857   6.679  0.00  0.00    +0.021 A 
ATOM      6  C   LIG    1       27.853 -20.111   5.732  0.00  0.00    +0.020 A 
ENDROOT
BRANCH   1   8
ATOM      7  O   LIG    1       25.832 -18.537   3.197  0.00  0.00    -0.245 OA
ATOM      8  C   LIG    1       26.449 -19.392   3.796  0.00  0.00    +0.346 C 
BRANCH   8   9
ATOM      9  O   LIG    1       26.235 -20.727   3.759  0.00  0.00    -0.417 OA
BRANCH   9  10
ATOM     10  C   LIG    1       24.910 -21.164   3.474  0.00  0.00    +0.403 C 
ATOM     11  C   LIG    1       24.081 -20.785   4.649  0.00  0.00    +0.047 A 
ATOM     12  C   LIG    1       23.176 -19.820   4.272  0.00  0.00    +0.069 A 
ATOM     13  C   LIG    1       22.330 -19.192   5.168  0.00  0.00    +0.015 A 
ATOM     14  C   LIG    1       22.418 -19.568   6.510  0.00  0.00    +0.001 A 
ATOM     15  C   LIG    1       23.317 -20.572   6.905  0.00  0.00    +0.001 A 
ATOM     16  C   LIG    1       23.311 -19.585   2.836  0.00  0.00    +0.343 C 
ATOM     17  O   LIG    1       22.638 -18.840   2.164  0.00  0.00    -0.245 OA
ATOM     18  C   LIG    1       24.154 -21.195   5.972  0.00  0.00    +0.012 A 
ATOM     19  O   LIG    1       24.344 -20.377   2.410  0.00  0.00    -0.417 OA
ENDBRANCH   9  10
ENDBRANCH   8   9
ENDBRANCH   1   8
BRANCH   2  20
ATOM     20  N   LIG    1       27.929 -16.920   3.816  0.00  0.00    -0.299 N 
ATOM     21  H   LIG    1       28.390 -17.079   2.921  0.00  0.00    +0.154 HD
BRANCH  20  22
ATOM     22  C   LIG    1       27.413 -15.618   3.961  0.00  0.00    +0.033 A 
ATOM     23  C   LIG    1       26.027 -15.428   3.819  0.00  0.00    +0.035 A 
ATOM     24  C   LIG    1       25.411 -14.185   4.063  0.00  0.00    +0.057 A 
ATOM     25  C   LIG    1       26.206 -13.104   4.458  0.00  0.00    +0.012 A 
ATOM     26  C   LIG    1       27.580 -13.271   4.608  0.00  0.00    +0.002 A 
ATOM     27  C   LIG    1       28.173 -14.517   4.369  0.00  0.00    +0.023 A 
BRANCH  24  28
ATOM     28  C   LIG    1       23.917 -14.045   3.917  0.00  0.00    +0.417 C 
ATOM     29  F   LIG    1       23.270 -15.242   3.989  0.00  0.00    -0.166 F 
ATOM     30  F   LIG    1       23.558 -13.499   2.721  0.00  0.00    -0.166 F 
ATOM     31  F   LIG    1       23.343 -13.258   4.870  0.00  0.00    -0.166 F 
ENDBRANCH  24  28
ENDBRANCH  20  22
ENDBRANCH   2  20
TORSDOF 6
ENDMDL
