MODEL 1
REMARK VINA RESULT:       4.6      0.000      0.000
REMARK  Name = *****
REMARK                            x       y       z     vdW  Elec       q    Type
REMARK                         _______ _______ _______ _____ _____    ______ ____
ROOT
ATOM      1  C   LIG    1       22.782 -20.309   4.480  0.00  0.00    +0.162 A 
ATOM      2  C   LIG    1       24.184 -20.249   4.435  0.00  0.00    +0.162 A 
ATOM      3  C   LIG    1       24.808 -19.005   4.219  0.00  0.00    +0.054 A 
ATOM      4  C   LIG    1       24.066 -17.812   4.110  0.00  0.00    -0.023 A 
ATOM      5  C   LIG    1       24.781 -16.468   4.063  0.00  0.00    +0.091 C 
ATOM      6  N   LIG    1       23.925 -15.278   4.163  0.00  0.00    -0.295 NA
ATOM      7  C   LIG    1       22.677 -15.476   4.900  0.00  0.00    +0.089 C 
ATOM      8  C   LIG    1       21.850 -16.636   4.342  0.00  0.00    +0.051 C 
ATOM      9  C   LIG    1       24.690 -14.140   4.701  0.00  0.00    +0.092 C 
ATOM     10  C   LIG    1       26.166 -14.066   4.229  0.00  0.00    +0.044 C 
ATOM     11  C   LIG    1       26.346 -14.814   2.868  0.00  0.00    +0.182 C 
ATOM     12  C   LIG    1       25.659 -16.212   2.819  0.00  0.00    +0.068 C 
ATOM     13  C   LIG    1       22.674 -17.889   4.244  0.00  0.00    -0.038 A 
ATOM     14  C   LIG    1       22.041 -19.133   4.350  0.00  0.00    +0.053 A 
ENDROOT
BRANCH   1  16
ATOM     15  C   LIG    1       20.768 -21.540   4.814  0.00  0.00    +0.277 C 
ATOM     16  O   LIG    1       22.172 -21.523   4.617  0.00  0.00    -0.491 OA
ENDBRANCH   1  16
BRANCH   2  17
ATOM     17  O   LIG    1       25.064 -21.291   4.619  0.00  0.00    -0.491 OA
ATOM     18  C   LIG    1       25.509 -21.543   5.950  0.00  0.00    +0.277 C 
ENDBRANCH   2  17
BRANCH  10  19
ATOM     19  C   LIG    1       27.218 -14.531   5.301  0.00  0.00    +0.011 C 
BRANCH  19  20
ATOM     20  C   LIG    1       28.560 -13.745   5.387  0.00  0.00    -0.017 C 
ATOM     21  C   LIG    1       28.519 -12.541   6.329  0.00  0.00    +0.007 C 
ATOM     22  C   LIG    1       29.014 -13.248   4.002  0.00  0.00    +0.007 C 
ENDBRANCH  19  20
ENDBRANCH  10  19
BRANCH  11  23
ATOM     23  O   LIG    1       25.810 -13.956   1.815  0.00  0.00    -0.460 OA
BRANCH  23  24
ATOM     24  C   LIG    1       25.808 -12.606   2.048  0.00  0.00    +0.325 C 
ATOM     25  O   LIG    1       26.808 -11.918   2.122  0.00  0.00    -0.249 OA
BRANCH  24  26
ATOM     26  C   LIG    1       24.367 -12.041   2.249  0.00  0.00    +0.163 C 
BRANCH  26  27
ATOM     27  C   LIG    1       24.115 -11.448   3.655  0.00  0.00    +0.011 C 
ATOM     28  C   LIG    1       25.241 -11.771   4.643  0.00  0.00    +0.009 C 
ATOM     29  C   LIG    1       22.782 -11.908   4.263  0.00  0.00    +0.009 C 
ENDBRANCH  26  27
BRANCH  26  30
ATOM     30  N   LIG    1       23.370 -13.095   1.923  0.00  0.00    -0.318 NA
ATOM     31  H   LIG    1       23.634 -13.517   1.030  0.00  0.00    +0.119 HD
ATOM     32  H   LIG    1       23.468 -13.856   2.598  0.00  0.00    +0.119 HD
ENDBRANCH  26  30
ENDBRANCH  24  26
ENDBRANCH  23  24
ENDBRANCH  11  23
TORSDOF 9
ENDMDL
MODEL 2
REMARK VINA RESULT:       5.7      1.315      1.759
REMARK  Name = *****
REMARK                            x       y       z     vdW  Elec       q    Type
REMARK                         _______ _______ _______ _____ _____    ______ ____
ROOT
ATOM      1  C   LIG    1       21.959 -19.799   4.558  0.00  0.00    +0.162 A 
ATOM      2  C   LIG    1       23.299 -20.150   4.332  0.00  0.00    +0.162 A 
ATOM      3  C   LIG    1       24.242 -19.132   4.095  0.00  0.00    +0.054 A 
ATOM      4  C   LIG    1       23.888 -17.768   4.140  0.00  0.00    -0.023 A 
ATOM      5  C   LIG    1       24.966 -16.695   4.063  0.00  0.00    +0.091 C 
ATOM      6  N   LIG    1       24.527 -15.319   4.331  0.00  0.00    -0.295 NA
ATOM      7  C   LIG    1       23.367 -15.202   5.215  0.00  0.00    +0.089 C 
ATOM      8  C   LIG    1       22.171 -16.016   4.717  0.00  0.00    +0.051 C 
ATOM      9  C   LIG    1       25.654 -14.506   4.817  0.00  0.00    +0.092 C 
ATOM     10  C   LIG    1       27.022 -14.829   4.159  0.00  0.00    +0.044 C 
ATOM     11  C   LIG    1       26.814 -15.480   2.752  0.00  0.00    +0.182 C 
ATOM     12  C   LIG    1       25.736 -16.605   2.728  0.00  0.00    +0.068 C 
ATOM     13  C   LIG    1       22.562 -17.444   4.452  0.00  0.00    -0.038 A 
ATOM     14  C   LIG    1       21.598 -18.451   4.582  0.00  0.00    +0.053 A 
ENDROOT
BRANCH   1  16
ATOM     15  C   LIG    1       20.059 -20.952   3.697  0.00  0.00    +0.277 C 
ATOM     16  O   LIG    1       21.029 -20.788   4.717  0.00  0.00    -0.491 OA
ENDBRANCH   1  16
BRANCH   2  17
ATOM     17  O   LIG    1       23.838 -21.417   4.350  0.00  0.00    -0.491 OA
ATOM     18  C   LIG    1       25.139 -21.565   4.914  0.00  0.00    +0.277 C 
ENDBRANCH   2  17
BRANCH  10  19
ATOM     19  C   LIG    1       27.996 -15.672   5.060  0.00  0.00    +0.011 C 
BRANCH  19  20
ATOM     20  C   LIG    1       28.456 -17.061   4.525  0.00  0.00    -0.017 C 
ATOM     21  C   LIG    1       27.311 -18.038   4.256  0.00  0.00    +0.007 C 
ATOM     22  C   LIG    1       29.442 -17.741   5.492  0.00  0.00    +0.007 C 
ENDBRANCH  19  20
ENDBRANCH  10  19
BRANCH  11  23
ATOM     23  O   LIG    1       26.449 -14.417   1.820  0.00  0.00    -0.460 OA
BRANCH  23  24
ATOM     24  C   LIG    1       26.507 -13.129   2.286  0.00  0.00    +0.325 C 
ATOM     25  O   LIG    1       27.489 -12.624   2.794  0.00  0.00    -0.249 OA
BRANCH  24  26
ATOM     26  C   LIG    1       25.149 -12.379   2.125  0.00  0.00    +0.163 C 
BRANCH  26  27
ATOM     27  C   LIG    1       24.769 -11.500   3.340  0.00  0.00    +0.011 C 
ATOM     28  C   LIG    1       25.457 -11.950   4.633  0.00  0.00    +0.009 C 
ATOM     29  C   LIG    1       23.254 -11.447   3.584  0.00  0.00    +0.009 C 
ENDBRANCH  26  27
BRANCH  26  30
ATOM     30  N   LIG    1       24.073 -13.358   1.813  0.00  0.00    -0.318 NA
ATOM     31  H   LIG    1       24.451 -14.046   1.158  0.00  0.00    +0.119 HD
ATOM     32  H   LIG    1       23.870 -13.899   2.656  0.00  0.00    +0.119 HD
ENDBRANCH  26  30
ENDBRANCH  24  26
ENDBRANCH  23  24
ENDBRANCH  11  23
TORSDOF 9
ENDMDL
MODEL 3
REMARK VINA RESULT:       6.2      2.070      4.107
REMARK  Name = *****
REMARK                            x       y       z     vdW  Elec       q    Type
REMARK                         _______ _______ _______ _____ _____    ______ ____
ROOT
ATOM      1  C   LIG    1       22.313 -20.065   4.129  0.00  0.00    +0.162 A 
ATOM      2  C   LIG    1       21.660 -18.844   3.900  0.00  0.00    +0.162 A 
ATOM      3  C   LIG    1       22.418 -17.657   3.879  0.00  0.00    +0.054 A 
ATOM      4  C   LIG    1       23.821 -17.670   4.017  0.00  0.00    -0.023 A 
ATOM      5  C   LIG    1       24.623 -16.393   3.804  0.00  0.00    +0.091 C 
ATOM      6  N   LIG    1       26.083 -16.548   3.760  0.00  0.00    -0.295 NA
ATOM      7  C   LIG    1       26.551 -17.854   3.295  0.00  0.00    +0.089 C 
ATOM      8  C   LIG    1       25.954 -19.007   4.104  0.00  0.00    +0.051 C 
ATOM      9  C   LIG    1       26.691 -15.454   2.984  0.00  0.00    +0.092 C 
ATOM     10  C   LIG    1       26.006 -14.073   3.158  0.00  0.00    +0.044 C 
ATOM     11  C   LIG    1       25.246 -14.005   4.523  0.00  0.00    +0.182 C 
ATOM     12  C   LIG    1       24.382 -15.264   4.829  0.00  0.00    +0.068 C 
ATOM     13  C   LIG    1       24.455 -18.911   4.158  0.00  0.00    -0.038 A 
ATOM     14  C   LIG    1       23.700 -20.082   4.288  0.00  0.00    +0.053 A 
ENDROOT
BRANCH   1  16
ATOM     15  C   LIG    1       21.074 -21.572   5.499  0.00  0.00    +0.277 C 
ATOM     16  O   LIG    1       21.572 -21.209   4.222  0.00  0.00    -0.491 OA
ENDBRANCH   1  16
BRANCH   2  17
ATOM     17  O   LIG    1       20.320 -18.655   3.649  0.00  0.00    -0.491 OA
ATOM     18  C   LIG    1       19.969 -18.028   2.417  0.00  0.00    +0.277 C 
ENDBRANCH   2  17
BRANCH  10  19
ATOM     19  C   LIG    1       25.093 -13.641   1.953  0.00  0.00    +0.011 C 
BRANCH  19  20
ATOM     20  C   LIG    1       23.831 -12.785   2.272  0.00  0.00    -0.017 C 
ATOM     21  C   LIG    1       24.138 -11.447   2.945  0.00  0.00    +0.007 C 
ATOM     22  C   LIG    1       22.841 -13.550   3.169  0.00  0.00    +0.007 C 
ENDBRANCH  19  20
ENDBRANCH  10  19
BRANCH  11  23
ATOM     23  O   LIG    1       26.239 -13.811   5.575  0.00  0.00    -0.460 OA
BRANCH  23  24
ATOM     24  C   LIG    1       27.556 -13.784   5.196  0.00  0.00    +0.325 C 
ATOM     25  O   LIG    1       28.245 -14.771   5.028  0.00  0.00    -0.249 OA
BRANCH  24  26
ATOM     26  C   LIG    1       28.096 -12.329   5.035  0.00  0.00    +0.163 C 
BRANCH  26  27
ATOM     27  C   LIG    1       28.773 -12.057   3.671  0.00  0.00    +0.011 C 
ATOM     28  C   LIG    1       27.797 -11.499   2.628  0.00  0.00    +0.009 C 
ATOM     29  C   LIG    1       29.454 -13.303   3.087  0.00  0.00    +0.009 C 
ENDBRANCH  26  27
BRANCH  26  30
ATOM     30  N   LIG    1       29.012 -12.010   6.162  0.00  0.00    -0.318 NA
ATOM     31  H   LIG    1       29.400 -11.077   6.002  0.00  0.00    +0.119 HD
ATOM     32  H   LIG    1       28.458 -11.908   7.014  0.00  0.00    +0.119 HD
ENDBRANCH  26  30
ENDBRANCH  24  26
ENDBRANCH  23  24
ENDBRANCH  11  23
TORSDOF 9
ENDMDL
