MODEL 1
REMARK VINA RESULT:      -4.3      0.000      0.000
REMARK  Name = *****
REMARK                            x       y       z     vdW  Elec       q    Type
REMARK                         _______ _______ _______ _____ _____    ______ ____
ROOT
ATOM      1  CA  LIG    1       26.332 -13.219   4.034  0.00  0.00    +0.176 C 
ENDROOT
BRANCH   1   3
ATOM      2  C   LIG    1       24.146 -12.133   4.886  0.00  0.00    +0.024 C 
ATOM      3  C   LIG    1       24.781 -13.116   3.893  0.00  0.00    +0.034 C 
ATOM      4  C   LIG    1       24.095 -14.486   4.004  0.00  0.00    +0.024 C 
BRANCH   3   5
ATOM      5  S   LIG    1       24.407 -12.478   2.186  0.00  0.00    -0.170 S 
ATOM      6  H   LIG    1       24.240 -13.674   1.599  0.00  0.00    +0.102 HD
ENDBRANCH   3   5
ENDBRANCH   1   3
BRANCH   1   7
ATOM      7  N   LIG    1       26.816 -13.446   5.445  0.00  0.00    -0.317 NA
ATOM      8  H1  LIG    1       26.211 -12.871   6.046  0.00  0.00    +0.119 HD
ATOM      9  H2  LIG    1       26.567 -14.403   5.720  0.00  0.00    +0.119 HD
ENDBRANCH   1   7
BRANCH   1  10
ATOM     10  C   LIG    1       26.972 -14.317   3.154  0.00  0.00    +0.323 C 
ATOM     11  O   LIG    1       26.899 -14.409   1.942  0.00  0.00    -0.249 OA
BRANCH  10  12
ATOM     12  OXT LIG    1       27.699 -15.180   3.916  0.00  0.00    -0.479 OA
ATOM     13  HXT LIG    1       28.087 -15.837   3.282  0.00  0.00    +0.295 HD
ENDBRANCH  10  12
ENDBRANCH   1  10
TORSDOF 5
ENDMDL
MODEL 2
REMARK VINA RESULT:      -4.3      1.096      1.490
REMARK  Name = *****
REMARK                            x       y       z     vdW  Elec       q    Type
REMARK                         _______ _______ _______ _____ _____    ______ ____
ROOT
ATOM      1  CA  LIG    1       26.221 -13.210   3.945  0.00  0.00    +0.176 C 
ENDROOT
BRANCH   1   3
ATOM      2  C   LIG    1       23.982 -14.491   4.115  0.00  0.00    +0.024 C 
ATOM      3  C   LIG    1       24.673 -13.170   3.749  0.00  0.00    +0.034 C 
ATOM      4  C   LIG    1       24.278 -12.753   2.324  0.00  0.00    +0.024 C 
BRANCH   3   5
ATOM      5  S   LIG    1       23.990 -11.867   4.887  0.00  0.00    -0.170 S 
ATOM      6  H   LIG    1       24.207 -10.817   4.079  0.00  0.00    +0.102 HD
ENDBRANCH   3   5
ENDBRANCH   1   3
BRANCH   1   7
ATOM      7  N   LIG    1       26.665 -13.398   5.375  0.00  0.00    -0.317 NA
ATOM      8  H1  LIG    1       26.067 -14.141   5.760  0.00  0.00    +0.119 HD
ATOM      9  H2  LIG    1       27.594 -13.832   5.369  0.00  0.00    +0.119 HD
ENDBRANCH   1   7
BRANCH   1  10
ATOM     10  C   LIG    1       26.934 -14.295   3.105  0.00  0.00    +0.323 C 
ATOM     11  O   LIG    1       26.899 -14.412   1.893  0.00  0.00    -0.249 OA
BRANCH  10  12
ATOM     12  OXT LIG    1       27.677 -15.110   3.903  0.00  0.00    -0.479 OA
ATOM     13  HXT LIG    1       28.555 -14.660   4.006  0.00  0.00    +0.295 HD
ENDBRANCH  10  12
ENDBRANCH   1  10
TORSDOF 5
ENDMDL
MODEL 3
REMARK VINA RESULT:      -4.0      1.191      1.915
REMARK  Name = *****
REMARK                            x       y       z     vdW  Elec       q    Type
REMARK                         _______ _______ _______ _____ _____    ______ ____
ROOT
ATOM      1  CA  LIG    1       26.246 -13.268   3.977  0.00  0.00    +0.176 C 
ENDROOT
BRANCH   1   3
ATOM      2  C   LIG    1       24.340 -12.753   2.309  0.00  0.00    +0.024 C 
ATOM      3  C   LIG    1       24.713 -13.072   3.763  0.00  0.00    +0.034 C 
ATOM      4  C   LIG    1       24.127 -12.002   4.697  0.00  0.00    +0.024 C 
BRANCH   3   5
ATOM      5  S   LIG    1       23.869 -14.671   4.200  0.00  0.00    -0.170 S 
ATOM      6  H   LIG    1       24.174 -14.662   5.508  0.00  0.00    +0.102 HD
ENDBRANCH   3   5
ENDBRANCH   1   3
BRANCH   1   7
ATOM      7  N   LIG    1       26.659 -13.423   5.421  0.00  0.00    -0.317 NA
ATOM      8  H1  LIG    1       25.804 -13.678   5.932  0.00  0.00    +0.119 HD
ATOM      9  H2  LIG    1       27.233 -14.269   5.501  0.00  0.00    +0.119 HD
ENDBRANCH   1   7
BRANCH   1  10
ATOM     10  C   LIG    1       26.841 -14.468   3.206  0.00  0.00    +0.323 C 
ATOM     11  O   LIG    1       27.120 -15.560   3.667  0.00  0.00    -0.249 OA
BRANCH  10  12
ATOM     12  OXT LIG    1       26.979 -14.170   1.884  0.00  0.00    -0.479 OA
ATOM     13  HXT LIG    1       27.438 -14.949   1.479  0.00  0.00    +0.295 HD
ENDBRANCH  10  12
ENDBRANCH   1  10
TORSDOF 5
ENDMDL
MODEL 4
REMARK VINA RESULT:      -4.0      2.814      3.591
REMARK  Name = *****
REMARK                            x       y       z     vdW  Elec       q    Type
REMARK                         _______ _______ _______ _____ _____    ______ ____
ROOT
ATOM      1  CA  LIG    1       26.037 -13.344   3.157  0.00  0.00    +0.176 C 
ENDROOT
BRANCH   1   3
ATOM      2  C   LIG    1       27.419 -15.340   4.047  0.00  0.00    +0.024 C 
ATOM      3  C   LIG    1       27.113 -13.841   4.172  0.00  0.00    +0.034 C 
ATOM      4  C   LIG    1       26.742 -13.505   5.624  0.00  0.00    +0.024 C 
BRANCH   3   5
ATOM      5  S   LIG    1       28.697 -12.934   3.811  0.00  0.00    -0.170 S 
ATOM      6  H   LIG    1       28.158 -11.962   3.057  0.00  0.00    +0.102 HD
ENDBRANCH   3   5
ENDBRANCH   1   3
BRANCH   1   7
ATOM      7  N   LIG    1       26.084 -14.030   1.813  0.00  0.00    -0.317 NA
ATOM      8  H1  LIG    1       27.027 -13.858   1.442  0.00  0.00    +0.119 HD
ATOM      9  H2  LIG    1       26.082 -15.044   1.969  0.00  0.00    +0.119 HD
ENDBRANCH   1   7
BRANCH   1  10
ATOM     10  C   LIG    1       24.585 -13.460   3.673  0.00  0.00    +0.323 C 
ATOM     11  O   LIG    1       24.007 -14.485   3.987  0.00  0.00    -0.249 OA
BRANCH  10  12
ATOM     12  OXT LIG    1       24.015 -12.228   3.787  0.00  0.00    -0.479 OA
ATOM     13  HXT LIG    1       24.046 -11.832   2.879  0.00  0.00    +0.295 HD
ENDBRANCH  10  12
ENDBRANCH   1  10
TORSDOF 5
ENDMDL
MODEL 5
REMARK VINA RESULT:      -4.0      7.024      7.730
REMARK  Name = *****
REMARK                            x       y       z     vdW  Elec       q    Type
REMARK                         _______ _______ _______ _____ _____    ______ ____
ROOT
ATOM      1  CA  LIG    1       24.220 -21.243   4.422  0.00  0.00    +0.176 C 
ENDROOT
BRANCH   1   3
ATOM      2  C   LIG    1       21.724 -21.571   5.007  0.00  0.00    +0.024 C 
ATOM      3  C   LIG    1       22.993 -20.742   5.245  0.00  0.00    +0.034 C 
ATOM      4  C   LIG    1       22.696 -19.255   4.999  0.00  0.00    +0.024 C 
BRANCH   3   5
ATOM      5  S   LIG    1       23.415 -20.902   7.049  0.00  0.00    -0.170 S 
ATOM      6  H   LIG    1       24.483 -21.701   6.895  0.00  0.00    +0.102 HD
ENDBRANCH   3   5
ENDBRANCH   1   3
BRANCH   1   7
ATOM      7  N   LIG    1       23.917 -21.553   2.976  0.00  0.00    -0.317 NA
ATOM      8  H1  LIG    1       22.892 -21.594   2.906  0.00  0.00    +0.119 HD
ATOM      9  H2  LIG    1       24.151 -20.728   2.414  0.00  0.00    +0.119 HD
ENDBRANCH   1   7
BRANCH   1  10
ATOM     10  C   LIG    1       25.424 -20.273   4.433  0.00  0.00    +0.323 C 
ATOM     11  O   LIG    1       26.189 -20.079   5.360  0.00  0.00    -0.249 OA
BRANCH  10  12
ATOM     12  OXT LIG    1       25.568 -19.671   3.220  0.00  0.00    -0.479 OA
ATOM     13  HXT LIG    1       26.049 -18.823   3.396  0.00  0.00    +0.295 HD
ENDBRANCH  10  12
ENDBRANCH   1  10
TORSDOF 5
ENDMDL
MODEL 6
REMARK VINA RESULT:      -4.0      6.955      7.500
REMARK  Name = *****
REMARK                            x       y       z     vdW  Elec       q    Type
REMARK                         _______ _______ _______ _____ _____    ______ ____
ROOT
ATOM      1  CA  LIG    1       24.230 -21.240   4.446  0.00  0.00    +0.176 C 
ENDROOT
BRANCH   1   3
ATOM      2  C   LIG    1       23.302 -20.606   6.774  0.00  0.00    +0.024 C 
ATOM      3  C   LIG    1       23.012 -20.721   5.271  0.00  0.00    +0.034 C 
ATOM      4  C   LIG    1       21.752 -21.572   5.047  0.00  0.00    +0.024 C 
BRANCH   3   5
ATOM      5  S   LIG    1       22.604 -19.010   4.666  0.00  0.00    -0.170 S 
ATOM      6  H   LIG    1       21.965 -18.595   5.772  0.00  0.00    +0.102 HD
ENDBRANCH   3   5
ENDBRANCH   1   3
BRANCH   1   7
ATOM      7  N   LIG    1       23.919 -21.549   3.002  0.00  0.00    -0.317 NA
ATOM      8  H1  LIG    1       24.262 -22.505   2.838  0.00  0.00    +0.119 HD
ATOM      9  H2  LIG    1       22.903 -21.653   2.907  0.00  0.00    +0.119 HD
ENDBRANCH   1   7
BRANCH   1  10
ATOM     10  C   LIG    1       25.447 -20.287   4.452  0.00  0.00    +0.323 C 
ATOM     11  O   LIG    1       26.218 -20.102   5.376  0.00  0.00    -0.249 OA
BRANCH  10  12
ATOM     12  OXT LIG    1       25.594 -19.687   3.238  0.00  0.00    -0.479 OA
ATOM     13  HXT LIG    1       26.097 -20.333   2.678  0.00  0.00    +0.295 HD
ENDBRANCH  10  12
ENDBRANCH   1  10
TORSDOF 5
ENDMDL
MODEL 7
REMARK VINA RESULT:      -4.0      1.713      1.998
REMARK  Name = *****
REMARK                            x       y       z     vdW  Elec       q    Type
REMARK                         _______ _______ _______ _____ _____    ______ ____
ROOT
ATOM      1  CA  LIG    1       26.231 -14.214   3.511  0.00  0.00    +0.176 C 
ENDROOT
BRANCH   1   3
ATOM      2  C   LIG    1       24.847 -12.471   4.825  0.00  0.00    +0.024 C 
ATOM      3  C   LIG    1       24.840 -13.541   3.725  0.00  0.00    +0.034 C 
ATOM      4  C   LIG    1       23.733 -14.568   4.004  0.00  0.00    +0.024 C 
BRANCH   3   5
ATOM      5  S   LIG    1       24.375 -12.684   2.140  0.00  0.00    -0.170 S 
ATOM      6  H   LIG    1       25.574 -12.783   1.545  0.00  0.00    +0.102 HD
ENDBRANCH   3   5
ENDBRANCH   1   3
BRANCH   1   7
ATOM      7  N   LIG    1       26.635 -14.368   2.065  0.00  0.00    -0.317 NA
ATOM      8  H1  LIG    1       27.409 -13.708   1.917  0.00  0.00    +0.119 HD
ATOM      9  H2  LIG    1       27.090 -15.281   1.953  0.00  0.00    +0.119 HD
ENDBRANCH   1   7
BRANCH   1  10
ATOM     10  C   LIG    1       27.396 -13.496   4.231  0.00  0.00    +0.323 C 
ATOM     11  O   LIG    1       27.602 -13.473   5.431  0.00  0.00    -0.249 OA
BRANCH  10  12
ATOM     12  OXT LIG    1       28.229 -12.907   3.328  0.00  0.00    -0.479 OA
ATOM     13  HXT LIG    1       27.650 -12.340   2.757  0.00  0.00    +0.295 HD
ENDBRANCH  10  12
ENDBRANCH   1  10
TORSDOF 5
ENDMDL
MODEL 8
REMARK VINA RESULT:      -3.9      2.885      3.572
REMARK  Name = *****
REMARK                            x       y       z     vdW  Elec       q    Type
REMARK                         _______ _______ _______ _____ _____    ______ ____
ROOT
ATOM      1  CA  LIG    1       25.851 -13.212   3.191  0.00  0.00    +0.176 C 
ENDROOT
BRANCH   1   3
ATOM      2  C   LIG    1       26.775 -13.558   5.581  0.00  0.00    +0.024 C 
ATOM      3  C   LIG    1       27.017 -13.749   4.078  0.00  0.00    +0.034 C 
ATOM      4  C   LIG    1       28.372 -13.139   3.688  0.00  0.00    +0.024 C 
BRANCH   3   5
ATOM      5  S   LIG    1       27.160 -15.580   3.781  0.00  0.00    -0.170 S 
ATOM      6  H   LIG    1       26.601 -15.590   2.560  0.00  0.00    +0.102 HD
ENDBRANCH   3   5
ENDBRANCH   1   3
BRANCH   1   7
ATOM      7  N   LIG    1       25.771 -13.837   1.820  0.00  0.00    -0.317 NA
ATOM      8  H1  LIG    1       26.571 -13.463   1.293  0.00  0.00    +0.119 HD
ATOM      9  H2  LIG    1       26.001 -14.833   1.906  0.00  0.00    +0.119 HD
ENDBRANCH   1   7
BRANCH   1  10
ATOM     10  C   LIG    1       24.453 -13.357   3.835  0.00  0.00    +0.323 C 
ATOM     11  O   LIG    1       23.856 -14.397   4.045  0.00  0.00    -0.249 OA
BRANCH  10  12
ATOM     12  OXT LIG    1       23.964 -12.140   4.202  0.00  0.00    -0.479 OA
ATOM     13  HXT LIG    1       23.045 -12.308   4.533  0.00  0.00    +0.295 HD
ENDBRANCH  10  12
ENDBRANCH   1  10
TORSDOF 5
ENDMDL
MODEL 9
REMARK VINA RESULT:      -3.8      2.590      3.245
REMARK  Name = *****
REMARK                            x       y       z     vdW  Elec       q    Type
REMARK                         _______ _______ _______ _____ _____    ______ ____
ROOT
ATOM      1  CA  LIG    1       25.724 -13.850   4.744  0.00  0.00    +0.176 C 
ENDROOT
BRANCH   1   3
ATOM      2  C   LIG    1       26.114 -13.691   2.193  0.00  0.00    +0.024 C 
ATOM      3  C   LIG    1       26.646 -14.207   3.537  0.00  0.00    +0.034 C 
ATOM      4  C   LIG    1       26.922 -15.716   3.442  0.00  0.00    +0.024 C 
BRANCH   3   5
ATOM      5  S   LIG    1       28.293 -13.389   3.817  0.00  0.00    -0.170 S 
ATOM      6  H   LIG    1       28.484 -13.836   5.069  0.00  0.00    +0.102 HD
ENDBRANCH   3   5
ENDBRANCH   1   3
BRANCH   1   7
ATOM      7  N   LIG    1       26.266 -12.765   5.642  0.00  0.00    -0.317 NA
ATOM      8  H1  LIG    1       26.265 -11.905   5.078  0.00  0.00    +0.119 HD
ATOM      9  H2  LIG    1       25.564 -12.564   6.363  0.00  0.00    +0.119 HD
ENDBRANCH   1   7
BRANCH   1  10
ATOM     10  C   LIG    1       24.293 -13.429   4.340  0.00  0.00    +0.323 C 
ATOM     11  O   LIG    1       23.892 -12.291   4.173  0.00  0.00    -0.249 OA
BRANCH  10  12
ATOM     12  OXT LIG    1       23.509 -14.524   4.135  0.00  0.00    -0.479 OA
ATOM     13  HXT LIG    1       24.095 -15.198   3.705  0.00  0.00    +0.295 HD
ENDBRANCH  10  12
ENDBRANCH   1  10
TORSDOF 5
ENDMDL
