MODEL 1
REMARK VINA RESULT:      -8.6      0.000      0.000
REMARK  Name = *****
REMARK                            x       y       z     vdW  Elec       q    Type
REMARK                         _______ _______ _______ _____ _____    ______ ____
ROOT
ATOM      1  CA  ALA A  1       27.880 -19.985   7.028  0.00  0.00    +0.138 C 
ATOM      2  CB  ALA A  1       28.642 -20.284   5.732  0.00  0.00    +0.034 C 
ENDROOT
BRANCH   1   3
ATOM      3  C   ALA A  1       26.996 -21.223   7.345  0.00  0.00    +0.233 C 
ATOM      4  N   UNK A  2       25.790 -21.401   6.673  0.00  0.00    -0.283 N 
ATOM      5  C   UNK A  2       24.933 -20.322   6.123  0.00  0.00    +0.080 C 
ATOM      6  C   UNK A  2       23.491 -20.848   6.310  0.00  0.00    +0.012 C 
ATOM      7  C   UNK A  2       22.429 -20.349   5.330  0.00  0.00    +0.005 C 
ATOM      8  C   UNK A  2       22.939 -20.245   3.900  0.00  0.00    +0.000 C 
ATOM      9  C   UNK A  2       24.183 -19.372   3.861  0.00  0.00    +0.002 C 
ATOM     10  C   UNK A  2       23.662 -22.359   6.250  0.00  0.00    +0.039 C 
ATOM     11  C   UNK A  2       25.314 -19.996   4.673  0.00  0.00    +0.023 C 
ATOM     12  C   UNK A  2       24.977 -22.602   6.984  0.00  0.00    +0.185 C 
ATOM     13  O   ALA A  1       27.437 -22.148   8.037  0.00  0.00    -0.274 OA
BRANCH  12  14
ATOM     14  C   UNK A  2       25.484 -23.985   6.517  0.00  0.00    +0.326 C 
ATOM     15  O   UNK A  2       25.876 -24.864   7.258  0.00  0.00    -0.249 OA
BRANCH  14  16
ATOM     16  O   UNK A  2       25.405 -24.181   5.173  0.00  0.00    -0.479 OA
ATOM     17  H   UNK A  2       24.661 -24.769   4.960  0.00  0.00    +0.295 HD
ENDBRANCH  14  16
ENDBRANCH  12  14
ENDBRANCH   1   3
BRANCH   1  18
ATOM     18  N   ALA A  1       28.798 -19.758   8.165  0.00  0.00    -0.294 NA
ATOM     19  H   ALA A  1       28.741 -20.576   8.789  0.00  0.00    +0.123 HD
BRANCH  18  20
ATOM     20  C   UNK A  0       30.232 -19.514   7.830  0.00  0.00    +0.164 C 
BRANCH  20  21
ATOM     21  C   UNK A  0       31.106 -20.208   8.865  0.00  0.00    +0.324 C 
ATOM     22  O   UNK A  0       32.241 -19.915   9.165  0.00  0.00    -0.249 OA
BRANCH  21  23
ATOM     23  O   UNK A  0       30.408 -21.273   9.393  0.00  0.00    -0.464 OA
BRANCH  23  25
ATOM     24  C   UNK A  0       31.844 -22.987   8.443  0.00  0.00    +0.048 C 
ATOM     25  C   UNK A  0       31.189 -22.443   9.711  0.00  0.00    +0.229 C 
ENDBRANCH  23  25
ENDBRANCH  21  23
ENDBRANCH  20  21
BRANCH  20  26
ATOM     26  C   UNK A  0       30.599 -18.005   7.842  0.00  0.00    +0.035 C 
BRANCH  26  27
ATOM     27  C   UNK A  0       29.996 -17.221   9.022  0.00  0.00    +0.037 C 
BRANCH  27  28
ATOM     28  C   UNK A  0       31.016 -16.807  10.052  0.00  0.00    -0.047 A 
ATOM     29  C   UNK A  0       30.928 -17.273  11.374  0.00  0.00    +0.003 A 
ATOM     30  C   UNK A  0       31.891 -16.919  12.319  0.00  0.00    +0.000 A 
ATOM     31  C   UNK A  0       32.935 -16.073  11.959  0.00  0.00    +0.000 A 
ATOM     32  C   UNK A  0       33.023 -15.591  10.653  0.00  0.00    +0.000 A 
ATOM     33  C   UNK A  0       32.075 -15.964   9.700  0.00  0.00    +0.003 A 
ENDBRANCH  27  28
ENDBRANCH  26  27
ENDBRANCH  20  26
ENDBRANCH  18  20
ENDBRANCH   1  18
TORSDOF 11
ENDMDL
MODEL 2
REMARK VINA RESULT:      -8.5      1.644      8.434
REMARK  Name = *****
REMARK                            x       y       z     vdW  Elec       q    Type
REMARK                         _______ _______ _______ _____ _____    ______ ____
ROOT
ATOM      1  CA  ALA A  1       27.264 -19.976   7.605  0.00  0.00    +0.138 C 
ATOM      2  CB  ALA A  1       26.371 -20.598   8.684  0.00  0.00    +0.034 C 
ENDROOT
BRANCH   1   3
ATOM      3  C   ALA A  1       28.613 -20.746   7.616  0.00  0.00    +0.233 C 
ATOM      4  N   UNK A  2       29.738 -20.163   8.193  0.00  0.00    -0.283 N 
ATOM      5  C   UNK A  2       30.010 -18.708   8.289  0.00  0.00    +0.080 C 
ATOM      6  C   UNK A  2       31.546 -18.597   8.144  0.00  0.00    +0.012 C 
ATOM      7  C   UNK A  2       32.229 -17.404   8.810  0.00  0.00    +0.005 C 
ATOM      8  C   UNK A  2       31.645 -17.066  10.174  0.00  0.00    +0.000 C 
ATOM      9  C   UNK A  2       30.145 -16.847  10.050  0.00  0.00    +0.002 C 
ATOM     10  C   UNK A  2       32.043 -19.925   8.697  0.00  0.00    +0.039 C 
ATOM     11  C   UNK A  2       29.444 -18.121   9.589  0.00  0.00    +0.023 C 
ATOM     12  C   UNK A  2       31.006 -20.930   8.205  0.00  0.00    +0.185 C 
ATOM     13  O   ALA A  1       28.656 -21.941   7.299  0.00  0.00    -0.274 OA
BRANCH  12  14
ATOM     14  C   UNK A  2       31.123 -22.161   9.133  0.00  0.00    +0.326 C 
ATOM     15  O   UNK A  2       30.615 -22.249  10.233  0.00  0.00    -0.249 OA
BRANCH  14  16
ATOM     16  O   UNK A  2       31.810 -23.202   8.590  0.00  0.00    -0.479 OA
ATOM     17  H   UNK A  2       31.843 -23.118   7.622  0.00  0.00    +0.295 HD
ENDBRANCH  14  16
ENDBRANCH  12  14
ENDBRANCH   1   3
BRANCH   1  18
ATOM     18  N   ALA A  1       26.663 -20.097   6.258  0.00  0.00    -0.294 NA
ATOM     19  H   ALA A  1       27.416 -20.331   5.594  0.00  0.00    +0.123 HD
BRANCH  18  20
ATOM     20  C   UNK A  0       25.562 -21.091   6.102  0.00  0.00    +0.164 C 
BRANCH  20  21
ATOM     21  C   UNK A  0       24.897 -20.885   4.749  0.00  0.00    +0.324 C 
ATOM     22  O   UNK A  0       24.501 -21.748   4.000  0.00  0.00    -0.249 OA
BRANCH  21  23
ATOM     23  O   UNK A  0       24.849 -19.533   4.480  0.00  0.00    -0.464 OA
BRANCH  23  25
ATOM     24  C   UNK A  0       22.470 -19.090   4.701  0.00  0.00    +0.048 C 
ATOM     25  C   UNK A  0       23.680 -19.074   3.769  0.00  0.00    +0.229 C 
ENDBRANCH  23  25
ENDBRANCH  21  23
ENDBRANCH  20  21
BRANCH  20  26
ATOM     26  C   UNK A  0       24.466 -20.943   7.191  0.00  0.00    +0.035 C 
BRANCH  26  27
ATOM     27  C   UNK A  0       23.478 -22.123   7.252  0.00  0.00    +0.037 C 
BRANCH  27  28
ATOM     28  C   UNK A  0       24.116 -23.456   6.949  0.00  0.00    -0.047 A 
ATOM     29  C   UNK A  0       23.359 -24.503   6.398  0.00  0.00    +0.003 A 
ATOM     30  C   UNK A  0       23.955 -25.723   6.084  0.00  0.00    +0.000 A 
ATOM     31  C   UNK A  0       25.308 -25.920   6.343  0.00  0.00    +0.000 A 
ATOM     32  C   UNK A  0       26.066 -24.893   6.904  0.00  0.00    +0.000 A 
ATOM     33  C   UNK A  0       25.477 -23.662   7.197  0.00  0.00    +0.003 A 
ENDBRANCH  27  28
ENDBRANCH  26  27
ENDBRANCH  20  26
ENDBRANCH  18  20
ENDBRANCH   1  18
TORSDOF 11
ENDMDL
MODEL 3
REMARK VINA RESULT:      -8.1      6.913     10.801
REMARK  Name = *****
REMARK                            x       y       z     vdW  Elec       q    Type
REMARK                         _______ _______ _______ _____ _____    ______ ____
ROOT
ATOM      1  CA  ALA A  1       25.812 -29.866   9.696  0.00  0.00    +0.138 C 
ATOM      2  CB  ALA A  1       25.651 -31.389   9.635  0.00  0.00    +0.034 C 
ENDROOT
BRANCH   1   3
ATOM      3  C   ALA A  1       26.939 -29.559  10.721  0.00  0.00    +0.233 C 
ATOM      4  N   UNK A  2       26.646 -28.841  11.877  0.00  0.00    -0.283 N 
ATOM      5  C   UNK A  2       25.571 -27.830  12.022  0.00  0.00    +0.080 C 
ATOM      6  C   UNK A  2       26.159 -26.786  13.000  0.00  0.00    +0.012 C 
ATOM      7  C   UNK A  2       25.172 -25.994  13.858  0.00  0.00    +0.005 C 
ATOM      8  C   UNK A  2       24.017 -26.840  14.374  0.00  0.00    +0.000 C 
ATOM      9  C   UNK A  2       23.316 -27.518  13.207  0.00  0.00    +0.002 C 
ATOM     10  C   UNK A  2       27.123 -27.606  13.845  0.00  0.00    +0.039 C 
ATOM     11  C   UNK A  2       24.259 -28.477  12.487  0.00  0.00    +0.023 C 
ATOM     12  C   UNK A  2       27.739 -28.580  12.845  0.00  0.00    +0.185 C 
ATOM     13  O   ALA A  1       28.043 -30.108  10.623  0.00  0.00    -0.274 OA
BRANCH  12  14
ATOM     14  C   UNK A  2       28.296 -29.759  13.674  0.00  0.00    +0.326 C 
ATOM     15  O   UNK A  2       27.679 -30.348  14.539  0.00  0.00    -0.249 OA
BRANCH  14  16
ATOM     16  O   UNK A  2       29.550 -30.145  13.317  0.00  0.00    -0.479 OA
ATOM     17  H   UNK A  2       29.515 -30.758  12.563  0.00  0.00    +0.295 HD
ENDBRANCH  14  16
ENDBRANCH  12  14
ENDBRANCH   1   3
BRANCH   1  18
ATOM     18  N   ALA A  1       26.201 -29.301   8.385  0.00  0.00    -0.294 NA
ATOM     19  H   ALA A  1       26.676 -30.041   7.848  0.00  0.00    +0.123 HD
BRANCH  18  20
ATOM     20  C   UNK A  0       25.103 -28.735   7.549  0.00  0.00    +0.164 C 
BRANCH  20  21
ATOM     21  C   UNK A  0       24.607 -29.810   6.590  0.00  0.00    +0.324 C 
ATOM     22  O   UNK A  0       23.564 -30.417   6.664  0.00  0.00    -0.249 OA
BRANCH  21  23
ATOM     23  O   UNK A  0       25.568 -30.019   5.624  0.00  0.00    -0.464 OA
BRANCH  23  25
ATOM     24  C   UNK A  0       26.598 -32.178   6.056  0.00  0.00    +0.048 C 
ATOM     25  C   UNK A  0       25.685 -31.371   5.135  0.00  0.00    +0.229 C 
ENDBRANCH  23  25
ENDBRANCH  21  23
ENDBRANCH  20  21
BRANCH  20  26
ATOM     26  C   UNK A  0       25.566 -27.523   6.695  0.00  0.00    +0.035 C 
BRANCH  26  27
ATOM     27  C   UNK A  0       24.411 -26.663   6.148  0.00  0.00    +0.037 C 
BRANCH  27  28
ATOM     28  C   UNK A  0       24.532 -25.202   6.500  0.00  0.00    -0.047 A 
ATOM     29  C   UNK A  0       23.393 -24.383   6.560  0.00  0.00    +0.003 A 
ATOM     30  C   UNK A  0       23.499 -23.040   6.920  0.00  0.00    +0.000 A 
ATOM     31  C   UNK A  0       24.749 -22.495   7.198  0.00  0.00    +0.000 A 
ATOM     32  C   UNK A  0       25.889 -23.295   7.127  0.00  0.00    +0.000 A 
ATOM     33  C   UNK A  0       25.782 -24.645   6.790  0.00  0.00    +0.003 A 
ENDBRANCH  27  28
ENDBRANCH  26  27
ENDBRANCH  20  26
ENDBRANCH  18  20
ENDBRANCH   1  18
TORSDOF 11
ENDMDL
MODEL 4
REMARK VINA RESULT:      -7.9      1.388      8.005
REMARK  Name = *****
REMARK                            x       y       z     vdW  Elec       q    Type
REMARK                         _______ _______ _______ _____ _____    ______ ____
ROOT
ATOM      1  CA  ALA A  1       27.222 -20.298   7.559  0.00  0.00    +0.138 C 
ATOM      2  CB  ALA A  1       26.679 -20.280   8.992  0.00  0.00    +0.034 C 
ENDROOT
BRANCH   1   3
ATOM      3  C   ALA A  1       28.602 -21.012   7.594  0.00  0.00    +0.233 C 
ATOM      4  N   UNK A  2       29.706 -20.358   8.132  0.00  0.00    -0.283 N 
ATOM      5  C   UNK A  2       29.919 -18.890   8.156  0.00  0.00    +0.080 C 
ATOM      6  C   UNK A  2       31.448 -18.724   7.991  0.00  0.00    +0.012 C 
ATOM      7  C   UNK A  2       32.088 -17.474   8.594  0.00  0.00    +0.005 C 
ATOM      8  C   UNK A  2       31.501 -17.096   9.947  0.00  0.00    +0.000 C 
ATOM      9  C   UNK A  2       29.992 -16.944   9.827  0.00  0.00    +0.002 C 
ATOM     10  C   UNK A  2       32.004 -20.003   8.601  0.00  0.00    +0.039 C 
ATOM     11  C   UNK A  2       29.340 -18.266   9.433  0.00  0.00    +0.023 C 
ATOM     12  C   UNK A  2       31.005 -21.072   8.168  0.00  0.00    +0.185 C 
ATOM     13  O   ALA A  1       28.691 -22.218   7.332  0.00  0.00    -0.274 OA
BRANCH  12  14
ATOM     14  C   UNK A  2       31.179 -22.252   9.151  0.00  0.00    +0.326 C 
ATOM     15  O   UNK A  2       30.709 -22.294  10.270  0.00  0.00    -0.249 OA
BRANCH  14  16
ATOM     16  O   UNK A  2       31.870 -23.304   8.638  0.00  0.00    -0.479 OA
ATOM     17  H   UNK A  2       31.904 -24.034   9.279  0.00  0.00    +0.295 HD
ENDBRANCH  14  16
ENDBRANCH  12  14
ENDBRANCH   1   3
BRANCH   1  18
ATOM     18  N   ALA A  1       26.329 -21.042   6.642  0.00  0.00    -0.294 NA
ATOM     19  H   ALA A  1       26.916 -21.509   5.937  0.00  0.00    +0.123 HD
BRANCH  18  20
ATOM     20  C   UNK A  0       25.428 -22.057   7.262  0.00  0.00    +0.164 C 
BRANCH  20  21
ATOM     21  C   UNK A  0       25.411 -23.302   6.387  0.00  0.00    +0.324 C 
ATOM     22  O   UNK A  0       25.233 -23.342   5.191  0.00  0.00    -0.249 OA
BRANCH  21  23
ATOM     23  O   UNK A  0       25.596 -24.409   7.188  0.00  0.00    -0.464 OA
BRANCH  23  25
ATOM     24  C   UNK A  0       24.590 -26.426   6.280  0.00  0.00    +0.048 C 
ATOM     25  C   UNK A  0       25.883 -25.644   6.499  0.00  0.00    +0.229 C 
ENDBRANCH  23  25
ENDBRANCH  21  23
ENDBRANCH  20  21
BRANCH  20  26
ATOM     26  C   UNK A  0       23.964 -21.555   7.392  0.00  0.00    +0.035 C 
BRANCH  26  27
ATOM     27  C   UNK A  0       23.152 -21.644   6.087  0.00  0.00    +0.037 C 
BRANCH  27  28
ATOM     28  C   UNK A  0       23.243 -20.402   5.237  0.00  0.00    -0.047 A 
ATOM     29  C   UNK A  0       24.295 -20.236   4.322  0.00  0.00    +0.003 A 
ATOM     30  C   UNK A  0       24.361 -19.104   3.510  0.00  0.00    +0.000 A 
ATOM     31  C   UNK A  0       23.390 -18.114   3.624  0.00  0.00    +0.000 A 
ATOM     32  C   UNK A  0       22.349 -18.261   4.540  0.00  0.00    +0.000 A 
ATOM     33  C   UNK A  0       22.268 -19.404   5.336  0.00  0.00    +0.003 A 
ENDBRANCH  27  28
ENDBRANCH  26  27
ENDBRANCH  20  26
ENDBRANCH  18  20
ENDBRANCH   1  18
TORSDOF 11
ENDMDL
MODEL 5
REMARK VINA RESULT:      -7.9      4.751      9.101
REMARK  Name = *****
REMARK                            x       y       z     vdW  Elec       q    Type
REMARK                         _______ _______ _______ _____ _____    ______ ____
ROOT
ATOM      1  CA  ALA A  1       25.095 -25.629   6.540  0.00  0.00    +0.138 C 
ATOM      2  CB  ALA A  1       25.629 -25.655   5.104  0.00  0.00    +0.034 C 
ENDROOT
BRANCH   1   3
ATOM      3  C   ALA A  1       24.027 -24.503   6.618  0.00  0.00    +0.233 C 
ATOM      4  N   UNK A  2       24.417 -23.198   6.906  0.00  0.00    -0.283 N 
ATOM      5  C   UNK A  2       25.598 -22.802   7.711  0.00  0.00    +0.080 C 
ATOM      6  C   UNK A  2       25.144 -21.520   8.448  0.00  0.00    +0.012 C 
ATOM      7  C   UNK A  2       26.226 -20.510   8.830  0.00  0.00    +0.005 C 
ATOM      8  C   UNK A  2       27.292 -20.341   7.757  0.00  0.00    +0.000 C 
ATOM      9  C   UNK A  2       27.894 -21.695   7.414  0.00  0.00    +0.002 C 
ATOM     10  C   UNK A  2       24.112 -20.923   7.502  0.00  0.00    +0.039 C 
ATOM     11  C   UNK A  2       26.839 -22.628   6.826  0.00  0.00    +0.023 C 
ATOM     12  C   UNK A  2       23.376 -22.143   6.956  0.00  0.00    +0.185 C 
ATOM     13  O   ALA A  1       22.868 -24.711   6.238  0.00  0.00    -0.274 OA
BRANCH  12  14
ATOM     14  C   UNK A  2       22.710 -21.692   5.636  0.00  0.00    +0.326 C 
ATOM     15  O   UNK A  2       23.233 -20.977   4.806  0.00  0.00    -0.249 OA
BRANCH  14  16
ATOM     16  O   UNK A  2       21.472 -22.218   5.432  0.00  0.00    -0.479 OA
ATOM     17  H   UNK A  2       20.939 -22.157   6.243  0.00  0.00    +0.295 HD
ENDBRANCH  14  16
ENDBRANCH  12  14
ENDBRANCH   1   3
BRANCH   1  18
ATOM     18  N   ALA A  1       24.458 -26.911   6.913  0.00  0.00    -0.294 NA
ATOM     19  H   ALA A  1       23.643 -27.052   6.299  0.00  0.00    +0.123 HD
BRANCH  18  20
ATOM     20  C   UNK A  0       25.318 -28.129   6.852  0.00  0.00    +0.164 C 
BRANCH  20  21
ATOM     21  C   UNK A  0       24.693 -29.127   5.887  0.00  0.00    +0.324 C 
ATOM     22  O   UNK A  0       23.513 -29.347   5.740  0.00  0.00    -0.249 OA
BRANCH  21  23
ATOM     23  O   UNK A  0       25.701 -29.787   5.218  0.00  0.00    -0.464 OA
BRANCH  23  25
ATOM     24  C   UNK A  0       26.351 -31.951   6.114  0.00  0.00    +0.048 C 
ATOM     25  C   UNK A  0       25.527 -31.211   5.062  0.00  0.00    +0.229 C 
ENDBRANCH  23  25
ENDBRANCH  21  23
ENDBRANCH  20  21
BRANCH  20  26
ATOM     26  C   UNK A  0       25.456 -28.831   8.230  0.00  0.00    +0.035 C 
BRANCH  26  27
ATOM     27  C   UNK A  0       26.566 -28.247   9.123  0.00  0.00    +0.037 C 
BRANCH  27  28
ATOM     28  C   UNK A  0       26.320 -28.452  10.597  0.00  0.00    -0.047 A 
ATOM     29  C   UNK A  0       27.020 -27.695  11.551  0.00  0.00    +0.003 A 
ATOM     30  C   UNK A  0       26.767 -27.858  12.913  0.00  0.00    +0.000 A 
ATOM     31  C   UNK A  0       25.832 -28.798  13.336  0.00  0.00    +0.000 A 
ATOM     32  C   UNK A  0       25.142 -29.565  12.398  0.00  0.00    +0.000 A 
ATOM     33  C   UNK A  0       25.376 -29.387  11.034  0.00  0.00    +0.003 A 
ENDBRANCH  27  28
ENDBRANCH  26  27
ENDBRANCH  20  26
ENDBRANCH  18  20
ENDBRANCH   1  18
TORSDOF 11
ENDMDL
MODEL 6
REMARK VINA RESULT:      -7.8      6.719     10.892
REMARK  Name = *****
REMARK                            x       y       z     vdW  Elec       q    Type
REMARK                         _______ _______ _______ _____ _____    ______ ____
ROOT
ATOM      1  CA  ALA A  1       25.807 -29.817   9.132  0.00  0.00    +0.138 C 
ATOM      2  CB  ALA A  1       26.720 -31.042   9.252  0.00  0.00    +0.034 C 
ENDROOT
BRANCH   1   3
ATOM      3  C   ALA A  1       26.023 -28.950  10.404  0.00  0.00    +0.233 C 
ATOM      4  N   UNK A  2       25.180 -29.110  11.500  0.00  0.00    -0.283 N 
ATOM      5  C   UNK A  2       23.767 -29.556  11.452  0.00  0.00    +0.080 C 
ATOM      6  C   UNK A  2       23.080 -28.774  12.596  0.00  0.00    +0.012 C 
ATOM      7  C   UNK A  2       21.855 -29.414  13.249  0.00  0.00    +0.005 C 
ATOM      8  C   UNK A  2       21.997 -30.918  13.437  0.00  0.00    +0.000 C 
ATOM      9  C   UNK A  2       22.322 -31.574  12.104  0.00  0.00    +0.002 C 
ATOM     10  C   UNK A  2       24.210 -28.553  13.592  0.00  0.00    +0.039 C 
ATOM     11  C   UNK A  2       23.662 -31.083  11.566  0.00  0.00    +0.023 C 
ATOM     12  C   UNK A  2       25.422 -28.281  12.706  0.00  0.00    +0.185 C 
ATOM     13  O   ALA A  1       27.045 -28.265  10.530  0.00  0.00    -0.274 OA
BRANCH  12  14
ATOM     14  C   UNK A  2       26.667 -28.575  13.573  0.00  0.00    +0.326 C 
ATOM     15  O   UNK A  2       26.758 -29.491  14.365  0.00  0.00    -0.249 OA
BRANCH  14  16
ATOM     16  O   UNK A  2       27.717 -27.742  13.338  0.00  0.00    -0.479 OA
ATOM     17  H   UNK A  2       27.494 -26.833  13.602  0.00  0.00    +0.295 HD
ENDBRANCH  14  16
ENDBRANCH  12  14
ENDBRANCH   1   3
BRANCH   1  18
ATOM     18  N   ALA A  1       26.138 -29.000   7.943  0.00  0.00    -0.294 NA
ATOM     19  H   ALA A  1       26.743 -29.563   7.328  0.00  0.00    +0.123 HD
BRANCH  18  20
ATOM     20  C   UNK A  0       24.987 -28.488   7.143  0.00  0.00    +0.164 C 
BRANCH  20  21
ATOM     21  C   UNK A  0       24.515 -29.585   6.199  0.00  0.00    +0.324 C 
ATOM     22  O   UNK A  0       23.381 -29.981   6.063  0.00  0.00    -0.249 OA
BRANCH  21  23
ATOM     23  O   UNK A  0       25.609 -30.098   5.533  0.00  0.00    -0.464 OA
BRANCH  23  25
ATOM     24  C   UNK A  0       26.587 -32.303   5.830  0.00  0.00    +0.048 C 
ATOM     25  C   UNK A  0       25.508 -31.479   5.129  0.00  0.00    +0.229 C 
ENDBRANCH  23  25
ENDBRANCH  21  23
ENDBRANCH  20  21
BRANCH  20  26
ATOM     26  C   UNK A  0       25.364 -27.254   6.278  0.00  0.00    +0.035 C 
BRANCH  26  27
ATOM     27  C   UNK A  0       24.178 -26.325   5.961  0.00  0.00    +0.037 C 
BRANCH  27  28
ATOM     28  C   UNK A  0       24.375 -24.912   6.448  0.00  0.00    -0.047 A 
ATOM     29  C   UNK A  0       23.277 -24.051   6.609  0.00  0.00    +0.003 A 
ATOM     30  C   UNK A  0       23.454 -22.755   7.094  0.00  0.00    +0.000 A 
ATOM     31  C   UNK A  0       24.733 -22.298   7.397  0.00  0.00    +0.000 A 
ATOM     32  C   UNK A  0       25.832 -23.139   7.226  0.00  0.00    +0.000 A 
ATOM     33  C   UNK A  0       25.655 -24.444   6.764  0.00  0.00    +0.003 A 
ENDBRANCH  27  28
ENDBRANCH  26  27
ENDBRANCH  20  26
ENDBRANCH  18  20
ENDBRANCH   1  18
TORSDOF 11
ENDMDL
MODEL 7
REMARK VINA RESULT:      -7.6      4.517      9.865
REMARK  Name = *****
REMARK                            x       y       z     vdW  Elec       q    Type
REMARK                         _______ _______ _______ _____ _____    ______ ____
ROOT
ATOM      1  CA  ALA A  1       24.347 -24.654   5.623  0.00  0.00    +0.138 C 
ATOM      2  CB  ALA A  1       23.263 -24.716   6.703  0.00  0.00    +0.034 C 
ENDROOT
BRANCH   1   3
ATOM      3  C   ALA A  1       25.415 -23.627   6.093  0.00  0.00    +0.233 C 
ATOM      4  N   UNK A  2       25.193 -22.266   5.909  0.00  0.00    -0.283 N 
ATOM      5  C   UNK A  2       24.377 -21.656   4.831  0.00  0.00    +0.080 C 
ATOM      6  C   UNK A  2       25.101 -20.327   4.510  0.00  0.00    +0.012 C 
ATOM      7  C   UNK A  2       24.254 -19.182   3.957  0.00  0.00    +0.005 C 
ATOM      8  C   UNK A  2       22.889 -19.074   4.622  0.00  0.00    +0.000 C 
ATOM      9  C   UNK A  2       22.160 -20.404   4.516  0.00  0.00    +0.002 C 
ATOM     10  C   UNK A  2       25.763 -19.964   5.832  0.00  0.00    +0.039 C 
ATOM     11  C   UNK A  2       22.913 -21.500   5.263  0.00  0.00    +0.023 C 
ATOM     12  C   UNK A  2       26.222 -21.310   6.386  0.00  0.00    +0.185 C 
ATOM     13  O   ALA A  1       26.362 -23.988   6.801  0.00  0.00    -0.274 OA
BRANCH  12  14
ATOM     14  C   UNK A  2       26.406 -21.112   7.908  0.00  0.00    +0.326 C 
ATOM     15  O   UNK A  2       25.565 -20.649   8.652  0.00  0.00    -0.249 OA
BRANCH  14  16
ATOM     16  O   UNK A  2       27.597 -21.563   8.386  0.00  0.00    -0.479 OA
ATOM     17  H   UNK A  2       27.791 -21.160   9.249  0.00  0.00    +0.295 HD
ENDBRANCH  14  16
ENDBRANCH  12  14
ENDBRANCH   1   3
BRANCH   1  18
ATOM     18  N   ALA A  1       25.006 -25.964   5.429  0.00  0.00    -0.294 NA
ATOM     19  H   ALA A  1       26.022 -25.829   5.537  0.00  0.00    +0.123 HD
BRANCH  18  20
ATOM     20  C   UNK A  0       24.574 -27.071   6.331  0.00  0.00    +0.164 C 
BRANCH  20  21
ATOM     21  C   UNK A  0       25.745 -27.471   7.218  0.00  0.00    +0.324 C 
ATOM     22  O   UNK A  0       26.884 -27.075   7.132  0.00  0.00    -0.249 OA
BRANCH  21  23
ATOM     23  O   UNK A  0       25.309 -28.407   8.133  0.00  0.00    -0.464 OA
BRANCH  23  25
ATOM     24  C   UNK A  0       26.380 -30.360   9.103  0.00  0.00    +0.048 C 
ATOM     25  C   UNK A  0       26.283 -28.836   9.106  0.00  0.00    +0.229 C 
ENDBRANCH  23  25
ENDBRANCH  21  23
ENDBRANCH  20  21
BRANCH  20  26
ATOM     26  C   UNK A  0       24.122 -28.335   5.551  0.00  0.00    +0.035 C 
BRANCH  26  27
ATOM     27  C   UNK A  0       25.282 -29.245   5.106  0.00  0.00    +0.037 C 
BRANCH  27  28
ATOM     28  C   UNK A  0       25.128 -30.678   5.551  0.00  0.00    -0.047 A 
ATOM     29  C   UNK A  0       26.134 -31.621   5.289  0.00  0.00    +0.003 A 
ATOM     30  C   UNK A  0       26.008 -32.937   5.732  0.00  0.00    +0.000 A 
ATOM     31  C   UNK A  0       24.863 -33.331   6.417  0.00  0.00    +0.000 A 
ATOM     32  C   UNK A  0       23.850 -32.406   6.669  0.00  0.00    +0.000 A 
ATOM     33  C   UNK A  0       23.984 -31.082   6.248  0.00  0.00    +0.003 A 
ENDBRANCH  27  28
ENDBRANCH  26  27
ENDBRANCH  20  26
ENDBRANCH  18  20
ENDBRANCH   1  18
TORSDOF 11
ENDMDL
MODEL 8
REMARK VINA RESULT:      -7.6      2.572      7.609
REMARK  Name = *****
REMARK                            x       y       z     vdW  Elec       q    Type
REMARK                         _______ _______ _______ _____ _____    ______ ____
ROOT
ATOM      1  CA  ALA A  1       27.538 -20.091   7.074  0.00  0.00    +0.138 C 
ATOM      2  CB  ALA A  1       26.617 -20.452   8.244  0.00  0.00    +0.034 C 
ENDROOT
BRANCH   1   3
ATOM      3  C   ALA A  1       28.891 -20.821   7.304  0.00  0.00    +0.233 C 
ATOM      4  N   UNK A  2       29.908 -20.185   8.010  0.00  0.00    -0.283 N 
ATOM      5  C   UNK A  2       30.129 -18.721   8.088  0.00  0.00    +0.080 C 
ATOM      6  C   UNK A  2       31.667 -18.570   8.155  0.00  0.00    +0.012 C 
ATOM      7  C   UNK A  2       32.221 -17.335   8.865  0.00  0.00    +0.005 C 
ATOM      8  C   UNK A  2       31.441 -16.968  10.120  0.00  0.00    +0.000 C 
ATOM      9  C   UNK A  2       29.969 -16.798   9.779  0.00  0.00    +0.002 C 
ATOM     10  C   UNK A  2       32.113 -19.863   8.823  0.00  0.00    +0.039 C 
ATOM     11  C   UNK A  2       29.372 -18.107   9.272  0.00  0.00    +0.023 C 
ATOM     12  C   UNK A  2       31.181 -20.914   8.229  0.00  0.00    +0.185 C 
ATOM     13  O   ALA A  1       29.007 -22.023   7.041  0.00  0.00    -0.274 OA
BRANCH  12  14
ATOM     14  C   UNK A  2       31.195 -22.109   9.210  0.00  0.00    +0.326 C 
ATOM     15  O   UNK A  2       30.614 -22.135  10.276  0.00  0.00    -0.249 OA
BRANCH  14  16
ATOM     16  O   UNK A  2       31.880 -23.192   8.755  0.00  0.00    -0.479 OA
ATOM     17  H   UNK A  2       32.693 -22.914   8.301  0.00  0.00    +0.295 HD
ENDBRANCH  14  16
ENDBRANCH  12  14
ENDBRANCH   1   3
BRANCH   1  18
ATOM     18  N   ALA A  1       26.979 -20.532   5.777  0.00  0.00    -0.294 NA
ATOM     19  H   ALA A  1       26.613 -21.488   5.897  0.00  0.00    +0.123 HD
BRANCH  18  20
ATOM     20  C   UNK A  0       25.905 -19.681   5.187  0.00  0.00    +0.164 C 
BRANCH  20  21
ATOM     21  C   UNK A  0       24.703 -20.556   4.862  0.00  0.00    +0.324 C 
ATOM     22  O   UNK A  0       24.597 -21.320   3.930  0.00  0.00    -0.249 OA
BRANCH  21  23
ATOM     23  O   UNK A  0       23.713 -20.313   5.790  0.00  0.00    -0.464 OA
BRANCH  23  25
ATOM     24  C   UNK A  0       23.505 -22.279   7.203  0.00  0.00    +0.048 C 
ATOM     25  C   UNK A  0       22.860 -21.432   6.108  0.00  0.00    +0.229 C 
ENDBRANCH  23  25
ENDBRANCH  21  23
ENDBRANCH  20  21
BRANCH  20  26
ATOM     26  C   UNK A  0       26.350 -18.986   3.871  0.00  0.00    +0.035 C 
BRANCH  26  27
ATOM     27  C   UNK A  0       25.330 -17.972   3.321  0.00  0.00    +0.037 C 
BRANCH  27  28
ATOM     28  C   UNK A  0       25.731 -16.536   3.544  0.00  0.00    -0.047 A 
ATOM     29  C   UNK A  0       24.758 -15.541   3.728  0.00  0.00    +0.003 A 
ATOM     30  C   UNK A  0       25.128 -14.218   3.969  0.00  0.00    +0.000 A 
ATOM     31  C   UNK A  0       26.475 -13.872   4.001  0.00  0.00    +0.000 A 
ATOM     32  C   UNK A  0       27.451 -14.849   3.805  0.00  0.00    +0.000 A 
ATOM     33  C   UNK A  0       27.083 -16.178   3.587  0.00  0.00    +0.003 A 
ENDBRANCH  27  28
ENDBRANCH  26  27
ENDBRANCH  20  26
ENDBRANCH  18  20
ENDBRANCH   1  18
TORSDOF 11
ENDMDL
MODEL 9
REMARK VINA RESULT:      -6.9      1.708      2.817
REMARK  Name = *****
REMARK                            x       y       z     vdW  Elec       q    Type
REMARK                         _______ _______ _______ _____ _____    ______ ____
ROOT
ATOM      1  CA  ALA A  1       27.795 -21.153   7.045  0.00  0.00    +0.138 C 
ATOM      2  CB  ALA A  1       28.973 -22.092   7.322  0.00  0.00    +0.034 C 
ENDROOT
BRANCH   1   3
ATOM      3  C   ALA A  1       26.490 -21.947   7.334  0.00  0.00    +0.233 C 
ATOM      4  N   UNK A  2       25.337 -21.671   6.604  0.00  0.00    -0.283 N 
ATOM      5  C   UNK A  2       24.985 -20.364   5.997  0.00  0.00    +0.080 C 
ATOM      6  C   UNK A  2       23.445 -20.290   6.118  0.00  0.00    +0.012 C 
ATOM      7  C   UNK A  2       22.698 -19.455   5.078  0.00  0.00    +0.005 C 
ATOM      8  C   UNK A  2       23.268 -19.600   3.674  0.00  0.00    +0.000 C 
ATOM      9  C   UNK A  2       24.753 -19.272   3.687  0.00  0.00    +0.002 C 
ATOM     10  C   UNK A  2       23.024 -21.753   6.087  0.00  0.00    +0.039 C 
ATOM     11  C   UNK A  2       25.522 -20.255   4.564  0.00  0.00    +0.023 C 
ATOM     12  C   UNK A  2       24.113 -22.457   6.890  0.00  0.00    +0.185 C 
ATOM     13  O   ALA A  1       26.512 -22.947   8.060  0.00  0.00    -0.274 OA
BRANCH  12  14
ATOM     14  C   UNK A  2       24.069 -23.944   6.468  0.00  0.00    +0.326 C 
ATOM     15  O   UNK A  2       23.170 -24.713   6.741  0.00  0.00    -0.249 OA
BRANCH  14  16
ATOM     16  O   UNK A  2       25.116 -24.332   5.692  0.00  0.00    -0.479 OA
ATOM     17  H   UNK A  2       25.954 -24.224   6.173  0.00  0.00    +0.295 HD
ENDBRANCH  14  16
ENDBRANCH  12  14
ENDBRANCH   1   3
BRANCH   1  18
ATOM     18  N   ALA A  1       27.824 -19.960   7.920  0.00  0.00    -0.294 NA
ATOM     19  H   ALA A  1       27.871 -20.284   8.897  0.00  0.00    +0.123 HD
BRANCH  18  20
ATOM     20  C   UNK A  0       28.930 -18.986   7.687  0.00  0.00    +0.164 C 
BRANCH  20  21
ATOM     21  C   UNK A  0       29.353 -19.059   6.226  0.00  0.00    +0.324 C 
ATOM     22  O   UNK A  0       30.420 -19.439   5.802  0.00  0.00    -0.249 OA
BRANCH  21  23
ATOM     23  O   UNK A  0       28.325 -18.580   5.442  0.00  0.00    -0.464 OA
BRANCH  23  25
ATOM     24  C   UNK A  0       27.381 -16.967   3.889  0.00  0.00    +0.048 C 
ATOM     25  C   UNK A  0       28.604 -17.367   4.712  0.00  0.00    +0.229 C 
ENDBRANCH  23  25
ENDBRANCH  21  23
ENDBRANCH  20  21
BRANCH  20  26
ATOM     26  C   UNK A  0       30.183 -19.286   8.553  0.00  0.00    +0.035 C 
BRANCH  26  27
ATOM     27  C   UNK A  0       31.338 -18.288   8.353  0.00  0.00    +0.037 C 
BRANCH  27  28
ATOM     28  C   UNK A  0       31.683 -17.510   9.598  0.00  0.00    -0.047 A 
ATOM     29  C   UNK A  0       32.641 -16.484   9.558  0.00  0.00    +0.003 A 
ATOM     30  C   UNK A  0       32.936 -15.741  10.701  0.00  0.00    +0.000 A 
ATOM     31  C   UNK A  0       32.295 -16.033  11.901  0.00  0.00    +0.000 A 
ATOM     32  C   UNK A  0       31.353 -17.060  11.955  0.00  0.00    +0.000 A 
ATOM     33  C   UNK A  0       31.040 -17.790  10.808  0.00  0.00    +0.003 A 
ENDBRANCH  27  28
ENDBRANCH  26  27
ENDBRANCH  20  26
ENDBRANCH  18  20
ENDBRANCH   1  18
TORSDOF 11
ENDMDL
