MODEL 1
REMARK VINA RESULT:      -6.6      0.000      0.000
REMARK  Name = *****
REMARK                            x       y       z     vdW  Elec       q    Type
REMARK                         _______ _______ _______ _____ _____    ______ ____
ROOT
ATOM      1  C   LIG    1       23.642 -20.475   5.108  0.00  0.00    +0.117 A 
ATOM      2  C   LIG    1       25.023 -20.601   5.028  0.00  0.00    +0.049 A 
ATOM      3  C   LIG    1       25.763 -19.674   4.287  0.00  0.00    +0.049 A 
ATOM      4  C   LIG    1       25.121 -18.621   3.630  0.00  0.00    +0.121 A 
ATOM      5  C   LIG    1       23.731 -18.507   3.724  0.00  0.00    +0.049 A 
ATOM      6  C   LIG    1       22.986 -19.433   4.464  0.00  0.00    +0.049 A 
ENDROOT
BRANCH   1   7
ATOM      7  O   LIG    1       22.967 -21.407   5.836  0.00  0.00    -0.507 OA
ATOM      8  H   LIG    1       22.275 -20.956   6.350  0.00  0.00    +0.292 HD
ENDBRANCH   1   7
BRANCH   4   9
ATOM      9  O   LIG    1       25.738 -17.656   2.876  0.00  0.00    -0.487 OA
BRANCH   9  10
ATOM     10  C   LIG    1       26.485 -16.680   3.603  0.00  0.00    +0.264 C 
BRANCH  10  11
ATOM     11  C   LIG    1       25.893 -15.306   3.411  0.00  0.00    -0.010 A 
ATOM     12  C   LIG    1       26.546 -14.349   2.622  0.00  0.00    +0.007 A 
ATOM     13  C   LIG    1       25.960 -13.101   2.394  0.00  0.00    +0.000 A 
ATOM     14  C   LIG    1       24.720 -12.798   2.952  0.00  0.00    +0.000 A 
ATOM     15  C   LIG    1       24.064 -13.740   3.743  0.00  0.00    +0.000 A 
ATOM     16  C   LIG    1       24.647 -14.987   3.972  0.00  0.00    +0.007 A 
ENDBRANCH  10  11
ENDBRANCH   9  10
ENDBRANCH   4   9
TORSDOF 4
ENDMDL
MODEL 2
REMARK VINA RESULT:      -6.6      0.070      1.249
REMARK  Name = *****
REMARK                            x       y       z     vdW  Elec       q    Type
REMARK                         _______ _______ _______ _____ _____    ______ ____
ROOT
ATOM      1  C   LIG    1       23.579 -20.460   5.147  0.00  0.00    +0.117 A 
ATOM      2  C   LIG    1       24.958 -20.609   5.084  0.00  0.00    +0.049 A 
ATOM      3  C   LIG    1       25.720 -19.709   4.334  0.00  0.00    +0.049 A 
ATOM      4  C   LIG    1       25.101 -18.658   3.650  0.00  0.00    +0.121 A 
ATOM      5  C   LIG    1       23.712 -18.521   3.727  0.00  0.00    +0.049 A 
ATOM      6  C   LIG    1       22.946 -19.421   4.476  0.00  0.00    +0.049 A 
ENDROOT
BRANCH   1   7
ATOM      7  O   LIG    1       22.881 -21.368   5.885  0.00  0.00    -0.507 OA
ATOM      8  H   LIG    1       21.942 -21.308   5.642  0.00  0.00    +0.292 HD
ENDBRANCH   1   7
BRANCH   4   9
ATOM      9  O   LIG    1       25.742 -17.718   2.884  0.00  0.00    -0.487 OA
BRANCH   9  10
ATOM     10  C   LIG    1       26.461 -16.715   3.602  0.00  0.00    +0.264 C 
BRANCH  10  11
ATOM     11  C   LIG    1       25.849 -15.355   3.373  0.00  0.00    -0.010 A 
ATOM     12  C   LIG    1       24.621 -15.015   3.956  0.00  0.00    +0.007 A 
ATOM     13  C   LIG    1       24.092 -13.732   3.795  0.00  0.00    +0.000 A 
ATOM     14  C   LIG    1       24.783 -12.779   3.049  0.00  0.00    +0.000 A 
ATOM     15  C   LIG    1       26.002 -13.108   2.460  0.00  0.00    +0.000 A 
ATOM     16  C   LIG    1       26.533 -14.388   2.620  0.00  0.00    +0.007 A 
ENDBRANCH  10  11
ENDBRANCH   9  10
ENDBRANCH   4   9
TORSDOF 4
ENDMDL
MODEL 3
REMARK VINA RESULT:      -6.3      2.007      6.128
REMARK  Name = *****
REMARK                            x       y       z     vdW  Elec       q    Type
REMARK                         _______ _______ _______ _____ _____    ______ ____
ROOT
ATOM      1  C   LIG    1       27.199 -13.479   4.797  0.00  0.00    +0.117 A 
ATOM      2  C   LIG    1       25.813 -13.452   4.735  0.00  0.00    +0.049 A 
ATOM      3  C   LIG    1       25.124 -14.500   4.117  0.00  0.00    +0.049 A 
ATOM      4  C   LIG    1       25.826 -15.575   3.563  0.00  0.00    +0.121 A 
ATOM      5  C   LIG    1       27.222 -15.588   3.637  0.00  0.00    +0.049 A 
ATOM      6  C   LIG    1       27.914 -14.540   4.255  0.00  0.00    +0.049 A 
ENDROOT
BRANCH   1   7
ATOM      7  O   LIG    1       27.822 -12.431   5.405  0.00  0.00    -0.507 OA
ATOM      8  H   LIG    1       27.454 -12.328   6.299  0.00  0.00    +0.292 HD
ENDBRANCH   1   7
BRANCH   4   9
ATOM      9  O   LIG    1       25.262 -16.655   2.931  0.00  0.00    -0.487 OA
BRANCH   9  10
ATOM     10  C   LIG    1       25.799 -17.931   3.282  0.00  0.00    +0.264 C 
BRANCH  10  11
ATOM     11  C   LIG    1       24.714 -18.837   3.811  0.00  0.00    -0.010 A 
ATOM     12  C   LIG    1       24.992 -20.169   4.143  0.00  0.00    +0.007 A 
ATOM     13  C   LIG    1       24.000 -20.983   4.695  0.00  0.00    +0.000 A 
ATOM     14  C   LIG    1       22.722 -20.474   4.917  0.00  0.00    +0.000 A 
ATOM     15  C   LIG    1       22.431 -19.153   4.584  0.00  0.00    +0.000 A 
ATOM     16  C   LIG    1       23.421 -18.338   4.034  0.00  0.00    +0.007 A 
ENDBRANCH  10  11
ENDBRANCH   9  10
ENDBRANCH   4   9
TORSDOF 4
ENDMDL
MODEL 4
REMARK VINA RESULT:      -6.1      1.705      6.031
REMARK  Name = *****
REMARK                            x       y       z     vdW  Elec       q    Type
REMARK                         _______ _______ _______ _____ _____    ______ ____
ROOT
ATOM      1  C   LIG    1       24.452 -12.914   2.926  0.00  0.00    +0.117 A 
ATOM      2  C   LIG    1       25.675 -13.205   2.336  0.00  0.00    +0.049 A 
ATOM      3  C   LIG    1       26.302 -14.426   2.602  0.00  0.00    +0.049 A 
ATOM      4  C   LIG    1       25.701 -15.356   3.456  0.00  0.00    +0.121 A 
ATOM      5  C   LIG    1       24.468 -15.049   4.038  0.00  0.00    +0.049 A 
ATOM      6  C   LIG    1       23.839 -13.826   3.775  0.00  0.00    +0.049 A 
ENDROOT
BRANCH   1   7
ATOM      7  O   LIG    1       23.887 -11.708   2.640  0.00  0.00    -0.507 OA
ATOM      8  H   LIG    1       23.177 -11.539   3.282  0.00  0.00    +0.292 HD
ENDBRANCH   1   7
BRANCH   4   9
ATOM      9  O   LIG    1       26.219 -16.581   3.791  0.00  0.00    -0.487 OA
BRANCH   9  10
ATOM     10  C   LIG    1       25.820 -17.674   2.963  0.00  0.00    +0.264 C 
BRANCH  10  11
ATOM     11  C   LIG    1       25.016 -18.675   3.754  0.00  0.00    -0.010 A 
ATOM     12  C   LIG    1       25.651 -19.696   4.475  0.00  0.00    +0.007 A 
ATOM     13  C   LIG    1       24.905 -20.579   5.259  0.00  0.00    +0.000 A 
ATOM     14  C   LIG    1       23.519 -20.452   5.328  0.00  0.00    +0.000 A 
ATOM     15  C   LIG    1       22.875 -19.445   4.611  0.00  0.00    +0.000 A 
ATOM     16  C   LIG    1       23.619 -18.561   3.828  0.00  0.00    +0.007 A 
ENDBRANCH  10  11
ENDBRANCH   9  10
ENDBRANCH   4   9
TORSDOF 4
ENDMDL
MODEL 5
REMARK VINA RESULT:      -6.1      0.704      1.442
REMARK  Name = *****
REMARK                            x       y       z     vdW  Elec       q    Type
REMARK                         _______ _______ _______ _____ _____    ______ ____
ROOT
ATOM      1  C   LIG    1       24.866 -20.519   5.152  0.00  0.00    +0.117 A 
ATOM      2  C   LIG    1       23.880 -19.833   4.456  0.00  0.00    +0.049 A 
ATOM      3  C   LIG    1       24.226 -18.741   3.655  0.00  0.00    +0.049 A 
ATOM      4  C   LIG    1       25.561 -18.337   3.551  0.00  0.00    +0.121 A 
ATOM      5  C   LIG    1       26.542 -19.040   4.256  0.00  0.00    +0.049 A 
ATOM      6  C   LIG    1       26.198 -20.135   5.059  0.00  0.00    +0.049 A 
ENDROOT
BRANCH   1   7
ATOM      7  O   LIG    1       24.475 -21.572   5.923  0.00  0.00    -0.507 OA
ATOM      8  H   LIG    1       23.520 -21.499   6.085  0.00  0.00    +0.292 HD
ENDBRANCH   1   7
BRANCH   4   9
ATOM      9  O   LIG    1       26.019 -17.284   2.801  0.00  0.00    -0.487 OA
BRANCH   9  10
ATOM     10  C   LIG    1       26.637 -16.223   3.531  0.00  0.00    +0.264 C 
BRANCH  10  11
ATOM     11  C   LIG    1       25.845 -14.947   3.386  0.00  0.00    -0.010 A 
ATOM     12  C   LIG    1       26.234 -13.962   2.468  0.00  0.00    +0.007 A 
ATOM     13  C   LIG    1       25.460 -12.813   2.291  0.00  0.00    +0.000 A 
ATOM     14  C   LIG    1       24.292 -12.636   3.031  0.00  0.00    +0.000 A 
ATOM     15  C   LIG    1       23.898 -13.606   3.951  0.00  0.00    +0.000 A 
ATOM     16  C   LIG    1       24.669 -14.755   4.129  0.00  0.00    +0.007 A 
ENDBRANCH  10  11
ENDBRANCH   9  10
ENDBRANCH   4   9
TORSDOF 4
ENDMDL
MODEL 6
REMARK VINA RESULT:      -6.0      1.898      5.929
REMARK  Name = *****
REMARK                            x       y       z     vdW  Elec       q    Type
REMARK                         _______ _______ _______ _____ _____    ______ ____
ROOT
ATOM      1  C   LIG    1       26.558 -13.560   4.776  0.00  0.00    +0.117 A 
ATOM      2  C   LIG    1       27.565 -14.402   4.324  0.00  0.00    +0.049 A 
ATOM      3  C   LIG    1       27.235 -15.590   3.665  0.00  0.00    +0.049 A 
ATOM      4  C   LIG    1       25.895 -15.933   3.459  0.00  0.00    +0.121 A 
ATOM      5  C   LIG    1       24.894 -15.073   3.918  0.00  0.00    +0.049 A 
ATOM      6  C   LIG    1       25.221 -13.883   4.578  0.00  0.00    +0.049 A 
ENDROOT
BRANCH   1   7
ATOM      7  O   LIG    1       26.933 -12.418   5.417  0.00  0.00    -0.507 OA
ATOM      8  H   LIG    1       27.879 -12.268   5.253  0.00  0.00    +0.292 HD
ENDBRANCH   1   7
BRANCH   4   9
ATOM      9  O   LIG    1       25.451 -17.068   2.830  0.00  0.00    -0.487 OA
BRANCH   9  10
ATOM     10  C   LIG    1       25.866 -18.305   3.411  0.00  0.00    +0.264 C 
BRANCH  10  11
ATOM     11  C   LIG    1       24.693 -19.019   4.036  0.00  0.00    -0.010 A 
ATOM     12  C   LIG    1       23.405 -18.471   3.973  0.00  0.00    +0.007 A 
ATOM     13  C   LIG    1       22.313 -19.169   4.495  0.00  0.00    +0.000 A 
ATOM     14  C   LIG    1       22.498 -20.418   5.084  0.00  0.00    +0.000 A 
ATOM     15  C   LIG    1       23.775 -20.971   5.158  0.00  0.00    +0.000 A 
ATOM     16  C   LIG    1       24.867 -20.276   4.637  0.00  0.00    +0.007 A 
ENDBRANCH  10  11
ENDBRANCH   9  10
ENDBRANCH   4   9
TORSDOF 4
ENDMDL
MODEL 7
REMARK VINA RESULT:      -5.6      1.363      2.052
REMARK  Name = *****
REMARK                            x       y       z     vdW  Elec       q    Type
REMARK                         _______ _______ _______ _____ _____    ______ ____
ROOT
ATOM      1  C   LIG    1       23.679 -20.260   4.447  0.00  0.00    +0.117 A 
ATOM      2  C   LIG    1       24.600 -19.421   3.834  0.00  0.00    +0.049 A 
ATOM      3  C   LIG    1       24.299 -18.066   3.662  0.00  0.00    +0.049 A 
ATOM      4  C   LIG    1       23.078 -17.552   4.108  0.00  0.00    +0.121 A 
ATOM      5  C   LIG    1       22.163 -18.410   4.726  0.00  0.00    +0.049 A 
ATOM      6  C   LIG    1       22.460 -19.767   4.898  0.00  0.00    +0.049 A 
ENDROOT
BRANCH   1   7
ATOM      7  O   LIG    1       24.017 -21.572   4.584  0.00  0.00    -0.507 OA
ATOM      8  H   LIG    1       24.822 -21.740   4.066  0.00  0.00    +0.292 HD
ENDBRANCH   1   7
BRANCH   4   9
ATOM      9  O   LIG    1       22.672 -16.247   3.993  0.00  0.00    -0.487 OA
BRANCH   9  10
ATOM     10  C   LIG    1       23.386 -15.301   4.791  0.00  0.00    +0.264 C 
BRANCH  10  11
ATOM     11  C   LIG    1       24.297 -14.460   3.931  0.00  0.00    -0.010 A 
ATOM     12  C   LIG    1       25.642 -14.812   3.754  0.00  0.00    +0.007 A 
ATOM     13  C   LIG    1       26.462 -14.067   2.904  0.00  0.00    +0.000 A 
ATOM     14  C   LIG    1       25.948 -12.963   2.226  0.00  0.00    +0.000 A 
ATOM     15  C   LIG    1       24.614 -12.600   2.399  0.00  0.00    +0.000 A 
ATOM     16  C   LIG    1       23.792 -13.343   3.247  0.00  0.00    +0.007 A 
ENDBRANCH  10  11
ENDBRANCH   9  10
ENDBRANCH   4   9
TORSDOF 4
ENDMDL
MODEL 8
REMARK VINA RESULT:      -5.4      1.456      2.393
REMARK  Name = *****
REMARK                            x       y       z     vdW  Elec       q    Type
REMARK                         _______ _______ _______ _____ _____    ______ ____
ROOT
ATOM      1  C   LIG    1       23.852 -20.483   4.456  0.00  0.00    +0.117 A 
ATOM      2  C   LIG    1       23.134 -19.345   4.112  0.00  0.00    +0.049 A 
ATOM      3  C   LIG    1       23.810 -18.198   3.688  0.00  0.00    +0.049 A 
ATOM      4  C   LIG    1       25.206 -18.192   3.605  0.00  0.00    +0.121 A 
ATOM      5  C   LIG    1       25.914 -19.346   3.951  0.00  0.00    +0.049 A 
ATOM      6  C   LIG    1       25.239 -20.497   4.378  0.00  0.00    +0.049 A 
ENDROOT
BRANCH   1   7
ATOM      7  O   LIG    1       23.146 -21.572   4.869  0.00  0.00    -0.507 OA
ATOM      8  H   LIG    1       23.503 -21.866   5.724  0.00  0.00    +0.292 HD
ENDBRANCH   1   7
BRANCH   4   9
ATOM      9  O   LIG    1       25.976 -17.130   3.206  0.00  0.00    -0.487 OA
BRANCH   9  10
ATOM     10  C   LIG    1       25.324 -15.859   3.188  0.00  0.00    +0.264 C 
BRANCH  10  11
ATOM     11  C   LIG    1       26.235 -14.786   3.730  0.00  0.00    -0.010 A 
ATOM     12  C   LIG    1       25.938 -14.137   4.936  0.00  0.00    +0.007 A 
ATOM     13  C   LIG    1       26.819 -13.191   5.467  0.00  0.00    +0.000 A 
ATOM     14  C   LIG    1       28.002 -12.885   4.797  0.00  0.00    +0.000 A 
ATOM     15  C   LIG    1       28.305 -13.520   3.594  0.00  0.00    +0.000 A 
ATOM     16  C   LIG    1       27.427 -14.465   3.063  0.00  0.00    +0.007 A 
ENDBRANCH  10  11
ENDBRANCH   9  10
ENDBRANCH   4   9
TORSDOF 4
ENDMDL
MODEL 9
REMARK VINA RESULT:      -5.1      2.527      6.050
REMARK  Name = *****
REMARK                            x       y       z     vdW  Elec       q    Type
REMARK                         _______ _______ _______ _____ _____    ______ ____
ROOT
ATOM      1  C   LIG    1       27.662 -13.360   3.757  0.00  0.00    +0.117 A 
ATOM      2  C   LIG    1       27.127 -13.685   2.517  0.00  0.00    +0.049 A 
ATOM      3  C   LIG    1       25.780 -14.042   2.414  0.00  0.00    +0.049 A 
ATOM      4  C   LIG    1       24.968 -14.071   3.552  0.00  0.00    +0.121 A 
ATOM      5  C   LIG    1       25.521 -13.738   4.792  0.00  0.00    +0.049 A 
ATOM      6  C   LIG    1       26.871 -13.381   4.899  0.00  0.00    +0.049 A 
ENDROOT
BRANCH   1   7
ATOM      7  O   LIG    1       28.982 -13.026   3.804  0.00  0.00    -0.507 OA
ATOM      8  H   LIG    1       29.500 -13.758   3.431  0.00  0.00    +0.292 HD
ENDBRANCH   1   7
BRANCH   4   9
ATOM      9  O   LIG    1       23.638 -14.406   3.575  0.00  0.00    -0.487 OA
BRANCH   9  10
ATOM     10  C   LIG    1       23.213 -15.191   4.689  0.00  0.00    +0.264 C 
BRANCH  10  11
ATOM     11  C   LIG    1       23.268 -16.662   4.356  0.00  0.00    -0.010 A 
ATOM     12  C   LIG    1       24.416 -17.224   3.781  0.00  0.00    +0.007 A 
ATOM     13  C   LIG    1       24.485 -18.597   3.537  0.00  0.00    +0.000 A 
ATOM     14  C   LIG    1       23.408 -19.420   3.861  0.00  0.00    +0.000 A 
ATOM     15  C   LIG    1       22.259 -18.872   4.427  0.00  0.00    +0.000 A 
ATOM     16  C   LIG    1       22.188 -17.500   4.673  0.00  0.00    +0.007 A 
ENDBRANCH  10  11
ENDBRANCH   9  10
ENDBRANCH   4   9
TORSDOF 4
ENDMDL
