MODEL 1
REMARK VINA RESULT:       4.9      0.000      0.000
REMARK  Name = *****
REMARK                            x       y       z     vdW  Elec       q    Type
REMARK                         _______ _______ _______ _____ _____    ______ ____
ROOT
ATOM      1  C   LIG    1       29.046 -12.497   4.088  0.00  0.00    +0.008 C 
ATOM      2  C   LIG    1       27.833 -12.565   5.021  0.00  0.00    -0.008 C 
ATOM      3  C   LIG    1       26.504 -12.915   4.315  0.00  0.00    +0.032 C 
ATOM      4  C   LIG    1       26.221 -14.449   4.041  0.00  0.00    +0.161 C 
ATOM      5  C   LIG    1       26.084 -14.918   2.562  0.00  0.00    +0.293 C 
ATOM      6  O   LIG    1       25.097 -14.233   1.812  0.00  0.00    -0.314 OA
ATOM      7  C   LIG    1       24.241 -13.390   2.565  0.00  0.00    +0.203 C 
ATOM      8  O   LIG    1       23.927 -13.738   3.927  0.00  0.00    -0.199 OA
ATOM      9  C   LIG    1       24.861 -11.990   2.579  0.00  0.00    +0.068 C 
ATOM     10  C   LIG    1       22.908 -13.335   1.819  0.00  0.00    +0.077 C 
ATOM     11  O   LIG    1       25.735 -16.302   2.413  0.00  0.00    -0.309 OA
ATOM     12  C   LIG    1       26.385 -17.236   3.266  0.00  0.00    +0.316 C 
ATOM     13  C   LIG    1       27.626 -16.619   3.922  0.00  0.00    +0.061 C 
ATOM     14  C   LIG    1       28.501 -17.664   4.622  0.00  0.00    +0.014 C 
ATOM     15  C   LIG    1       27.137 -15.465   4.849  0.00  0.00    +0.038 C 
ATOM     16  C   LIG    1       28.318 -14.909   5.651  0.00  0.00    +0.007 C 
ATOM     17  O   LIG    1       24.863 -14.713   4.509  0.00  0.00    -0.220 OA
ATOM     18  C   LIG    1       26.298 -12.000   3.093  0.00  0.00    +0.012 C 
ATOM     19  C   LIG    1       28.054 -13.523   6.184  0.00  0.00    +0.004 C 
ENDROOT
BRANCH  12  20
ATOM     20  O   LIG    1       25.461 -17.672   4.284  0.00  0.00    -0.435 OA
BRANCH  20  21
ATOM     21  C   LIG    1       25.088 -18.968   4.228  0.00  0.00    +0.310 C 
ATOM     22  O   LIG    1       25.754 -19.905   4.651  0.00  0.00    -0.251 OA
BRANCH  21  23
ATOM     23  C   LIG    1       23.704 -19.133   3.641  0.00  0.00    +0.132 C 
BRANCH  23  24
ATOM     24  C   LIG    1       22.617 -19.173   4.717  0.00  0.00    +0.131 C 
BRANCH  24  25
ATOM     25  C   LIG    1       22.484 -20.519   5.405  0.00  0.00    +0.305 C 
ATOM     26  O   LIG    1       23.034 -20.792   6.449  0.00  0.00    -0.251 OA
BRANCH  25  27
ATOM     27  O   LIG    1       21.671 -21.401   4.787  0.00  0.00    -0.481 OA
ATOM     28  H   LIG    1       21.913 -21.610   3.854  0.00  0.00    +0.295 HD
ENDBRANCH  25  27
ENDBRANCH  24  25
ENDBRANCH  23  24
ENDBRANCH  21  23
ENDBRANCH  20  21
ENDBRANCH  12  20
TORSDOF 6
ENDMDL
MODEL 2
REMARK VINA RESULT:       6.5      1.768      6.016
REMARK  Name = *****
REMARK                            x       y       z     vdW  Elec       q    Type
REMARK                         _______ _______ _______ _____ _____    ______ ____
ROOT
ATOM      1  C   LIG    1       27.835 -19.322   6.978  0.00  0.00    +0.008 C 
ATOM      2  C   LIG    1       28.108 -19.660   5.509  0.00  0.00    -0.008 C 
ATOM      3  C   LIG    1       26.847 -19.700   4.618  0.00  0.00    +0.032 C 
ATOM      4  C   LIG    1       26.315 -18.313   4.068  0.00  0.00    +0.161 C 
ATOM      5  C   LIG    1       24.893 -17.848   4.501  0.00  0.00    +0.293 C 
ATOM      6  O   LIG    1       23.855 -18.769   4.212  0.00  0.00    -0.314 OA
ATOM      7  C   LIG    1       24.226 -19.861   3.388  0.00  0.00    +0.203 C 
ATOM      8  O   LIG    1       25.255 -19.678   2.396  0.00  0.00    -0.199 OA
ATOM      9  C   LIG    1       24.665 -21.007   4.302  0.00  0.00    +0.068 C 
ATOM     10  C   LIG    1       22.969 -20.285   2.627  0.00  0.00    +0.077 C 
ATOM     11  O   LIG    1       24.457 -16.630   3.880  0.00  0.00    -0.309 OA
ATOM     12  C   LIG    1       25.407 -15.578   3.767  0.00  0.00    +0.316 C 
ATOM     13  C   LIG    1       26.613 -15.817   4.684  0.00  0.00    +0.061 C 
ATOM     14  C   LIG    1       27.518 -14.586   4.797  0.00  0.00    +0.014 C 
ATOM     15  C   LIG    1       27.336 -17.101   4.175  0.00  0.00    +0.038 C 
ATOM     16  C   LIG    1       28.638 -17.307   4.956  0.00  0.00    +0.007 C 
ATOM     17  O   LIG    1       26.089 -18.491   2.636  0.00  0.00    -0.220 OA
ATOM     18  C   LIG    1       25.767 -20.585   5.269  0.00  0.00    +0.012 C 
ATOM     19  C   LIG    1       29.138 -18.728   4.885  0.00  0.00    +0.004 C 
ENDROOT
BRANCH  12  20
ATOM     20  O   LIG    1       25.847 -15.482   2.397  0.00  0.00    -0.435 OA
BRANCH  20  21
ATOM     21  C   LIG    1       26.355 -14.289   2.021  0.00  0.00    +0.310 C 
ATOM     22  O   LIG    1       27.542 -14.070   1.813  0.00  0.00    -0.251 OA
BRANCH  21  23
ATOM     23  C   LIG    1       25.272 -13.255   1.812  0.00  0.00    +0.132 C 
BRANCH  23  24
ATOM     24  C   LIG    1       25.188 -12.258   2.970  0.00  0.00    +0.131 C 
BRANCH  24  25
ATOM     25  C   LIG    1       24.091 -12.571   3.971  0.00  0.00    +0.305 C 
ATOM     26  O   LIG    1       23.828 -11.861   4.916  0.00  0.00    -0.251 OA
BRANCH  25  27
ATOM     27  O   LIG    1       23.390 -13.697   3.718  0.00  0.00    -0.481 OA
ATOM     28  H   LIG    1       22.634 -13.587   3.095  0.00  0.00    +0.295 HD
ENDBRANCH  25  27
ENDBRANCH  24  25
ENDBRANCH  23  24
ENDBRANCH  21  23
ENDBRANCH  20  21
ENDBRANCH  12  20
TORSDOF 6
ENDMDL
MODEL 3
REMARK VINA RESULT:       6.9      2.845      5.040
REMARK  Name = *****
REMARK                            x       y       z     vdW  Elec       q    Type
REMARK                         _______ _______ _______ _____ _____    ______ ____
ROOT
ATOM      1  C   LIG    1       22.331 -15.156   2.540  0.00  0.00    +0.008 C 
ATOM      2  C   LIG    1       22.308 -15.492   4.035  0.00  0.00    -0.008 C 
ATOM      3  C   LIG    1       22.351 -17.004   4.350  0.00  0.00    +0.032 C 
ATOM      4  C   LIG    1       23.775 -17.697   4.345  0.00  0.00    +0.161 C 
ATOM      5  C   LIG    1       24.040 -18.825   3.305  0.00  0.00    +0.293 C 
ATOM      6  O   LIG    1       23.119 -19.902   3.351  0.00  0.00    -0.314 OA
ATOM      7  C   LIG    1       22.240 -19.899   4.464  0.00  0.00    +0.203 C 
ATOM      8  O   LIG    1       22.690 -19.347   5.716  0.00  0.00    -0.199 OA
ATOM      9  C   LIG    1       20.972 -19.145   4.055  0.00  0.00    +0.068 C 
ATOM     10  C   LIG    1       21.881 -21.359   4.744  0.00  0.00    +0.077 C 
ATOM     11  O   LIG    1       25.320 -19.459   3.436  0.00  0.00    -0.309 OA
ATOM     12  C   LIG    1       26.441 -18.621   3.688  0.00  0.00    +0.316 C 
ATOM     13  C   LIG    1       26.117 -17.153   3.387  0.00  0.00    +0.061 C 
ATOM     14  C   LIG    1       27.366 -16.266   3.380  0.00  0.00    +0.014 C 
ATOM     15  C   LIG    1       25.015 -16.704   4.394  0.00  0.00    +0.038 C 
ATOM     16  C   LIG    1       24.757 -15.202   4.245  0.00  0.00    +0.007 C 
ATOM     17  O   LIG    1       23.865 -18.474   5.578  0.00  0.00    -0.220 OA
ATOM     18  C   LIG    1       21.278 -17.745   3.530  0.00  0.00    +0.012 C 
ATOM     19  C   LIG    1       23.419 -14.786   4.801  0.00  0.00    +0.004 C 
ENDROOT
BRANCH  12  20
ATOM     20  O   LIG    1       26.836 -18.761   5.068  0.00  0.00    -0.435 OA
BRANCH  20  21
ATOM     21  C   LIG    1       28.088 -19.218   5.282  0.00  0.00    +0.310 C 
ATOM     22  O   LIG    1       29.112 -18.593   5.034  0.00  0.00    -0.251 OA
BRANCH  21  23
ATOM     23  C   LIG    1       28.087 -20.581   5.938  0.00  0.00    +0.132 C 
BRANCH  23  24
ATOM     24  C   LIG    1       26.966 -20.730   6.969  0.00  0.00    +0.131 C 
BRANCH  24  25
ATOM     25  C   LIG    1       25.683 -21.306   6.401  0.00  0.00    +0.305 C 
ATOM     26  O   LIG    1       24.685 -21.492   7.062  0.00  0.00    -0.251 OA
BRANCH  25  27
ATOM     27  O   LIG    1       25.711 -21.572   5.078  0.00  0.00    -0.481 OA
ATOM     28  H   LIG    1       26.440 -22.168   4.786  0.00  0.00    +0.295 HD
ENDBRANCH  25  27
ENDBRANCH  24  25
ENDBRANCH  23  24
ENDBRANCH  21  23
ENDBRANCH  20  21
ENDBRANCH  12  20
TORSDOF 6
ENDMDL
