MODEL 1
REMARK VINA RESULT:      34.9      0.000      0.000
REMARK  Name = *****
REMARK                            x       y       z     vdW  Elec       q    Type
REMARK                         _______ _______ _______ _____ _____    ______ ____
ROOT
ATOM      1  C   LIG    1       25.902 -20.607   4.551  0.00  0.00    +0.128 A 
ATOM      2  N   LIG    1       25.185 -20.508   3.357  0.00  0.00    -0.329 N 
ATOM      3  C   LIG    1       25.166 -21.569   2.389  0.00  0.00    +0.150 C 
ATOM      4  C   LIG    1       24.200 -19.532   3.494  0.00  0.00    +0.069 A 
ATOM      5  C   LIG    1       24.112 -19.382   4.870  0.00  0.00    +0.090 A 
ATOM      6  C   LIG    1       23.340 -18.292   5.386  0.00  0.00    +0.043 A 
ATOM      7  C   LIG    1       22.770 -17.297   4.611  0.00  0.00    +0.039 A 
ATOM      8  C   LIG    1       22.564 -17.718   3.293  0.00  0.00    +0.015 A 
ATOM      9  C   LIG    1       23.272 -18.839   2.718  0.00  0.00    +0.029 A 
ATOM     10  N   LIG    1       24.899 -20.395   5.421  0.00  0.00    -0.231 NA
ENDROOT
BRANCH   7  11
ATOM     11  C   LIG    1       22.083 -16.130   5.329  0.00  0.00    +0.252 C 
ATOM     12  N   LIG    1       22.117 -14.773   4.875  0.00  0.00    -0.252 N 
ATOM     13  O   LIG    1       21.597 -16.434   6.424  0.00  0.00    -0.270 OA
BRANCH  12  14
ATOM     14  C   LIG    1       21.651 -13.721   5.745  0.00  0.00    +0.128 A 
ATOM     15  N   LIG    1       22.308 -12.530   5.657  0.00  0.00    -0.240 NA
ATOM     16  C   LIG    1       21.814 -11.459   6.306  0.00  0.00    +0.113 A 
ATOM     17  C   LIG    1       20.636 -11.490   7.019  0.00  0.00    +0.020 A 
ATOM     18  C   LIG    1       19.935 -12.691   7.062  0.00  0.00    +0.005 A 
ATOM     19  C   LIG    1       20.443 -13.825   6.417  0.00  0.00    +0.044 A 
ENDBRANCH  12  14
BRANCH  12  20
ATOM     20  C   LIG    1       22.478 -14.117   3.590  0.00  0.00    +0.126 C 
BRANCH  20  21
ATOM     21  C   LIG    1       23.883 -13.917   3.177  0.00  0.00    +0.140 C 
BRANCH  21  22
ATOM     22  C   LIG    1       24.138 -12.460   2.995  0.00  0.00    +0.309 C 
ATOM     23  O   LIG    1       23.935 -11.751   2.017  0.00  0.00    -0.251 OA
BRANCH  22  24
ATOM     24  O   LIG    1       24.585 -11.984   4.163  0.00  0.00    -0.465 OA
BRANCH  24  25
ATOM     25  C   LIG    1       25.128 -12.924   5.047  0.00  0.00    +0.228 C 
ATOM     26  C   LIG    1       24.946 -12.118   6.181  0.00  0.00    +0.048 C 
ENDBRANCH  24  25
ENDBRANCH  22  24
ENDBRANCH  21  22
ENDBRANCH  20  21
ENDBRANCH  12  20
ENDBRANCH   7  11
BRANCH   1  27
ATOM     27  C   LIG    1       27.456 -21.195   4.693  0.00  0.00    +0.176 C 
BRANCH  27  28
ATOM     28  N   LIG    1       28.758 -20.614   5.462  0.00  0.00    -0.337 N 
ATOM     29  H   LIG    1       28.735 -21.014   6.415  0.00  0.00    +0.146 HD
BRANCH  28  33
ATOM     30  C   LIG    1       28.883 -16.291   5.713  0.00  0.00    +0.064 A 
ATOM     31  C   LIG    1       29.165 -16.936   4.469  0.00  0.00    +0.017 A 
ATOM     32  C   LIG    1       29.474 -18.354   4.391  0.00  0.00    +0.024 A 
ATOM     33  C   LIG    1       29.339 -19.223   5.555  0.00  0.00    +0.028 A 
ATOM     34  C   LIG    1       29.123 -18.522   6.819  0.00  0.00    +0.024 A 
ATOM     35  C   LIG    1       28.869 -17.098   6.866  0.00  0.00    +0.017 A 
BRANCH  30  37
ATOM     36  N   LIG    1       29.083 -14.085   4.883  0.00  0.00    +0.065 NA
ATOM     37  C   LIG    1       28.416 -14.837   5.774  0.00  0.00    +0.314 C 
BRANCH  37  38
ATOM     38  N   LIG    1       27.428 -14.462   6.607  0.00  0.00    -0.248 N 
ATOM     39  H   LIG    1       27.475 -14.762   7.583  0.00  0.00    +0.288 HD
ATOM     40  H   LIG    1       26.464 -14.701   6.259  0.00  0.00    +0.288 HD
ENDBRANCH  37  38
BRANCH  36  41
ATOM     41  C   LIG    1       28.861 -12.740   4.858  0.00  0.00    +0.542 C 
ATOM     42  O   LIG    1       28.807 -12.072   5.908  0.00  0.00    -0.198 OA
BRANCH  41  43
ATOM     43  O   LIG    1       28.704 -12.210   3.631  0.00  0.00    -0.429 OA
BRANCH  43  44
ATOM     44  C   LIG    1       27.751 -12.812   2.762  0.00  0.00    +0.236 C 
BRANCH  44  45
ATOM     45  C   LIG    1       27.599 -14.249   3.200  0.00  0.00    +0.041 C 
BRANCH  45  46
ATOM     46  C   LIG    1       26.151 -14.574   3.513  0.00  0.00    +0.003 C 
BRANCH  46  47
ATOM     47  C   LIG    1       25.646 -15.800   2.761  0.00  0.00    -0.000 C 
BRANCH  47  49
ATOM     48  C   LIG    1       26.680 -17.655   4.125  0.00  0.00    +0.004 C 
ATOM     49  C   LIG    1       26.638 -16.966   2.772  0.00  0.00    -0.003 C 
ENDBRANCH  47  49
ENDBRANCH  46  47
ENDBRANCH  45  46
ENDBRANCH  44  45
ENDBRANCH  43  44
ENDBRANCH  41  43
ENDBRANCH  36  41
ENDBRANCH  30  37
ENDBRANCH  28  33
ENDBRANCH  27  28
ENDBRANCH   1  27
TORSDOF 19
ENDMDL
MODEL 2
REMARK VINA RESULT:      36.2      2.458      5.691
REMARK  Name = *****
REMARK                            x       y       z     vdW  Elec       q    Type
REMARK                         _______ _______ _______ _____ _____    ______ ____
ROOT
ATOM      1  C   LIG    1       21.356 -17.818   5.465  0.00  0.00    +0.128 A 
ATOM      2  N   LIG    1       20.618 -16.718   5.909  0.00  0.00    -0.329 N 
ATOM      3  C   LIG    1       19.350 -16.866   6.567  0.00  0.00    +0.150 C 
ATOM      4  C   LIG    1       21.468 -15.623   6.045  0.00  0.00    +0.069 A 
ATOM      5  C   LIG    1       22.723 -16.213   6.066  0.00  0.00    +0.090 A 
ATOM      6  C   LIG    1       23.874 -15.365   5.980  0.00  0.00    +0.043 A 
ATOM      7  C   LIG    1       23.829 -14.001   5.753  0.00  0.00    +0.039 A 
ATOM      8  C   LIG    1       22.600 -13.450   6.132  0.00  0.00    +0.015 A 
ATOM      9  C   LIG    1       21.407 -14.251   6.285  0.00  0.00    +0.029 A 
ATOM     10  N   LIG    1       22.501 -17.590   6.131  0.00  0.00    -0.231 NA
ENDROOT
BRANCH   7  11
ATOM     11  C   LIG    1       25.156 -13.259   5.559  0.00  0.00    +0.252 C 
ATOM     12  N   LIG    1       25.413 -12.330   4.502  0.00  0.00    -0.252 N 
ATOM     13  O   LIG    1       26.052 -13.631   6.325  0.00  0.00    -0.270 OA
BRANCH  12  14
ATOM     14  C   LIG    1       26.761 -11.877   4.266  0.00  0.00    +0.128 A 
ATOM     15  N   LIG    1       27.601 -11.892   5.340  0.00  0.00    -0.240 NA
ATOM     16  C   LIG    1       28.912 -11.654   5.151  0.00  0.00    +0.113 A 
ATOM     17  C   LIG    1       29.467 -11.447   3.908  0.00  0.00    +0.020 A 
ATOM     18  C   LIG    1       28.620 -11.489   2.804  0.00  0.00    +0.005 A 
ATOM     19  C   LIG    1       27.248 -11.707   2.979  0.00  0.00    +0.044 A 
ENDBRANCH  12  14
BRANCH  12  20
ATOM     20  C   LIG    1       24.554 -11.589   3.539  0.00  0.00    +0.126 C 
BRANCH  20  21
ATOM     21  C   LIG    1       23.950 -12.244   2.360  0.00  0.00    +0.140 C 
BRANCH  21  22
ATOM     22  C   LIG    1       24.176 -13.715   2.446  0.00  0.00    +0.309 C 
ATOM     23  O   LIG    1       25.227 -14.344   2.409  0.00  0.00    -0.251 OA
BRANCH  22  24
ATOM     24  O   LIG    1       22.987 -14.290   2.660  0.00  0.00    -0.465 OA
BRANCH  24  25
ATOM     25  C   LIG    1       22.992 -15.444   3.452  0.00  0.00    +0.228 C 
ATOM     26  C   LIG    1       23.691 -16.215   2.509  0.00  0.00    +0.048 C 
ENDBRANCH  24  25
ENDBRANCH  22  24
ENDBRANCH  21  22
ENDBRANCH  20  21
ENDBRANCH  12  20
ENDBRANCH   7  11
BRANCH   1  27
ATOM     27  C   LIG    1       20.728 -19.132   4.653  0.00  0.00    +0.176 C 
BRANCH  27  28
ATOM     28  N   LIG    1       21.143 -20.698   4.660  0.00  0.00    -0.337 N 
ATOM     29  H   LIG    1       20.414 -21.189   5.204  0.00  0.00    +0.146 HD
BRANCH  28  33
ATOM     30  C   LIG    1       25.322 -21.195   5.686  0.00  0.00    +0.064 A 
ATOM     31  C   LIG    1       24.921 -21.231   4.315  0.00  0.00    +0.017 A 
ATOM     32  C   LIG    1       23.533 -21.413   3.924  0.00  0.00    +0.024 A 
ATOM     33  C   LIG    1       22.460 -21.392   4.912  0.00  0.00    +0.028 A 
ATOM     34  C   LIG    1       22.909 -21.428   6.303  0.00  0.00    +0.024 A 
ATOM     35  C   LIG    1       24.307 -21.296   6.655  0.00  0.00    +0.017 A 
BRANCH  30  37
ATOM     36  N   LIG    1       27.200 -19.780   5.422  0.00  0.00    +0.065 NA
ATOM     37  C   LIG    1       26.757 -20.856   6.093  0.00  0.00    +0.314 C 
BRANCH  37  38
ATOM     38  N   LIG    1       27.393 -21.569   7.040  0.00  0.00    -0.248 N 
ATOM     39  H   LIG    1       28.012 -22.326   6.745  0.00  0.00    +0.288 HD
ATOM     40  H   LIG    1       26.754 -21.965   7.776  0.00  0.00    +0.288 HD
ENDBRANCH  37  38
BRANCH  36  41
ATOM     41  C   LIG    1       28.493 -19.385   5.592  0.00  0.00    +0.542 C 
ATOM     42  O   LIG    1       29.443 -20.093   5.205  0.00  0.00    -0.198 OA
BRANCH  41  43
ATOM     43  O   LIG    1       28.653 -18.196   6.201  0.00  0.00    -0.429 OA
BRANCH  43  44
ATOM     44  C   LIG    1       28.888 -17.055   5.384  0.00  0.00    +0.236 C 
BRANCH  44  45
ATOM     45  C   LIG    1       27.542 -16.442   5.081  0.00  0.00    +0.041 C 
BRANCH  45  46
ATOM     46  C   LIG    1       26.978 -16.979   3.780  0.00  0.00    +0.003 C 
BRANCH  46  47
ATOM     47  C   LIG    1       26.564 -15.873   2.815  0.00  0.00    -0.000 C 
BRANCH  47  49
ATOM     48  C   LIG    1       28.532 -14.759   3.934  0.00  0.00    +0.004 C 
ATOM     49  C   LIG    1       27.553 -14.706   2.774  0.00  0.00    -0.003 C 
ENDBRANCH  47  49
ENDBRANCH  46  47
ENDBRANCH  45  46
ENDBRANCH  44  45
ENDBRANCH  43  44
ENDBRANCH  41  43
ENDBRANCH  36  41
ENDBRANCH  30  37
ENDBRANCH  28  33
ENDBRANCH  27  28
ENDBRANCH   1  27
TORSDOF 19
ENDMDL
