MODEL 1
REMARK VINA RESULT:     -10.5      0.000      0.000
REMARK  Name = *****
REMARK                            x       y       z     vdW  Elec       q    Type
REMARK                         _______ _______ _______ _____ _____    ______ ____
ROOT
ATOM      1  C   LIG    1       27.551 -21.807   7.578  0.00  0.00    +0.267 C 
ENDROOT
BRANCH   1   2
ATOM      2  C   LIG    1       28.489 -20.684   7.201  0.00  0.00    -0.007 A 
ATOM      3  C   LIG    1       29.679 -20.424   7.908  0.00  0.00    +0.053 A 
ATOM      4  C   LIG    1       30.558 -19.425   7.466  0.00  0.00    +0.129 A 
ATOM      5  C   LIG    1       30.275 -18.736   6.281  0.00  0.00    +0.046 A 
ATOM      6  C   LIG    1       29.070 -18.934   5.618  0.00  0.00    +0.004 A 
ATOM      7  C   LIG    1       28.183 -19.902   6.075  0.00  0.00    +0.007 A 
BRANCH   4   8
ATOM      8  O   LIG    1       31.696 -19.188   8.219  0.00  0.00    -0.456 OA
BRANCH   8   9
ATOM      9  C   LIG    1       31.675 -18.180   9.168  0.00  0.00    +0.128 A 
ATOM     10  C   LIG    1       32.450 -17.015   9.075  0.00  0.00    +0.046 A 
ATOM     11  C   LIG    1       32.445 -16.073  10.101  0.00  0.00    +0.004 A 
ATOM     12  C   LIG    1       31.594 -16.238  11.188  0.00  0.00    +0.000 A 
ATOM     13  C   LIG    1       30.763 -17.357  11.257  0.00  0.00    +0.004 A 
ATOM     14  C   LIG    1       30.811 -18.334  10.255  0.00  0.00    +0.046 A 
ENDBRANCH   8   9
ENDBRANCH   4   8
ENDBRANCH   1   2
BRANCH   1  15
ATOM     15  O   LIG    1       26.410 -21.319   8.292  0.00  0.00    -0.460 OA
BRANCH  15  16
ATOM     16  C   LIG    1       25.233 -21.375   7.601  0.00  0.00    +0.312 C 
ATOM     17  O   LIG    1       24.197 -20.835   7.927  0.00  0.00    -0.251 OA
BRANCH  16  20
ATOM     18  C   LIG    1       25.003 -24.590   5.540  0.00  0.00    +0.012 C 
ATOM     19  C   LIG    1       24.382 -23.292   6.002  0.00  0.00    -0.014 C 
ATOM     20  C   LIG    1       25.379 -22.194   6.366  0.00  0.00    +0.111 C 
ATOM     21  C   LIG    1       24.519 -22.051   5.125  0.00  0.00    +0.035 C 
ATOM     22  C   LIG    1       23.122 -23.524   6.808  0.00  0.00    +0.012 C 
BRANCH  21  23
ATOM     23  C   LIG    1       23.455 -21.033   5.045  0.00  0.00    +0.010 C 
ATOM     24  C   LIG    1       23.512 -19.821   4.470  0.00  0.00    +0.103 C 
ATOM     25 CL   LIG    1       22.125 -18.786   4.485  0.00  0.00    -0.071 Cl
ATOM     26 CL   LIG    1       24.933 -19.235   3.687  0.00  0.00    -0.071 Cl
ENDBRANCH  21  23
ENDBRANCH  16  20
ENDBRANCH  15  16
ENDBRANCH   1  15
TORSDOF 7
ENDMDL
MODEL 2
REMARK VINA RESULT:      -9.5      2.325      3.028
REMARK  Name = *****
REMARK                            x       y       z     vdW  Elec       q    Type
REMARK                         _______ _______ _______ _____ _____    ______ ____
ROOT
ATOM      1  C   LIG    1       28.126 -21.733   7.988  0.00  0.00    +0.267 C 
ENDROOT
BRANCH   1   2
ATOM      2  C   LIG    1       28.765 -20.516   7.360  0.00  0.00    -0.007 A 
ATOM      3  C   LIG    1       29.951 -19.943   7.859  0.00  0.00    +0.053 A 
ATOM      4  C   LIG    1       30.550 -18.866   7.190  0.00  0.00    +0.129 A 
ATOM      5  C   LIG    1       29.996 -18.411   5.987  0.00  0.00    +0.046 A 
ATOM      6  C   LIG    1       28.788 -18.920   5.527  0.00  0.00    +0.004 A 
ATOM      7  C   LIG    1       28.177 -19.966   6.209  0.00  0.00    +0.007 A 
BRANCH   4   8
ATOM      8  O   LIG    1       31.695 -18.318   7.743  0.00  0.00    -0.456 OA
BRANCH   8   9
ATOM      9  C   LIG    1       31.601 -17.637   8.946  0.00  0.00    +0.128 A 
ATOM     10  C   LIG    1       32.551 -16.705   9.381  0.00  0.00    +0.046 A 
ATOM     11  C   LIG    1       32.442 -16.110  10.636  0.00  0.00    +0.004 A 
ATOM     12  C   LIG    1       31.331 -16.369  11.430  0.00  0.00    +0.000 A 
ATOM     13  C   LIG    1       30.340 -17.239  10.976  0.00  0.00    +0.004 A 
ATOM     14  C   LIG    1       30.478 -17.883   9.740  0.00  0.00    +0.046 A 
ENDBRANCH   8   9
ENDBRANCH   4   8
ENDBRANCH   1   2
BRANCH   1  15
ATOM     15  O   LIG    1       26.821 -21.975   7.451  0.00  0.00    -0.460 OA
BRANCH  15  16
ATOM     16  C   LIG    1       25.789 -21.560   8.244  0.00  0.00    +0.312 C 
ATOM     17  O   LIG    1       25.896 -20.882   9.244  0.00  0.00    -0.251 OA
BRANCH  16  20
ATOM     18  C   LIG    1       22.748 -21.466   5.925  0.00  0.00    +0.012 C 
ATOM     19  C   LIG    1       24.136 -21.979   6.233  0.00  0.00    -0.014 C 
ATOM     20  C   LIG    1       24.483 -22.046   7.718  0.00  0.00    +0.111 C 
ATOM     21  C   LIG    1       24.290 -23.327   6.931  0.00  0.00    +0.035 C 
ATOM     22  C   LIG    1       25.145 -21.534   5.196  0.00  0.00    +0.012 C 
BRANCH  21  23
ATOM     23  C   LIG    1       25.422 -24.228   6.643  0.00  0.00    +0.010 C 
ATOM     24  C   LIG    1       25.380 -25.485   6.175  0.00  0.00    +0.103 C 
ATOM     25 CL   LIG    1       26.848 -26.359   5.900  0.00  0.00    -0.071 Cl
ATOM     26 CL   LIG    1       23.897 -26.289   5.815  0.00  0.00    -0.071 Cl
ENDBRANCH  21  23
ENDBRANCH  16  20
ENDBRANCH  15  16
ENDBRANCH   1  15
TORSDOF 7
ENDMDL
MODEL 3
REMARK VINA RESULT:      -9.2      1.626      2.409
REMARK  Name = *****
REMARK                            x       y       z     vdW  Elec       q    Type
REMARK                         _______ _______ _______ _____ _____    ______ ____
ROOT
ATOM      1  C   LIG    1       27.119 -19.702   5.226  0.00  0.00    +0.267 C 
ENDROOT
BRANCH   1   2
ATOM      2  C   LIG    1       28.260 -19.964   6.181  0.00  0.00    -0.007 A 
ATOM      3  C   LIG    1       29.265 -19.011   6.438  0.00  0.00    +0.053 A 
ATOM      4  C   LIG    1       30.254 -19.270   7.398  0.00  0.00    +0.129 A 
ATOM      5  C   LIG    1       30.194 -20.452   8.145  0.00  0.00    +0.046 A 
ATOM      6  C   LIG    1       29.251 -21.429   7.848  0.00  0.00    +0.004 A 
ATOM      7  C   LIG    1       28.290 -21.185   6.874  0.00  0.00    +0.007 A 
BRANCH   4   8
ATOM      8  O   LIG    1       31.238 -18.313   7.584  0.00  0.00    -0.456 OA
BRANCH   8   9
ATOM      9  C   LIG    1       31.337 -17.682   8.813  0.00  0.00    +0.128 A 
ATOM     10  C   LIG    1       32.446 -16.919   9.202  0.00  0.00    +0.046 A 
ATOM     11  C   LIG    1       32.521 -16.373  10.481  0.00  0.00    +0.004 A 
ATOM     12  C   LIG    1       31.448 -16.505  11.355  0.00  0.00    +0.000 A 
ATOM     13  C   LIG    1       30.307 -17.201  10.953  0.00  0.00    +0.004 A 
ATOM     14  C   LIG    1       30.254 -17.800   9.688  0.00  0.00    +0.046 A 
ENDBRANCH   8   9
ENDBRANCH   4   8
ENDBRANCH   1   2
BRANCH   1  15
ATOM     15  O   LIG    1       26.117 -20.720   5.315  0.00  0.00    -0.460 OA
BRANCH  15  16
ATOM     16  C   LIG    1       25.118 -20.624   4.388  0.00  0.00    +0.312 C 
ATOM     17  O   LIG    1       25.216 -20.106   3.296  0.00  0.00    -0.251 OA
BRANCH  16  20
ATOM     18  C   LIG    1       23.018 -22.649   6.863  0.00  0.00    +0.012 C 
ATOM     19  C   LIG    1       23.528 -21.312   6.376  0.00  0.00    -0.014 C 
ATOM     20  C   LIG    1       23.864 -21.254   4.888  0.00  0.00    +0.111 C 
ATOM     21  C   LIG    1       22.666 -20.493   5.420  0.00  0.00    +0.035 C 
ATOM     22  C   LIG    1       24.385 -20.622   7.416  0.00  0.00    +0.012 C 
BRANCH  21  23
ATOM     23  C   LIG    1       22.649 -19.019   5.456  0.00  0.00    +0.010 C 
ATOM     24  C   LIG    1       21.957 -18.180   4.668  0.00  0.00    +0.103 C 
ATOM     25 CL   LIG    1       22.082 -16.470   4.897  0.00  0.00    -0.071 Cl
ATOM     26 CL   LIG    1       20.914 -18.740   3.413  0.00  0.00    -0.071 Cl
ENDBRANCH  21  23
ENDBRANCH  16  20
ENDBRANCH  15  16
ENDBRANCH   1  15
TORSDOF 7
ENDMDL
MODEL 4
REMARK VINA RESULT:      -9.2      2.340      3.229
REMARK  Name = *****
REMARK                            x       y       z     vdW  Elec       q    Type
REMARK                         _______ _______ _______ _____ _____    ______ ____
ROOT
ATOM      1  C   LIG    1       28.143 -19.439   5.454  0.00  0.00    +0.267 C 
ENDROOT
BRANCH   1   2
ATOM      2  C   LIG    1       29.210 -19.683   6.496  0.00  0.00    -0.007 A 
ATOM      3  C   LIG    1       30.148 -18.697   6.860  0.00  0.00    +0.053 A 
ATOM      4  C   LIG    1       31.064 -18.944   7.894  0.00  0.00    +0.129 A 
ATOM      5  C   LIG    1       30.993 -20.148   8.603  0.00  0.00    +0.046 A 
ATOM      6  C   LIG    1       30.121 -21.153   8.203  0.00  0.00    +0.004 A 
ATOM      7  C   LIG    1       29.234 -20.921   7.157  0.00  0.00    +0.007 A 
BRANCH   4   8
ATOM      8  O   LIG    1       31.987 -17.954   8.187  0.00  0.00    -0.456 OA
BRANCH   8   9
ATOM      9  C   LIG    1       31.934 -17.331   9.424  0.00  0.00    +0.128 A 
ATOM     10  C   LIG    1       33.021 -16.658   9.996  0.00  0.00    +0.046 A 
ATOM     11  C   LIG    1       32.931 -16.119  11.277  0.00  0.00    +0.004 A 
ATOM     12  C   LIG    1       31.723 -16.164  11.963  0.00  0.00    +0.000 A 
ATOM     13  C   LIG    1       30.611 -16.767  11.374  0.00  0.00    +0.004 A 
ATOM     14  C   LIG    1       30.718 -17.361  10.110  0.00  0.00    +0.046 A 
ENDBRANCH   8   9
ENDBRANCH   4   8
ENDBRANCH   1   2
BRANCH   1  15
ATOM     15  O   LIG    1       26.982 -20.241   5.697  0.00  0.00    -0.460 OA
BRANCH  15  16
ATOM     16  C   LIG    1       25.908 -19.950   4.904  0.00  0.00    +0.312 C 
ATOM     17  O   LIG    1       25.964 -19.520   3.772  0.00  0.00    -0.251 OA
BRANCH  16  20
ATOM     18  C   LIG    1       22.136 -20.551   5.115  0.00  0.00    +0.012 C 
ATOM     19  C   LIG    1       23.537 -21.102   4.986  0.00  0.00    -0.014 C 
ATOM     20  C   LIG    1       24.630 -20.238   5.612  0.00  0.00    +0.111 C 
ATOM     21  C   LIG    1       24.269 -21.568   6.241  0.00  0.00    +0.035 C 
ATOM     22  C   LIG    1       23.744 -21.819   3.670  0.00  0.00    +0.012 C 
BRANCH  21  23
ATOM     23  C   LIG    1       25.207 -22.706   6.218  0.00  0.00    +0.010 C 
ATOM     24  C   LIG    1       24.930 -24.010   6.379  0.00  0.00    +0.103 C 
ATOM     25 CL   LIG    1       26.199 -25.184   6.303  0.00  0.00    -0.071 Cl
ATOM     26 CL   LIG    1       23.328 -24.588   6.654  0.00  0.00    -0.071 Cl
ENDBRANCH  21  23
ENDBRANCH  16  20
ENDBRANCH  15  16
ENDBRANCH   1  15
TORSDOF 7
ENDMDL
MODEL 5
REMARK VINA RESULT:      -8.9      5.176      7.695
REMARK  Name = *****
REMARK                            x       y       z     vdW  Elec       q    Type
REMARK                         _______ _______ _______ _____ _____    ______ ____
ROOT
ATOM      1  C   LIG    1       25.869 -25.815   6.252  0.00  0.00    +0.267 C 
ENDROOT
BRANCH   1   2
ATOM      2  C   LIG    1       25.030 -24.627   6.661  0.00  0.00    -0.007 A 
ATOM      3  C   LIG    1       25.596 -23.447   7.182  0.00  0.00    +0.053 A 
ATOM      4  C   LIG    1       24.782 -22.340   7.465  0.00  0.00    +0.129 A 
ATOM      5  C   LIG    1       23.416 -22.396   7.163  0.00  0.00    +0.046 A 
ATOM      6  C   LIG    1       22.838 -23.579   6.718  0.00  0.00    +0.004 A 
ATOM      7  C   LIG    1       23.640 -24.686   6.468  0.00  0.00    +0.007 A 
BRANCH   4   8
ATOM      8  O   LIG    1       25.385 -21.218   8.009  0.00  0.00    -0.456 OA
BRANCH   8   9
ATOM      9  C   LIG    1       26.475 -20.661   7.361  0.00  0.00    +0.128 A 
ATOM     10  C   LIG    1       26.473 -20.317   6.003  0.00  0.00    +0.046 A 
ATOM     11  C   LIG    1       27.626 -19.832   5.390  0.00  0.00    +0.004 A 
ATOM     12  C   LIG    1       28.766 -19.596   6.148  0.00  0.00    +0.000 A 
ATOM     13  C   LIG    1       28.758 -19.865   7.518  0.00  0.00    +0.004 A 
ATOM     14  C   LIG    1       27.618 -20.408   8.123  0.00  0.00    +0.046 A 
ENDBRANCH   8   9
ENDBRANCH   4   8
ENDBRANCH   1   2
BRANCH   1  15
ATOM     15  O   LIG    1       25.373 -27.029   6.828  0.00  0.00    -0.460 OA
BRANCH  15  16
ATOM     16  C   LIG    1       25.070 -28.010   5.928  0.00  0.00    +0.312 C 
ATOM     17  O   LIG    1       25.415 -28.031   4.765  0.00  0.00    -0.251 OA
BRANCH  16  20
ATOM     18  C   LIG    1       23.650 -31.549   6.234  0.00  0.00    +0.012 C 
ATOM     19  C   LIG    1       24.710 -30.535   6.598  0.00  0.00    -0.014 C 
ATOM     20  C   LIG    1       24.249 -29.079   6.560  0.00  0.00    +0.111 C 
ATOM     21  C   LIG    1       24.560 -29.737   7.890  0.00  0.00    +0.035 C 
ATOM     22  C   LIG    1       26.081 -30.950   6.110  0.00  0.00    +0.012 C 
BRANCH  21  23
ATOM     23  C   LIG    1       25.728 -29.328   8.692  0.00  0.00    +0.010 C 
ATOM     24  C   LIG    1       25.833 -29.267  10.029  0.00  0.00    +0.103 C 
ATOM     25 CL   LIG    1       27.317 -28.764  10.763  0.00  0.00    -0.071 Cl
ATOM     26 CL   LIG    1       24.530 -29.688  11.079  0.00  0.00    -0.071 Cl
ENDBRANCH  21  23
ENDBRANCH  16  20
ENDBRANCH  15  16
ENDBRANCH   1  15
TORSDOF 7
ENDMDL
MODEL 6
REMARK VINA RESULT:      -8.8      6.202      8.730
REMARK  Name = *****
REMARK                            x       y       z     vdW  Elec       q    Type
REMARK                         _______ _______ _______ _____ _____    ______ ____
ROOT
ATOM      1  C   LIG    1       23.995 -26.063   5.798  0.00  0.00    +0.267 C 
ENDROOT
BRANCH   1   2
ATOM      2  C   LIG    1       24.460 -24.738   6.358  0.00  0.00    -0.007 A 
ATOM      3  C   LIG    1       23.651 -23.585   6.340  0.00  0.00    +0.053 A 
ATOM      4  C   LIG    1       24.096 -22.403   6.949  0.00  0.00    +0.129 A 
ATOM      5  C   LIG    1       25.318 -22.399   7.632  0.00  0.00    +0.046 A 
ATOM      6  C   LIG    1       26.154 -23.508   7.591  0.00  0.00    +0.004 A 
ATOM      7  C   LIG    1       25.727 -24.670   6.960  0.00  0.00    +0.007 A 
BRANCH   4   8
ATOM      8  O   LIG    1       23.276 -21.290   6.872  0.00  0.00    -0.456 OA
BRANCH   8   9
ATOM      9  C   LIG    1       23.413 -20.427   5.797  0.00  0.00    +0.128 A 
ATOM     10  C   LIG    1       22.427 -19.510   5.411  0.00  0.00    +0.046 A 
ATOM     11  C   LIG    1       22.591 -18.724   4.273  0.00  0.00    +0.004 A 
ATOM     12  C   LIG    1       23.784 -18.777   3.561  0.00  0.00    +0.000 A 
ATOM     13  C   LIG    1       24.804 -19.633   3.978  0.00  0.00    +0.004 A 
ATOM     14  C   LIG    1       24.616 -20.467   5.088  0.00  0.00    +0.046 A 
ENDBRANCH   8   9
ENDBRANCH   4   8
ENDBRANCH   1   2
BRANCH   1  15
ATOM     15  O   LIG    1       24.602 -27.163   6.484  0.00  0.00    -0.460 OA
BRANCH  15  16
ATOM     16  C   LIG    1       24.698 -28.312   5.752  0.00  0.00    +0.312 C 
ATOM     17  O   LIG    1       25.266 -28.425   4.687  0.00  0.00    -0.251 OA
BRANCH  16  20
ATOM     18  C   LIG    1       23.648 -31.965   6.192  0.00  0.00    +0.012 C 
ATOM     19  C   LIG    1       24.613 -30.842   6.495  0.00  0.00    -0.014 C 
ATOM     20  C   LIG    1       24.009 -29.441   6.438  0.00  0.00    +0.111 C 
ATOM     21  C   LIG    1       24.427 -30.028   7.772  0.00  0.00    +0.035 C 
ATOM     22  C   LIG    1       26.003 -31.133   5.969  0.00  0.00    +0.012 C 
BRANCH  21  23
ATOM     23  C   LIG    1       25.573 -29.483   8.523  0.00  0.00    +0.010 C 
ATOM     24  C   LIG    1       25.693 -29.326   9.851  0.00  0.00    +0.103 C 
ATOM     25 CL   LIG    1       27.146 -28.670  10.521  0.00  0.00    -0.071 Cl
ATOM     26 CL   LIG    1       24.438 -29.766  10.950  0.00  0.00    -0.071 Cl
ENDBRANCH  21  23
ENDBRANCH  16  20
ENDBRANCH  15  16
ENDBRANCH   1  15
TORSDOF 7
ENDMDL
MODEL 7
REMARK VINA RESULT:      -8.8      4.887     10.221
REMARK  Name = *****
REMARK                            x       y       z     vdW  Elec       q    Type
REMARK                         _______ _______ _______ _____ _____    ______ ____
ROOT
ATOM      1  C   LIG    1       25.060 -25.300   4.954  0.00  0.00    +0.267 C 
ENDROOT
BRANCH   1   2
ATOM      2  C   LIG    1       25.082 -26.499   5.874  0.00  0.00    -0.007 A 
ATOM      3  C   LIG    1       24.324 -27.659   5.621  0.00  0.00    +0.053 A 
ATOM      4  C   LIG    1       24.445 -28.776   6.459  0.00  0.00    +0.129 A 
ATOM      5  C   LIG    1       25.374 -28.753   7.507  0.00  0.00    +0.046 A 
ATOM      6  C   LIG    1       26.071 -27.590   7.807  0.00  0.00    +0.004 A 
ATOM      7  C   LIG    1       25.927 -26.470   6.995  0.00  0.00    +0.007 A 
BRANCH   4   8
ATOM      8  O   LIG    1       23.650 -29.877   6.186  0.00  0.00    -0.456 OA
BRANCH   8   9
ATOM      9  C   LIG    1       24.256 -31.094   5.921  0.00  0.00    +0.128 A 
ATOM     10  C   LIG    1       25.443 -31.223   5.188  0.00  0.00    +0.046 A 
ATOM     11  C   LIG    1       25.962 -32.480   4.888  0.00  0.00    +0.004 A 
ATOM     12  C   LIG    1       25.352 -33.620   5.398  0.00  0.00    +0.000 A 
ATOM     13  C   LIG    1       24.211 -33.502   6.191  0.00  0.00    +0.004 A 
ATOM     14  C   LIG    1       23.655 -32.242   6.444  0.00  0.00    +0.046 A 
ENDBRANCH   8   9
ENDBRANCH   4   8
ENDBRANCH   1   2
BRANCH   1  15
ATOM     15  O   LIG    1       25.352 -24.091   5.662  0.00  0.00    -0.460 OA
BRANCH  15  16
ATOM     16  C   LIG    1       24.256 -23.358   6.022  0.00  0.00    +0.312 C 
ATOM     17  O   LIG    1       23.380 -23.723   6.776  0.00  0.00    -0.251 OA
BRANCH  16  20
ATOM     18  C   LIG    1       22.911 -19.851   5.297  0.00  0.00    +0.012 C 
ATOM     19  C   LIG    1       23.821 -20.758   6.094  0.00  0.00    -0.014 C 
ATOM     20  C   LIG    1       24.269 -22.022   5.364  0.00  0.00    +0.111 C 
ATOM     21  C   LIG    1       25.272 -20.924   5.654  0.00  0.00    +0.035 C 
ATOM     22  C   LIG    1       23.460 -20.771   7.563  0.00  0.00    +0.012 C 
BRANCH  21  23
ATOM     23  C   LIG    1       26.363 -21.120   6.628  0.00  0.00    +0.010 C 
ATOM     24  C   LIG    1       27.587 -20.568   6.622  0.00  0.00    +0.103 C 
ATOM     25 CL   LIG    1       28.713 -20.937   7.882  0.00  0.00    -0.071 Cl
ATOM     26 CL   LIG    1       28.100 -19.473   5.392  0.00  0.00    -0.071 Cl
ENDBRANCH  21  23
ENDBRANCH  16  20
ENDBRANCH  15  16
ENDBRANCH   1  15
TORSDOF 7
ENDMDL
MODEL 8
REMARK VINA RESULT:      -8.7      4.646      8.508
REMARK  Name = *****
REMARK                            x       y       z     vdW  Elec       q    Type
REMARK                         _______ _______ _______ _____ _____    ______ ____
ROOT
ATOM      1  C   LIG    1       25.695 -25.331   5.844  0.00  0.00    +0.267 C 
ENDROOT
BRANCH   1   2
ATOM      2  C   LIG    1       25.444 -26.732   6.351  0.00  0.00    -0.007 A 
ATOM      3  C   LIG    1       26.137 -27.271   7.453  0.00  0.00    +0.053 A 
ATOM      4  C   LIG    1       25.806 -28.545   7.939  0.00  0.00    +0.129 A 
ATOM      5  C   LIG    1       24.740 -29.245   7.362  0.00  0.00    +0.046 A 
ATOM      6  C   LIG    1       24.101 -28.753   6.231  0.00  0.00    +0.004 A 
ATOM      7  C   LIG    1       24.450 -27.505   5.730  0.00  0.00    +0.007 A 
BRANCH   4   8
ATOM      8  O   LIG    1       26.542 -29.041   9.002  0.00  0.00    -0.456 OA
BRANCH   8   9
ATOM      9  C   LIG    1       26.111 -28.788  10.294  0.00  0.00    +0.128 A 
ATOM     10  C   LIG    1       25.008 -29.425  10.878  0.00  0.00    +0.046 A 
ATOM     11  C   LIG    1       24.576 -29.071  12.154  0.00  0.00    +0.004 A 
ATOM     12  C   LIG    1       25.297 -28.144  12.897  0.00  0.00    +0.000 A 
ATOM     13  C   LIG    1       26.441 -27.557  12.354  0.00  0.00    +0.004 A 
ATOM     14  C   LIG    1       26.842 -27.868  11.049  0.00  0.00    +0.046 A 
ENDBRANCH   8   9
ENDBRANCH   4   8
ENDBRANCH   1   2
BRANCH   1  15
ATOM     15  O   LIG    1       25.222 -24.346   6.769  0.00  0.00    -0.460 OA
BRANCH  15  16
ATOM     16  C   LIG    1       23.992 -23.830   6.478  0.00  0.00    +0.312 C 
ATOM     17  O   LIG    1       22.930 -24.288   6.843  0.00  0.00    -0.251 OA
BRANCH  16  20
ATOM     18  C   LIG    1       22.954 -20.345   5.288  0.00  0.00    +0.012 C 
ATOM     19  C   LIG    1       23.793 -21.215   6.196  0.00  0.00    -0.014 C 
ATOM     20  C   LIG    1       24.112 -22.602   5.644  0.00  0.00    +0.111 C 
ATOM     21  C   LIG    1       25.215 -21.571   5.775  0.00  0.00    +0.035 C 
ATOM     22  C   LIG    1       23.460 -20.995   7.656  0.00  0.00    +0.012 C 
BRANCH  21  23
ATOM     23  C   LIG    1       26.302 -21.732   6.759  0.00  0.00    +0.010 C 
ATOM     24  C   LIG    1       27.470 -21.073   6.817  0.00  0.00    +0.103 C 
ATOM     25 CL   LIG    1       28.603 -21.421   8.078  0.00  0.00    -0.071 Cl
ATOM     26 CL   LIG    1       27.903 -19.857   5.673  0.00  0.00    -0.071 Cl
ENDBRANCH  21  23
ENDBRANCH  16  20
ENDBRANCH  15  16
ENDBRANCH   1  15
TORSDOF 7
ENDMDL
MODEL 9
REMARK VINA RESULT:      -8.7      6.705      9.252
REMARK  Name = *****
REMARK                            x       y       z     vdW  Elec       q    Type
REMARK                         _______ _______ _______ _____ _____    ______ ____
ROOT
ATOM      1  C   LIG    1       24.308 -26.702   5.841  0.00  0.00    +0.267 C 
ENDROOT
BRANCH   1   2
ATOM      2  C   LIG    1       24.578 -25.275   6.259  0.00  0.00    -0.007 A 
ATOM      3  C   LIG    1       23.631 -24.246   6.089  0.00  0.00    +0.053 A 
ATOM      4  C   LIG    1       23.897 -22.957   6.573  0.00  0.00    +0.129 A 
ATOM      5  C   LIG    1       25.080 -22.719   7.283  0.00  0.00    +0.046 A 
ATOM      6  C   LIG    1       26.050 -23.707   7.391  0.00  0.00    +0.004 A 
ATOM      7  C   LIG    1       25.800 -24.977   6.884  0.00  0.00    +0.007 A 
BRANCH   4   8
ATOM      8  O   LIG    1       22.947 -21.975   6.347  0.00  0.00    -0.456 OA
BRANCH   8   9
ATOM      9  C   LIG    1       23.207 -20.990   5.408  0.00  0.00    +0.128 A 
ATOM     10  C   LIG    1       24.181 -21.116   4.408  0.00  0.00    +0.046 A 
ATOM     11  C   LIG    1       24.451 -20.060   3.541  0.00  0.00    +0.004 A 
ATOM     12  C   LIG    1       23.686 -18.901   3.602  0.00  0.00    +0.000 A 
ATOM     13  C   LIG    1       22.664 -18.792   4.546  0.00  0.00    +0.004 A 
ATOM     14  C   LIG    1       22.431 -19.830   5.457  0.00  0.00    +0.046 A 
ENDBRANCH   8   9
ENDBRANCH   4   8
ENDBRANCH   1   2
BRANCH   1  15
ATOM     15  O   LIG    1       24.457 -27.607   6.941  0.00  0.00    -0.460 OA
BRANCH  15  16
ATOM     16  C   LIG    1       24.342 -28.928   6.615  0.00  0.00    +0.312 C 
ATOM     17  O   LIG    1       23.561 -29.392   5.811  0.00  0.00    -0.251 OA
BRANCH  16  20
ATOM     18  C   LIG    1       26.019 -30.228   9.799  0.00  0.00    +0.012 C 
ATOM     19  C   LIG    1       24.964 -30.380   8.727  0.00  0.00    -0.014 C 
ATOM     20  C   LIG    1       25.318 -29.753   7.381  0.00  0.00    +0.111 C 
ATOM     21  C   LIG    1       25.259 -31.261   7.517  0.00  0.00    +0.035 C 
ATOM     22  C   LIG    1       23.564 -30.308   9.298  0.00  0.00    +0.012 C 
BRANCH  21  23
ATOM     23  C   LIG    1       24.204 -32.049   6.852  0.00  0.00    +0.010 C 
ATOM     24  C   LIG    1       24.246 -32.637   5.646  0.00  0.00    +0.103 C 
ATOM     25 CL   LIG    1       22.882 -33.528   5.064  0.00  0.00    -0.071 Cl
ATOM     26 CL   LIG    1       25.634 -32.551   4.624  0.00  0.00    -0.071 Cl
ENDBRANCH  21  23
ENDBRANCH  16  20
ENDBRANCH  15  16
ENDBRANCH   1  15
TORSDOF 7
ENDMDL
