MODEL 1
REMARK VINA RESULT:      -6.3      0.000      0.000
REMARK  Name = *****
REMARK                            x       y       z     vdW  Elec       q    Type
REMARK                         _______ _______ _______ _____ _____    ______ ____
ROOT
ATOM      1  C   LIG    1       27.003 -30.079  13.766  0.00  0.00    +0.176 C 
ATOM      2  C   LIG    1       26.272 -29.467  12.449  0.00  0.00    +0.019 C 
ATOM      3  C   LIG    1       26.950 -28.182  11.899  0.00  0.00    +0.016 C 
ATOM      4  C   LIG    1       24.871 -28.958  12.958  0.00  0.00    +0.006 C 
ATOM      5  C   LIG    1       23.680 -29.061  11.972  0.00  0.00    +0.020 C 
ATOM      6  C   LIG    1       23.701 -30.352  11.161  0.00  0.00    -0.055 C 
ATOM      7  C   LIG    1       24.995 -30.511  10.351  0.00  0.00    +0.046 C 
ATOM      8  C   LIG    1       22.631 -31.187  11.117  0.00  0.00    -0.044 C 
ATOM      9  C   LIG    1       21.337 -30.757  11.658  0.00  0.00    -0.041 C 
ATOM     10  C   LIG    1       20.339 -31.609  11.942  0.00  0.00    +0.050 C 
ATOM     11  C   LIG    1       20.517 -33.067  11.777  0.00  0.00    +0.157 C 
ATOM     12  O   LIG    1       19.597 -33.824  12.081  0.00  0.00    -0.293 OA
ATOM     13  C   LIG    1       21.860 -33.574  11.317  0.00  0.00    +0.083 C 
ATOM     14  C   LIG    1       21.165 -29.271  11.837  0.00  0.00    +0.036 C 
ATOM     15  C   LIG    1       22.575 -32.544  10.445  0.00  0.00    +0.043 C 
ATOM     16  C   LIG    1       22.333 -28.762  12.664  0.00  0.00    +0.013 C 
ATOM     17  C   LIG    1       24.708 -29.560  14.348  0.00  0.00    +0.009 C 
ATOM     18  C   LIG    1       26.199 -30.543  11.318  0.00  0.00    +0.024 C 
ATOM     19  C   LIG    1       26.122 -29.545  14.909  0.00  0.00    +0.057 C 
ENDROOT
BRANCH   7  20
ATOM     20  C   LIG    1       25.110 -29.540   9.167  0.00  0.00    -0.040 A 
ATOM     21  C   LIG    1       26.122 -28.579   9.079  0.00  0.00    +0.006 A 
ATOM     22  C   LIG    1       26.242 -27.728   7.970  0.00  0.00    +0.023 A 
ATOM     23  C   LIG    1       25.403 -27.829   6.855  0.00  0.00    +0.029 A 
ATOM     24  C   LIG    1       24.384 -28.789   6.954  0.00  0.00    +0.023 A 
ATOM     25  C   LIG    1       24.248 -29.636   8.068  0.00  0.00    +0.006 A 
BRANCH  23  26
ATOM     26  N   LIG    1       25.545 -27.000   5.732  0.00  0.00    -0.336 N 
ATOM     27  C   LIG    1       26.114 -27.584   4.514  0.00  0.00    +0.129 C 
ATOM     28  C   LIG    1       24.491 -26.012   5.496  0.00  0.00    +0.129 C 
ENDBRANCH  23  26
ENDBRANCH   7  20
BRANCH   1  29
ATOM     29  C   LIG    1       28.479 -29.609  13.937  0.00  0.00    +0.174 C 
ATOM     30  O   LIG    1       29.395 -30.074  13.251  0.00  0.00    -0.293 OA
ATOM     31  C   LIG    1       28.805 -28.608  15.023  0.00  0.00    +0.090 C 
ENDBRANCH   1  29
BRANCH   1  32
ATOM     32  O   LIG    1       26.879 -31.532  13.740  0.00  0.00    -0.450 OA
BRANCH  32  34
ATOM     33  C   LIG    1       25.610 -32.806  15.299  0.00  0.00    +0.136 C 
ATOM     34  C   LIG    1       26.969 -32.271  14.869  0.00  0.00    +0.305 C 
ATOM     35  O   LIG    1       27.986 -32.505  15.470  0.00  0.00    -0.251 OA
ENDBRANCH  32  34
ENDBRANCH   1  32
TORSDOF 5
ENDMDL
MODEL 2
REMARK VINA RESULT:      -6.2      3.512      6.656
REMARK  Name = *****
REMARK                            x       y       z     vdW  Elec       q    Type
REMARK                         _______ _______ _______ _____ _____    ______ ____
ROOT
ATOM      1  C   LIG    1       24.472 -31.342   8.179  0.00  0.00    +0.176 C 
ATOM      2  C   LIG    1       25.270 -31.209   9.589  0.00  0.00    +0.019 C 
ATOM      3  C   LIG    1       26.621 -31.974   9.616  0.00  0.00    +0.016 C 
ATOM      4  C   LIG    1       24.384 -31.984  10.636  0.00  0.00    +0.006 C 
ATOM      5  C   LIG    1       24.367 -31.443  12.087  0.00  0.00    +0.020 C 
ATOM      6  C   LIG    1       24.342 -29.920  12.145  0.00  0.00    -0.055 C 
ATOM      7  C   LIG    1       25.541 -29.289  11.423  0.00  0.00    +0.046 C 
ATOM      8  C   LIG    1       23.397 -29.245  12.850  0.00  0.00    -0.044 C 
ATOM      9  C   LIG    1       22.511 -29.965  13.771  0.00  0.00    -0.041 C 
ATOM     10  C   LIG    1       21.370 -29.445  14.250  0.00  0.00    +0.050 C 
ATOM     11  C   LIG    1       20.904 -28.111  13.817  0.00  0.00    +0.157 C 
ATOM     12  O   LIG    1       19.836 -27.678  14.245  0.00  0.00    -0.293 OA
ATOM     13  C   LIG    1       21.725 -27.366  12.795  0.00  0.00    +0.083 C 
ATOM     14  C   LIG    1       22.983 -31.330  14.199  0.00  0.00    +0.036 C 
ATOM     15  C   LIG    1       23.203 -27.744  12.885  0.00  0.00    +0.043 C 
ATOM     16  C   LIG    1       23.286 -32.134  12.946  0.00  0.00    +0.013 C 
ATOM     17  C   LIG    1       23.049 -32.213   9.938  0.00  0.00    +0.009 C 
ATOM     18  C   LIG    1       25.515 -29.706   9.936  0.00  0.00    +0.024 C 
ATOM     19  C   LIG    1       23.443 -32.444   8.487  0.00  0.00    +0.057 C 
ENDROOT
BRANCH   7  20
ATOM     20  C   LIG    1       26.878 -29.485  12.152  0.00  0.00    -0.040 A 
ATOM     21  C   LIG    1       28.112 -29.347  11.510  0.00  0.00    +0.006 A 
ATOM     22  C   LIG    1       29.326 -29.484  12.198  0.00  0.00    +0.023 A 
ATOM     23  C   LIG    1       29.383 -29.701  13.579  0.00  0.00    +0.029 A 
ATOM     24  C   LIG    1       28.142 -29.847  14.217  0.00  0.00    +0.023 A 
ATOM     25  C   LIG    1       26.920 -29.725  13.530  0.00  0.00    +0.006 A 
BRANCH  23  26
ATOM     26  N   LIG    1       30.598 -29.804  14.273  0.00  0.00    -0.336 N 
ATOM     27  C   LIG    1       31.830 -29.928  13.489  0.00  0.00    +0.129 C 
ATOM     28  C   LIG    1       30.735 -29.015  15.499  0.00  0.00    +0.129 C 
ENDBRANCH  23  26
ENDBRANCH   7  20
BRANCH   1  29
ATOM     29  C   LIG    1       25.381 -31.751   6.982  0.00  0.00    +0.174 C 
ATOM     30  O   LIG    1       26.378 -31.093   6.665  0.00  0.00    -0.293 OA
ATOM     31  C   LIG    1       24.990 -32.948   6.144  0.00  0.00    +0.090 C 
ENDBRANCH   1  29
BRANCH   1  32
ATOM     32  O   LIG    1       23.746 -30.102   7.931  0.00  0.00    -0.450 OA
BRANCH  32  34
ATOM     33  C   LIG    1       24.627 -28.225   6.761  0.00  0.00    +0.136 C 
ATOM     34  C   LIG    1       23.780 -29.490   6.725  0.00  0.00    +0.305 C 
ATOM     35  O   LIG    1       23.233 -29.884   5.728  0.00  0.00    -0.251 OA
ENDBRANCH  32  34
ENDBRANCH   1  32
TORSDOF 5
ENDMDL
MODEL 3
REMARK VINA RESULT:      -6.2      3.384      5.640
REMARK  Name = *****
REMARK                            x       y       z     vdW  Elec       q    Type
REMARK                         _______ _______ _______ _____ _____    ______ ____
ROOT
ATOM      1  C   LIG    1       26.896 -28.273  13.511  0.00  0.00    +0.176 C 
ATOM      2  C   LIG    1       25.309 -28.565  13.712  0.00  0.00    +0.019 C 
ATOM      3  C   LIG    1       24.723 -27.958  15.016  0.00  0.00    +0.016 C 
ATOM      4  C   LIG    1       25.205 -30.119  13.949  0.00  0.00    +0.006 C 
ATOM      5  C   LIG    1       23.942 -30.835  13.408  0.00  0.00    +0.020 C 
ATOM      6  C   LIG    1       23.506 -30.306  12.047  0.00  0.00    -0.055 C 
ATOM      7  C   LIG    1       23.217 -28.799  12.071  0.00  0.00    +0.046 C 
ATOM      8  C   LIG    1       23.316 -31.132  10.985  0.00  0.00    -0.044 C 
ATOM      9  C   LIG    1       23.295 -32.586  11.177  0.00  0.00    -0.041 C 
ATOM     10  C   LIG    1       23.433 -33.462  10.170  0.00  0.00    +0.050 C 
ATOM     11  C   LIG    1       23.680 -32.998   8.788  0.00  0.00    +0.157 C 
ATOM     12  O   LIG    1       23.840 -33.825   7.894  0.00  0.00    -0.293 OA
ATOM     13  C   LIG    1       23.810 -31.514   8.548  0.00  0.00    +0.083 C 
ATOM     14  C   LIG    1       23.057 -33.056  12.588  0.00  0.00    +0.036 C 
ATOM     15  C   LIG    1       22.999 -30.713   9.565  0.00  0.00    +0.043 C 
ATOM     16  C   LIG    1       24.073 -32.371  13.487  0.00  0.00    +0.013 C 
ATOM     17  C   LIG    1       26.569 -30.675  13.557  0.00  0.00    +0.009 C 
ATOM     18  C   LIG    1       24.499 -28.043  12.482  0.00  0.00    +0.024 C 
ATOM     19  C   LIG    1       27.535 -29.585  13.997  0.00  0.00    +0.057 C 
ENDROOT
BRANCH   7  20
ATOM     20  C   LIG    1       21.941 -28.424  12.839  0.00  0.00    -0.040 A 
ATOM     21  C   LIG    1       21.531 -27.099  13.013  0.00  0.00    +0.006 A 
ATOM     22  C   LIG    1       20.338 -26.773  13.677  0.00  0.00    +0.023 A 
ATOM     23  C   LIG    1       19.453 -27.748  14.148  0.00  0.00    +0.029 A 
ATOM     24  C   LIG    1       19.874 -29.076  13.977  0.00  0.00    +0.023 A 
ATOM     25  C   LIG    1       21.075 -29.410  13.325  0.00  0.00    +0.006 A 
BRANCH  23  26
ATOM     26  N   LIG    1       18.245 -27.422  14.782  0.00  0.00    -0.336 N 
ATOM     27  C   LIG    1       17.472 -26.296  14.252  0.00  0.00    +0.129 C 
ATOM     28  C   LIG    1       17.434 -28.533  15.282  0.00  0.00    +0.129 C 
ENDBRANCH  23  26
ENDBRANCH   7  20
BRANCH   1  29
ATOM     29  C   LIG    1       27.418 -27.061  14.339  0.00  0.00    +0.174 C 
ATOM     30  O   LIG    1       27.945 -27.207  15.447  0.00  0.00    -0.293 OA
ATOM     31  C   LIG    1       27.209 -25.664  13.799  0.00  0.00    +0.090 C 
ENDBRANCH   1  29
BRANCH   1  32
ATOM     32  O   LIG    1       27.171 -28.136  12.085  0.00  0.00    -0.450 OA
BRANCH  32  34
ATOM     33  C   LIG    1       27.052 -29.748  10.338  0.00  0.00    +0.136 C 
ATOM     34  C   LIG    1       27.888 -29.064  11.410  0.00  0.00    +0.305 C 
ATOM     35  O   LIG    1       29.048 -29.323  11.602  0.00  0.00    -0.251 OA
ENDBRANCH  32  34
ENDBRANCH   1  32
TORSDOF 5
ENDMDL
MODEL 4
REMARK VINA RESULT:      -6.1      2.824      6.400
REMARK  Name = *****
REMARK                            x       y       z     vdW  Elec       q    Type
REMARK                         _______ _______ _______ _____ _____    ______ ____
ROOT
ATOM      1  C   LIG    1       21.370 -30.469  11.978  0.00  0.00    +0.176 C 
ATOM      2  C   LIG    1       22.780 -30.933  11.315  0.00  0.00    +0.019 C 
ATOM      3  C   LIG    1       22.677 -32.240  10.482  0.00  0.00    +0.016 C 
ATOM      4  C   LIG    1       23.691 -31.342  12.534  0.00  0.00    +0.006 C 
ATOM      5  C   LIG    1       25.210 -31.073  12.402  0.00  0.00    +0.020 C 
ATOM      6  C   LIG    1       25.514 -29.745  11.719  0.00  0.00    -0.055 C 
ATOM      7  C   LIG    1       24.900 -29.657  10.316  0.00  0.00    +0.046 C 
ATOM      8  C   LIG    1       26.323 -28.814  12.290  0.00  0.00    -0.044 C 
ATOM      9  C   LIG    1       27.118 -29.156  13.474  0.00  0.00    -0.041 C 
ATOM     10  C   LIG    1       27.680 -28.235  14.273  0.00  0.00    +0.050 C 
ATOM     11  C   LIG    1       27.471 -26.792  14.031  0.00  0.00    +0.157 C 
ATOM     12  O   LIG    1       27.967 -25.974  14.802  0.00  0.00    -0.293 OA
ATOM     13  C   LIG    1       26.580 -26.383  12.885  0.00  0.00    +0.083 C 
ATOM     14  C   LIG    1       27.318 -30.628  13.725  0.00  0.00    +0.036 C 
ATOM     15  C   LIG    1       26.602 -27.421  11.765  0.00  0.00    +0.043 C 
ATOM     16  C   LIG    1       25.950 -31.289  13.740  0.00  0.00    +0.013 C 
ATOM     17  C   LIG    1       22.970 -30.810  13.767  0.00  0.00    +0.009 C 
ATOM     18  C   LIG    1       23.365 -29.791  10.424  0.00  0.00    +0.024 C 
ATOM     19  C   LIG    1       21.499 -30.987  13.421  0.00  0.00    +0.057 C 
ENDROOT
BRANCH   7  20
ATOM     20  C   LIG    1       25.582 -30.563   9.281  0.00  0.00    -0.040 A 
ATOM     21  C   LIG    1       26.652 -31.402   9.607  0.00  0.00    +0.006 A 
ATOM     22  C   LIG    1       27.237 -32.259   8.663  0.00  0.00    +0.023 A 
ATOM     23  C   LIG    1       26.748 -32.380   7.358  0.00  0.00    +0.029 A 
ATOM     24  C   LIG    1       25.679 -31.530   7.035  0.00  0.00    +0.023 A 
ATOM     25  C   LIG    1       25.097 -30.657   7.972  0.00  0.00    +0.006 A 
BRANCH  23  26
ATOM     26  N   LIG    1       27.312 -33.262   6.423  0.00  0.00    -0.336 N 
ATOM     27  C   LIG    1       26.833 -33.196   5.040  0.00  0.00    +0.129 C 
ATOM     28  C   LIG    1       28.740 -33.552   6.558  0.00  0.00    +0.129 C 
ENDBRANCH  23  26
ENDBRANCH   7  20
BRANCH   1  29
ATOM     29  C   LIG    1       20.119 -31.080  11.279  0.00  0.00    +0.174 C 
ATOM     30  O   LIG    1       19.765 -30.727  10.149  0.00  0.00    -0.293 OA
ATOM     31  C   LIG    1       19.276 -32.082  12.036  0.00  0.00    +0.090 C 
ENDBRANCH   1  29
BRANCH   1  32
ATOM     32  O   LIG    1       21.329 -29.012  12.022  0.00  0.00    -0.450 OA
BRANCH  32  34
ATOM     33  C   LIG    1       21.811 -27.261  13.560  0.00  0.00    +0.136 C 
ATOM     34  C   LIG    1       20.851 -28.349  13.099  0.00  0.00    +0.305 C 
ATOM     35  O   LIG    1       19.795 -28.561  13.636  0.00  0.00    -0.251 OA
ENDBRANCH  32  34
ENDBRANCH   1  32
TORSDOF 5
ENDMDL
MODEL 5
REMARK VINA RESULT:      -5.4      3.558      5.994
REMARK  Name = *****
REMARK                            x       y       z     vdW  Elec       q    Type
REMARK                         _______ _______ _______ _____ _____    ______ ____
ROOT
ATOM      1  C   LIG    1       25.201 -32.354   7.910  0.00  0.00    +0.176 C 
ATOM      2  C   LIG    1       25.408 -31.537   9.301  0.00  0.00    +0.019 C 
ATOM      3  C   LIG    1       26.860 -31.029   9.515  0.00  0.00    +0.016 C 
ATOM      4  C   LIG    1       25.220 -32.611  10.438  0.00  0.00    +0.006 C 
ATOM      5  C   LIG    1       24.582 -32.131  11.765  0.00  0.00    +0.020 C 
ATOM      6  C   LIG    1       23.442 -31.142  11.544  0.00  0.00    -0.055 C 
ATOM      7  C   LIG    1       23.892 -29.900  10.763  0.00  0.00    +0.046 C 
ATOM      8  C   LIG    1       22.210 -31.338  12.080  0.00  0.00    -0.044 C 
ATOM      9  C   LIG    1       22.001 -32.387  13.084  0.00  0.00    -0.041 C 
ATOM     10  C   LIG    1       20.787 -32.853  13.419  0.00  0.00    +0.050 C 
ATOM     11  C   LIG    1       19.572 -32.364  12.734  0.00  0.00    +0.157 C 
ATOM     12  O   LIG    1       18.479 -32.837  13.036  0.00  0.00    -0.293 OA
ATOM     13  C   LIG    1       19.735 -31.357  11.624  0.00  0.00    +0.083 C 
ATOM     14  C   LIG    1       23.243 -32.892  13.769  0.00  0.00    +0.036 C 
ATOM     15  C   LIG    1       20.977 -30.493  11.835  0.00  0.00    +0.043 C 
ATOM     16  C   LIG    1       24.232 -33.312  12.696  0.00  0.00    +0.013 C 
ATOM     17  C   LIG    1       24.613 -33.825   9.746  0.00  0.00    +0.009 C 
ATOM     18  C   LIG    1       24.417 -30.333   9.377  0.00  0.00    +0.024 C 
ATOM     19  C   LIG    1       25.275 -33.819   8.376  0.00  0.00    +0.057 C 
ENDROOT
BRANCH   7  20
ATOM     20  C   LIG    1       24.806 -28.961  11.564  0.00  0.00    -0.040 A 
ATOM     21  C   LIG    1       24.518 -28.568  12.874  0.00  0.00    +0.006 A 
ATOM     22  C   LIG    1       25.384 -27.746  13.611  0.00  0.00    +0.023 A 
ATOM     23  C   LIG    1       26.619 -27.323  13.110  0.00  0.00    +0.029 A 
ATOM     24  C   LIG    1       26.900 -27.715  11.791  0.00  0.00    +0.023 A 
ATOM     25  C   LIG    1       26.030 -28.525  11.041  0.00  0.00    +0.006 A 
BRANCH  23  26
ATOM     26  N   LIG    1       27.502 -26.530  13.859  0.00  0.00    -0.336 N 
ATOM     27  C   LIG    1       27.302 -25.078  13.843  0.00  0.00    +0.129 C 
ATOM     28  C   LIG    1       27.955 -27.067  15.143  0.00  0.00    +0.129 C 
ENDBRANCH  23  26
ENDBRANCH   7  20
BRANCH   1  29
ATOM     29  C   LIG    1       26.295 -32.056   6.841  0.00  0.00    +0.174 C 
ATOM     30  O   LIG    1       26.267 -31.035   6.147  0.00  0.00    -0.293 OA
ATOM     31  C   LIG    1       27.380 -33.082   6.602  0.00  0.00    +0.090 C 
ENDBRANCH   1  29
BRANCH   1  32
ATOM     32  O   LIG    1       23.853 -32.104   7.415  0.00  0.00    -0.450 OA
BRANCH  32  34
ATOM     33  C   LIG    1       22.252 -33.817   7.003  0.00  0.00    +0.136 C 
ATOM     34  C   LIG    1       23.302 -32.867   6.443  0.00  0.00    +0.305 C 
ATOM     35  O   LIG    1       23.577 -32.811   5.272  0.00  0.00    -0.251 OA
ENDBRANCH  32  34
ENDBRANCH   1  32
TORSDOF 5
ENDMDL
MODEL 6
REMARK VINA RESULT:      -5.2      3.700      5.680
REMARK  Name = *****
REMARK                            x       y       z     vdW  Elec       q    Type
REMARK                         _______ _______ _______ _____ _____    ______ ____
ROOT
ATOM      1  C   LIG    1       24.813 -32.142   9.567  0.00  0.00    +0.176 C 
ATOM      2  C   LIG    1       24.903 -31.077  10.793  0.00  0.00    +0.019 C 
ATOM      3  C   LIG    1       26.306 -30.431  10.955  0.00  0.00    +0.016 C 
ATOM      4  C   LIG    1       24.741 -31.943  12.099  0.00  0.00    +0.006 C 
ATOM      5  C   LIG    1       24.014 -31.284  13.298  0.00  0.00    +0.020 C 
ATOM      6  C   LIG    1       22.820 -30.440  12.868  0.00  0.00    -0.055 C 
ATOM      7  C   LIG    1       23.216 -29.325  11.890  0.00  0.00    +0.046 C 
ATOM      8  C   LIG    1       21.582 -30.630  13.393  0.00  0.00    -0.044 C 
ATOM      9  C   LIG    1       21.403 -31.497  14.563  0.00  0.00    -0.041 C 
ATOM     10  C   LIG    1       20.211 -31.985  14.940  0.00  0.00    +0.050 C 
ATOM     11  C   LIG    1       18.995 -31.720  14.143  0.00  0.00    +0.157 C 
ATOM     12  O   LIG    1       17.925 -32.212  14.493  0.00  0.00    -0.293 OA
ATOM     13  C   LIG    1       19.136 -30.916  12.874  0.00  0.00    +0.083 C 
ATOM     14  C   LIG    1       22.646 -31.776  15.366  0.00  0.00    +0.036 C 
ATOM     15  C   LIG    1       20.306 -29.937  12.963  0.00  0.00    +0.043 C 
ATOM     16  C   LIG    1       23.707 -32.304  14.416  0.00  0.00    +0.013 C 
ATOM     17  C   LIG    1       24.249 -33.303  11.619  0.00  0.00    +0.009 C 
ATOM     18  C   LIG    1       23.828 -29.957  10.621  0.00  0.00    +0.024 C 
ATOM     19  C   LIG    1       24.967 -33.491  10.291  0.00  0.00    +0.057 C 
ENDROOT
BRANCH   7  20
ATOM     20  C   LIG    1       24.028 -28.193  12.535  0.00  0.00    -0.040 A 
ATOM     21  C   LIG    1       25.411 -28.072  12.371  0.00  0.00    +0.006 A 
ATOM     22  C   LIG    1       26.134 -27.006  12.929  0.00  0.00    +0.023 A 
ATOM     23  C   LIG    1       25.513 -25.965  13.625  0.00  0.00    +0.029 A 
ATOM     24  C   LIG    1       24.126 -26.095  13.793  0.00  0.00    +0.023 A 
ATOM     25  C   LIG    1       23.396 -27.168  13.250  0.00  0.00    +0.006 A 
BRANCH  23  26
ATOM     26  N   LIG    1       26.232 -24.881  14.154  0.00  0.00    -0.336 N 
ATOM     27  C   LIG    1       25.525 -23.955  15.042  0.00  0.00    +0.129 C 
ATOM     28  C   LIG    1       27.630 -25.122  14.515  0.00  0.00    +0.129 C 
ENDBRANCH  23  26
ENDBRANCH   7  20
BRANCH   1  29
ATOM     29  C   LIG    1       25.928 -31.957   8.495  0.00  0.00    +0.174 C 
ATOM     30  O   LIG    1       25.881 -31.053   7.654  0.00  0.00    -0.293 OA
ATOM     31  C   LIG    1       27.062 -32.956   8.442  0.00  0.00    +0.090 C 
ENDBRANCH   1  29
BRANCH   1  32
ATOM     32  O   LIG    1       23.473 -32.086   8.994  0.00  0.00    -0.450 OA
BRANCH  32  34
ATOM     33  C   LIG    1       21.787 -33.755   8.795  0.00  0.00    +0.136 C 
ATOM     34  C   LIG    1       23.004 -33.069   8.191  0.00  0.00    +0.305 C 
ATOM     35  O   LIG    1       23.463 -33.372   7.120  0.00  0.00    -0.251 OA
ENDBRANCH  32  34
ENDBRANCH   1  32
TORSDOF 5
ENDMDL
MODEL 7
REMARK VINA RESULT:      -5.0      1.698      2.257
REMARK  Name = *****
REMARK                            x       y       z     vdW  Elec       q    Type
REMARK                         _______ _______ _______ _____ _____    ______ ____
ROOT
ATOM      1  C   LIG    1       27.270 -29.371  14.547  0.00  0.00    +0.176 C 
ATOM      2  C   LIG    1       26.466 -29.065  13.167  0.00  0.00    +0.019 C 
ATOM      3  C   LIG    1       27.357 -28.461  12.047  0.00  0.00    +0.016 C 
ATOM      4  C   LIG    1       25.474 -27.894  13.523  0.00  0.00    +0.006 C 
ATOM      5  C   LIG    1       24.105 -27.882  12.797  0.00  0.00    +0.020 C 
ATOM      6  C   LIG    1       23.511 -29.277  12.643  0.00  0.00    -0.055 C 
ATOM      7  C   LIG    1       24.441 -30.225  11.874  0.00  0.00    +0.046 C 
ATOM      8  C   LIG    1       22.255 -29.572  13.070  0.00  0.00    -0.044 C 
ATOM      9  C   LIG    1       21.345 -28.497  13.480  0.00  0.00    -0.041 C 
ATOM     10  C   LIG    1       20.233 -28.711  14.200  0.00  0.00    +0.050 C 
ATOM     11  C   LIG    1       19.890 -30.066  14.683  0.00  0.00    +0.157 C 
ATOM     12  O   LIG    1       18.885 -30.224  15.372  0.00  0.00    -0.293 OA
ATOM     13  C   LIG    1       20.843 -31.194  14.375  0.00  0.00    +0.083 C 
ATOM     14  C   LIG    1       21.705 -27.117  12.998  0.00  0.00    +0.036 C 
ATOM     15  C   LIG    1       21.606 -30.940  13.076  0.00  0.00    +0.043 C 
ATOM     16  C   LIG    1       23.142 -26.839  13.404  0.00  0.00    +0.013 C 
ATOM     17  C   LIG    1       25.481 -27.812  15.045  0.00  0.00    +0.009 C 
ATOM     18  C   LIG    1       25.774 -30.363  12.642  0.00  0.00    +0.024 C 
ATOM     19  C   LIG    1       26.920 -28.146  15.410  0.00  0.00    +0.057 C 
ENDROOT
BRANCH   7  20
ATOM     20  C   LIG    1       24.558 -29.901  10.377  0.00  0.00    -0.040 A 
ATOM     21  C   LIG    1       25.692 -29.299   9.825  0.00  0.00    +0.006 A 
ATOM     22  C   LIG    1       25.805 -29.050   8.449  0.00  0.00    +0.023 A 
ATOM     23  C   LIG    1       24.824 -29.446   7.535  0.00  0.00    +0.029 A 
ATOM     24  C   LIG    1       23.684 -30.043   8.095  0.00  0.00    +0.023 A 
ATOM     25  C   LIG    1       23.558 -30.282   9.475  0.00  0.00    +0.006 A 
BRANCH  23  26
ATOM     26  N   LIG    1       24.952 -29.227   6.154  0.00  0.00    -0.336 N 
ATOM     27  C   LIG    1       25.405 -27.908   5.706  0.00  0.00    +0.129 C 
ATOM     28  C   LIG    1       25.441 -30.344   5.345  0.00  0.00    +0.129 C 
ENDBRANCH  23  26
ENDBRANCH   7  20
BRANCH   1  29
ATOM     29  C   LIG    1       28.811 -29.495  14.358  0.00  0.00    +0.174 C 
ATOM     30  O   LIG    1       29.305 -30.151  13.435  0.00  0.00    -0.293 OA
ATOM     31  C   LIG    1       29.726 -28.850  15.376  0.00  0.00    +0.090 C 
ENDBRANCH   1  29
BRANCH   1  32
ATOM     32  O   LIG    1       26.688 -30.550  15.178  0.00  0.00    -0.450 OA
BRANCH  32  34
ATOM     33  C   LIG    1       26.399 -32.819  14.518  0.00  0.00    +0.136 C 
ATOM     34  C   LIG    1       27.301 -31.755  15.129  0.00  0.00    +0.305 C 
ATOM     35  O   LIG    1       28.424 -31.982  15.500  0.00  0.00    -0.251 OA
ENDBRANCH  32  34
ENDBRANCH   1  32
TORSDOF 5
ENDMDL
MODEL 8
REMARK VINA RESULT:      -4.9      3.145      7.132
REMARK  Name = *****
REMARK                            x       y       z     vdW  Elec       q    Type
REMARK                         _______ _______ _______ _____ _____    ______ ____
ROOT
ATOM      1  C   LIG    1       24.746 -31.528   9.078  0.00  0.00    +0.176 C 
ATOM      2  C   LIG    1       24.061 -30.641  10.257  0.00  0.00    +0.019 C 
ATOM      3  C   LIG    1       22.668 -30.068   9.878  0.00  0.00    +0.016 C 
ATOM      4  C   LIG    1       24.968 -29.358  10.382  0.00  0.00    +0.006 C 
ATOM      5  C   LIG    1       25.125 -28.739  11.793  0.00  0.00    +0.020 C 
ATOM      6  C   LIG    1       25.254 -29.794  12.886  0.00  0.00    -0.055 C 
ATOM      7  C   LIG    1       24.051 -30.745  12.923  0.00  0.00    +0.046 C 
ATOM      8  C   LIG    1       26.290 -29.791  13.765  0.00  0.00    -0.044 C 
ATOM      9  C   LIG    1       27.191 -28.636  13.839  0.00  0.00    -0.041 C 
ATOM     10  C   LIG    1       28.395 -28.680  14.430  0.00  0.00    +0.050 C 
ATOM     11  C   LIG    1       28.916 -29.941  14.999  0.00  0.00    +0.157 C 
ATOM     12  O   LIG    1       30.037 -29.958  15.500  0.00  0.00    -0.293 OA
ATOM     13  C   LIG    1       28.073 -31.185  14.863  0.00  0.00    +0.083 C 
ATOM     14  C   LIG    1       26.662 -27.356  13.247  0.00  0.00    +0.036 C 
ATOM     15  C   LIG    1       26.585 -30.846  14.811  0.00  0.00    +0.043 C 
ATOM     16  C   LIG    1       26.217 -27.648  11.824  0.00  0.00    +0.013 C 
ATOM     17  C   LIG    1       26.231 -29.683   9.595  0.00  0.00    +0.009 C 
ATOM     18  C   LIG    1       23.942 -31.480  11.569  0.00  0.00    +0.024 C 
ATOM     19  C   LIG    1       25.719 -30.525   8.435  0.00  0.00    +0.057 C 
ENDROOT
BRANCH   7  20
ATOM     20  C   LIG    1       22.760 -30.093  13.439  0.00  0.00    -0.040 A 
ATOM     21  C   LIG    1       22.751 -28.859  14.095  0.00  0.00    +0.006 A 
ATOM     22  C   LIG    1       21.560 -28.253  14.521  0.00  0.00    +0.023 A 
ATOM     23  C   LIG    1       20.303 -28.808  14.260  0.00  0.00    +0.029 A 
ATOM     24  C   LIG    1       20.318 -30.052  13.608  0.00  0.00    +0.023 A 
ATOM     25  C   LIG    1       21.509 -30.672  13.192  0.00  0.00    +0.006 A 
BRANCH  23  26
ATOM     26  N   LIG    1       19.110 -28.186  14.656  0.00  0.00    -0.336 N 
ATOM     27  C   LIG    1       18.940 -26.764  14.347  0.00  0.00    +0.129 C 
ATOM     28  C   LIG    1       17.882 -28.978  14.563  0.00  0.00    +0.129 C 
ENDBRANCH  23  26
ENDBRANCH   7  20
BRANCH   1  29
ATOM     29  C   LIG    1       23.727 -32.064   8.028  0.00  0.00    +0.174 C 
ATOM     30  O   LIG    1       23.632 -31.568   6.900  0.00  0.00    -0.293 OA
ATOM     31  C   LIG    1       22.783 -33.176   8.427  0.00  0.00    +0.090 C 
ENDBRANCH   1  29
BRANCH   1  32
ATOM     32  O   LIG    1       25.532 -32.594   9.689  0.00  0.00    -0.450 OA
BRANCH  32  34
ATOM     33  C   LIG    1       26.302 -33.825   7.803  0.00  0.00    +0.136 C 
ATOM     34  C   LIG    1       26.640 -33.088   9.091  0.00  0.00    +0.305 C 
ATOM     35  O   LIG    1       27.767 -32.960   9.497  0.00  0.00    -0.251 OA
ENDBRANCH  32  34
ENDBRANCH   1  32
TORSDOF 5
ENDMDL
MODEL 9
REMARK VINA RESULT:      -4.8      3.033      6.308
REMARK  Name = *****
REMARK                            x       y       z     vdW  Elec       q    Type
REMARK                         _______ _______ _______ _____ _____    ______ ____
ROOT
ATOM      1  C   LIG    1       26.650 -29.085  12.640  0.00  0.00    +0.176 C 
ATOM      2  C   LIG    1       25.549 -30.045  11.926  0.00  0.00    +0.019 C 
ATOM      3  C   LIG    1       25.020 -31.180  12.846  0.00  0.00    +0.016 C 
ATOM      4  C   LIG    1       26.345 -30.818  10.807  0.00  0.00    +0.006 C 
ATOM      5  C   LIG    1       25.579 -31.164   9.506  0.00  0.00    +0.020 C 
ATOM      6  C   LIG    1       24.653 -30.042   9.054  0.00  0.00    -0.055 C 
ATOM      7  C   LIG    1       23.616 -29.675  10.125  0.00  0.00    +0.046 C 
ATOM      8  C   LIG    1       24.714 -29.523   7.800  0.00  0.00    -0.044 C 
ATOM      9  C   LIG    1       25.515 -30.188   6.766  0.00  0.00    -0.041 C 
ATOM     10  C   LIG    1       25.883 -29.588   5.623  0.00  0.00    +0.050 C 
ATOM     11  C   LIG    1       25.545 -28.172   5.366  0.00  0.00    +0.157 C 
ATOM     12  O   LIG    1       25.930 -27.639   4.328  0.00  0.00    -0.293 OA
ATOM     13  C   LIG    1       24.808 -27.409   6.438  0.00  0.00    +0.083 C 
ATOM     14  C   LIG    1       25.869 -31.626   7.038  0.00  0.00    +0.036 C 
ATOM     15  C   LIG    1       23.931 -28.337   7.277  0.00  0.00    +0.043 C 
ATOM     16  C   LIG    1       26.524 -31.696   8.406  0.00  0.00    +0.013 C 
ATOM     17  C   LIG    1       27.676 -30.084  10.684  0.00  0.00    +0.009 C 
ATOM     18  C   LIG    1       24.348 -29.198  11.398  0.00  0.00    +0.024 C 
ATOM     19  C   LIG    1       27.977 -29.657  12.113  0.00  0.00    +0.057 C 
ENDROOT
BRANCH   7  20
ATOM     20  C   LIG    1       22.533 -30.744  10.332  0.00  0.00    -0.040 A 
ATOM     21  C   LIG    1       21.505 -30.600  11.268  0.00  0.00    +0.006 A 
ATOM     22  C   LIG    1       20.496 -31.564  11.416  0.00  0.00    +0.023 A 
ATOM     23  C   LIG    1       20.415 -32.694  10.596  0.00  0.00    +0.029 A 
ATOM     24  C   LIG    1       21.455 -32.837   9.664  0.00  0.00    +0.023 A 
ATOM     25  C   LIG    1       22.478 -31.882   9.520  0.00  0.00    +0.006 A 
BRANCH  23  26
ATOM     26  N   LIG    1       19.387 -33.641  10.721  0.00  0.00    -0.336 N 
ATOM     27  C   LIG    1       18.756 -33.801  12.034  0.00  0.00    +0.129 C 
ATOM     28  C   LIG    1       18.473 -33.787   9.587  0.00  0.00    +0.129 C 
ENDBRANCH  23  26
ENDBRANCH   7  20
BRANCH   1  29
ATOM     29  C   LIG    1       26.604 -29.132  14.197  0.00  0.00    +0.174 C 
ATOM     30  O   LIG    1       25.554 -28.962  14.824  0.00  0.00    -0.293 OA
ATOM     31  C   LIG    1       27.897 -29.322  14.959  0.00  0.00    +0.090 C 
ENDBRANCH   1  29
BRANCH   1  32
ATOM     32  O   LIG    1       26.501 -27.731  12.118  0.00  0.00    -0.450 OA
BRANCH  32  34
ATOM     33  C   LIG    1       25.434 -25.939  13.266  0.00  0.00    +0.136 C 
ATOM     34  C   LIG    1       26.730 -26.645  12.890  0.00  0.00    +0.305 C 
ATOM     35  O   LIG    1       27.812 -26.270  13.263  0.00  0.00    -0.251 OA
ENDBRANCH  32  34
ENDBRANCH   1  32
TORSDOF 5
ENDMDL
