MODEL 1
REMARK VINA RESULT:      -9.0      0.000      0.000
REMARK  Name = *****
REMARK                            x       y       z     vdW  Elec       q    Type
REMARK                         _______ _______ _______ _____ _____    ______ ____
ROOT
ATOM      1  C   LIG    1       24.442 -24.265   6.101  0.00  0.00    +0.180 C 
ATOM      2  C   LIG    1       23.976 -22.928   5.495  0.00  0.00    +0.075 C 
ATOM      3  C   LIG    1       24.938 -21.794   5.781  0.00  0.00    -0.064 C 
ATOM      4  C   LIG    1       25.340 -20.973   4.798  0.00  0.00    -0.027 C 
ATOM      5  C   LIG    1       26.368 -19.898   4.938  0.00  0.00    +0.031 C 
ATOM      6  C   LIG    1       27.137 -19.856   6.276  0.00  0.00    +0.001 C 
ATOM      7  C   LIG    1       26.275 -20.374   7.444  0.00  0.00    +0.003 C 
ATOM      8  C   LIG    1       27.069 -20.252   8.753  0.00  0.00    +0.005 C 
ATOM      9  C   LIG    1       28.429 -20.930   8.734  0.00  0.00    +0.012 C 
ATOM     10  C   LIG    1       29.342 -20.544   7.553  0.00  0.00    -0.003 C 
ATOM     11  C   LIG    1       30.472 -21.602   7.445  0.00  0.00    +0.016 C 
ATOM     12  C   LIG    1       29.967 -19.147   7.594  0.00  0.00    -0.036 C 
ATOM     13  C   LIG    1       30.066 -18.652   6.346  0.00  0.00    -0.022 C 
ATOM     14  C   LIG    1       29.479 -19.571   5.323  0.00  0.00    +0.032 C 
ATOM     15  C   LIG    1       28.567 -20.477   6.186  0.00  0.00    +0.007 C 
ATOM     16  C   LIG    1       25.499 -21.731   7.197  0.00  0.00    -0.008 C 
ATOM     17  C   LIG    1       24.330 -21.756   8.227  0.00  0.00    +0.016 C 
ATOM     18  C   LIG    1       26.341 -23.021   7.373  0.00  0.00    +0.015 C 
ATOM     19  C   LIG    1       25.912 -24.237   6.529  0.00  0.00    +0.046 C 
ENDROOT
BRANCH  12  20
ATOM     20  C   LIG    1       30.467 -18.440   8.789  0.00  0.00    -0.004 A 
ATOM     21  C   LIG    1       31.806 -18.527   9.179  0.00  0.00    +0.119 A 
ATOM     22  N   LIG    1       32.359 -17.889  10.245  0.00  0.00    -0.263 NA
ATOM     23  C   LIG    1       31.536 -17.105  10.968  0.00  0.00    +0.111 A 
ATOM     24  C   LIG    1       30.195 -16.941  10.680  0.00  0.00    +0.020 A 
ATOM     25  C   LIG    1       29.661 -17.625   9.588  0.00  0.00    +0.011 A 
ENDBRANCH  12  20
BRANCH   1  26
ATOM     26  O   LIG    1       24.279 -25.290   5.092  0.00  0.00    -0.461 OA
BRANCH  26  28
ATOM     27  C   LIG    1       24.444 -27.352   6.209  0.00  0.00    +0.136 C 
ATOM     28  C   LIG    1       25.050 -26.400   5.225  0.00  0.00    +0.304 C 
ATOM     29  O   LIG    1       26.112 -26.603   4.647  0.00  0.00    -0.251 OA
ENDBRANCH  26  28
ENDBRANCH   1  26
TORSDOF 3
ENDMDL
MODEL 2
REMARK VINA RESULT:      -7.3      4.093      5.644
REMARK  Name = *****
REMARK                            x       y       z     vdW  Elec       q    Type
REMARK                         _______ _______ _______ _____ _____    ______ ____
ROOT
ATOM      1  C   LIG    1       24.862 -25.632   5.785  0.00  0.00    +0.180 C 
ATOM      2  C   LIG    1       24.161 -24.996   7.000  0.00  0.00    +0.075 C 
ATOM      3  C   LIG    1       23.933 -23.509   6.826  0.00  0.00    -0.064 C 
ATOM      4  C   LIG    1       22.734 -22.965   7.089  0.00  0.00    -0.027 C 
ATOM      5  C   LIG    1       22.361 -21.539   6.848  0.00  0.00    +0.031 C 
ATOM      6  C   LIG    1       23.391 -20.684   6.076  0.00  0.00    +0.001 C 
ATOM      7  C   LIG    1       24.833 -21.160   6.336  0.00  0.00    +0.003 C 
ATOM      8  C   LIG    1       25.812 -20.238   5.594  0.00  0.00    +0.005 C 
ATOM      9  C   LIG    1       25.542 -20.094   4.106  0.00  0.00    +0.012 C 
ATOM     10  C   LIG    1       24.099 -19.702   3.732  0.00  0.00    -0.003 C 
ATOM     11  C   LIG    1       23.885 -20.007   2.226  0.00  0.00    +0.016 C 
ATOM     12  C   LIG    1       23.684 -18.255   4.013  0.00  0.00    -0.036 C 
ATOM     13  C   LIG    1       22.387 -18.210   4.371  0.00  0.00    -0.022 C 
ATOM     14  C   LIG    1       21.776 -19.572   4.456  0.00  0.00    +0.032 C 
ATOM     15  C   LIG    1       23.023 -20.482   4.572  0.00  0.00    +0.007 C 
ATOM     16  C   LIG    1       25.090 -22.718   6.227  0.00  0.00    -0.008 C 
ATOM     17  C   LIG    1       26.393 -23.000   7.033  0.00  0.00    +0.016 C 
ATOM     18  C   LIG    1       25.271 -23.264   4.787  0.00  0.00    +0.015 C 
ATOM     19  C   LIG    1       24.841 -24.725   4.551  0.00  0.00    +0.046 C 
ENDROOT
BRANCH  12  20
ATOM     20  C   LIG    1       24.524 -17.052   3.857  0.00  0.00    -0.004 A 
ATOM     21  C   LIG    1       25.837 -17.135   3.386  0.00  0.00    +0.119 A 
ATOM     22  N   LIG    1       26.670 -16.080   3.184  0.00  0.00    -0.263 NA
ATOM     23  C   LIG    1       26.170 -14.860   3.457  0.00  0.00    +0.111 A 
ATOM     24  C   LIG    1       24.888 -14.651   3.926  0.00  0.00    +0.020 A 
ATOM     25  C   LIG    1       24.068 -15.760   4.137  0.00  0.00    +0.011 A 
ENDBRANCH  12  20
BRANCH   1  26
ATOM     26  O   LIG    1       24.164 -26.858   5.461  0.00  0.00    -0.461 OA
BRANCH  26  28
ATOM     27  C   LIG    1       24.120 -29.154   5.962  0.00  0.00    +0.136 C 
ATOM     28  C   LIG    1       24.908 -27.994   5.442  0.00  0.00    +0.304 C 
ATOM     29  O   LIG    1       26.076 -28.073   5.077  0.00  0.00    -0.251 OA
ENDBRANCH  26  28
ENDBRANCH   1  26
TORSDOF 3
ENDMDL
