MODEL 1
REMARK VINA RESULT:      -6.8      0.000      0.000
REMARK  Name = *****
REMARK                            x       y       z     vdW  Elec       q    Type
REMARK                         _______ _______ _______ _____ _____    ______ ____
ROOT
ATOM      1  C   LIG    1       24.050 -30.045  11.515  0.00  0.00    +0.001 C 
ATOM      2  C   LIG    1       24.824 -30.220  10.128  0.00  0.00    +0.000 C 
ATOM      3  C   LIG    1       25.692 -28.998   9.752  0.00  0.00    +0.014 C 
ATOM      4  C   LIG    1       23.669 -30.294   9.051  0.00  0.00    +0.003 C 
ATOM      5  C   LIG    1       23.854 -31.146   7.767  0.00  0.00    +0.025 C 
ATOM      6  C   LIG    1       24.805 -32.738   8.129  0.00  0.00    +0.003 C 
ATOM      7  C   LIG    1       25.178 -32.773   9.625  0.00  0.00    +0.036 C 
ATOM      8  C   LIG    1       26.202 -33.045   6.961  0.00  0.00    -0.026 C 
ATOM      9  C   LIG    1       27.532 -33.312   7.640  0.00  0.00    +0.012 C 
ATOM     10  C   LIG    1       26.501 -32.323   5.264  0.00  0.00    +0.000 C 
ATOM     11  C   LIG    1       26.018 -33.308   4.242  0.00  0.00    +0.035 C 
ATOM     12  C   LIG    1       24.669 -33.616   4.797  0.00  0.00    +0.115 C 
ATOM     13  C   LIG    1       24.316 -32.475   5.800  0.00  0.00    +0.032 C 
ATOM     14  C   LIG    1       25.580 -30.668   4.986  0.00  0.00    +0.035 C 
ATOM     15  C   LIG    1       25.806 -31.728   6.852  0.00  0.00    +0.009 C 
ATOM     16  C   LIG    1       24.453 -30.056   6.354  0.00  0.00    +0.118 C 
ATOM     17  C   LIG    1       22.438 -30.729   9.846  0.00  0.00    +0.005 C 
ATOM     18  C   LIG    1       25.776 -31.471  10.160  0.00  0.00    +0.121 C 
ATOM     19  C   LIG    1       22.566 -29.917  11.117  0.00  0.00    +0.005 C 
ENDROOT
BRANCH   1  21
ATOM     20  C   LIG    1       25.633 -29.262  13.449  0.00  0.00    +0.008 C 
ATOM     21  C   LIG    1       24.463 -28.914  12.517  0.00  0.00    -0.010 C 
BRANCH  21  22
ATOM     22  C   LIG    1       23.276 -28.436  13.403  0.00  0.00    +0.015 C 
BRANCH  22  23
ATOM     23  C   LIG    1       22.937 -26.952  13.260  0.00  0.00    +0.121 C 
BRANCH  23  24
ATOM     24  C   LIG    1       21.490 -26.698  13.596  0.00  0.00    +0.305 C 
ATOM     25  O   LIG    1       20.585 -26.737  12.781  0.00  0.00    -0.251 OA
BRANCH  24  26
ATOM     26  O   LIG    1       21.288 -26.393  14.898  0.00  0.00    -0.481 OA
ATOM     27  H   LIG    1       20.910 -25.506  15.046  0.00  0.00    +0.295 HD
ENDBRANCH  24  26
ENDBRANCH  23  24
ENDBRANCH  22  23
ENDBRANCH  21  22
ENDBRANCH   1  21
BRANCH  12  28
ATOM     28  O   LIG    1       23.698 -33.715   3.768  0.00  0.00    -0.392 OA
ATOM     29  H   LIG    1       23.841 -32.978   3.147  0.00  0.00    +0.210 HD
ENDBRANCH  12  28
BRANCH  16  30
ATOM     30  O   LIG    1       23.318 -29.448   5.736  0.00  0.00    -0.392 OA
ATOM     31  H   LIG    1       22.827 -30.148   5.274  0.00  0.00    +0.210 HD
ENDBRANCH  16  30
BRANCH  18  32
ATOM     32  O   LIG    1       26.294 -31.704  11.473  0.00  0.00    -0.391 OA
ATOM     33  H   LIG    1       25.547 -31.846  12.080  0.00  0.00    +0.210 HD
ENDBRANCH  18  32
TORSDOF 8
ENDMDL
MODEL 2
REMARK VINA RESULT:      -6.3      2.159      2.809
REMARK  Name = *****
REMARK                            x       y       z     vdW  Elec       q    Type
REMARK                         _______ _______ _______ _____ _____    ______ ____
ROOT
ATOM      1  C   LIG    1       24.182 -30.038  11.543  0.00  0.00    +0.001 C 
ATOM      2  C   LIG    1       24.917 -30.240  10.138  0.00  0.00    +0.000 C 
ATOM      3  C   LIG    1       25.816 -29.047   9.740  0.00  0.00    +0.014 C 
ATOM      4  C   LIG    1       23.736 -30.278   9.089  0.00  0.00    +0.003 C 
ATOM      5  C   LIG    1       23.863 -31.136   7.802  0.00  0.00    +0.025 C 
ATOM      6  C   LIG    1       24.770 -32.758   8.145  0.00  0.00    +0.003 C 
ATOM      7  C   LIG    1       25.176 -32.803   9.633  0.00  0.00    +0.036 C 
ATOM      8  C   LIG    1       26.129 -33.112   6.946  0.00  0.00    -0.026 C 
ATOM      9  C   LIG    1       27.465 -33.422   7.595  0.00  0.00    +0.012 C 
ATOM     10  C   LIG    1       26.412 -32.403   5.241  0.00  0.00    +0.000 C 
ATOM     11  C   LIG    1       25.873 -33.373   4.232  0.00  0.00    +0.035 C 
ATOM     12  C   LIG    1       24.528 -33.636   4.820  0.00  0.00    +0.115 C 
ATOM     13  C   LIG    1       24.236 -32.482   5.828  0.00  0.00    +0.032 C 
ATOM     14  C   LIG    1       25.539 -30.719   4.981  0.00  0.00    +0.035 C 
ATOM     15  C   LIG    1       25.774 -31.784   6.844  0.00  0.00    +0.009 C 
ATOM     16  C   LIG    1       24.465 -30.069   6.374  0.00  0.00    +0.118 C 
ATOM     17  C   LIG    1       22.510 -30.671   9.913  0.00  0.00    +0.005 C 
ATOM     18  C   LIG    1       25.829 -31.522  10.151  0.00  0.00    +0.121 C 
ATOM     19  C   LIG    1       22.694 -29.862  11.179  0.00  0.00    +0.005 C 
ENDROOT
BRANCH   1  21
ATOM     20  C   LIG    1       23.590 -27.873  12.893  0.00  0.00    +0.008 C 
ATOM     21  C   LIG    1       24.655 -28.919  12.533  0.00  0.00    -0.010 C 
BRANCH  21  22
ATOM     22  C   LIG    1       25.914 -28.160  12.022  0.00  0.00    +0.015 C 
BRANCH  22  23
ATOM     23  C   LIG    1       27.084 -28.142  13.005  0.00  0.00    +0.121 C 
BRANCH  23  24
ATOM     24  C   LIG    1       28.043 -29.269  12.716  0.00  0.00    +0.305 C 
ATOM     25  O   LIG    1       28.113 -30.289  13.378  0.00  0.00    -0.251 OA
BRANCH  24  26
ATOM     26  O   LIG    1       28.849 -29.028  11.657  0.00  0.00    -0.481 OA
ATOM     27  H   LIG    1       28.973 -28.082  11.457  0.00  0.00    +0.295 HD
ENDBRANCH  24  26
ENDBRANCH  23  24
ENDBRANCH  22  23
ENDBRANCH  21  22
ENDBRANCH   1  21
BRANCH  12  28
ATOM     28  O   LIG    1       23.531 -33.704   3.814  0.00  0.00    -0.392 OA
ATOM     29  H   LIG    1       23.905 -34.180   3.050  0.00  0.00    +0.210 HD
ENDBRANCH  12  28
BRANCH  16  30
ATOM     30  O   LIG    1       23.336 -29.425   5.780  0.00  0.00    -0.392 OA
ATOM     31  H   LIG    1       22.541 -29.895   6.081  0.00  0.00    +0.210 HD
ENDBRANCH  16  30
BRANCH  18  32
ATOM     32  O   LIG    1       26.369 -31.769  11.452  0.00  0.00    -0.391 OA
ATOM     33  H   LIG    1       26.614 -30.918  11.853  0.00  0.00    +0.210 HD
ENDBRANCH  18  32
TORSDOF 8
ENDMDL
MODEL 3
REMARK VINA RESULT:      -6.1      1.658      7.907
REMARK  Name = *****
REMARK                            x       y       z     vdW  Elec       q    Type
REMARK                         _______ _______ _______ _____ _____    ______ ____
ROOT
ATOM      1  C   LIG    1       25.865 -31.595   7.494  0.00  0.00    +0.001 C 
ATOM      2  C   LIG    1       25.125 -31.765   8.900  0.00  0.00    +0.000 C 
ATOM      3  C   LIG    1       24.593 -33.196   9.143  0.00  0.00    +0.014 C 
ATOM      4  C   LIG    1       23.856 -30.832   8.781  0.00  0.00    +0.003 C 
ATOM      5  C   LIG    1       23.284 -30.128  10.041  0.00  0.00    +0.025 C 
ATOM      6  C   LIG    1       24.667 -29.568  11.201  0.00  0.00    +0.003 C 
ATOM      7  C   LIG    1       26.027 -29.979  10.600  0.00  0.00    +0.036 C 
ATOM      8  C   LIG    1       24.400 -30.064  12.960  0.00  0.00    -0.026 C 
ATOM      9  C   LIG    1       25.574 -30.795  13.584  0.00  0.00    +0.012 C 
ATOM     10  C   LIG    1       22.820 -30.575  13.815  0.00  0.00    +0.000 C 
ATOM     11  C   LIG    1       22.267 -29.381  14.534  0.00  0.00    +0.035 C 
ATOM     12  C   LIG    1       22.342 -28.366  13.445  0.00  0.00    +0.115 C 
ATOM     13  C   LIG    1       22.489 -29.146  12.103  0.00  0.00    +0.032 C 
ATOM     14  C   LIG    1       21.487 -31.213  12.598  0.00  0.00    +0.035 C 
ATOM     15  C   LIG    1       23.559 -30.800  12.153  0.00  0.00    +0.009 C 
ATOM     16  C   LIG    1       21.878 -31.148  10.765  0.00  0.00    +0.118 C 
ATOM     17  C   LIG    1       24.225 -29.826   7.690  0.00  0.00    +0.005 C 
ATOM     18  C   LIG    1       26.087 -31.421  10.096  0.00  0.00    +0.121 C 
ATOM     19  C   LIG    1       24.923 -30.697   6.667  0.00  0.00    +0.005 C 
ENDROOT
BRANCH   1  21
ATOM     20  C   LIG    1       27.820 -32.974   6.429  0.00  0.00    +0.008 C 
ATOM     21  C   LIG    1       26.309 -32.852   6.672  0.00  0.00    -0.010 C 
BRANCH  21  22
ATOM     22  C   LIG    1       25.596 -32.947   5.292  0.00  0.00    +0.015 C 
BRANCH  22  23
ATOM     23  C   LIG    1       26.540 -32.939   4.090  0.00  0.00    +0.121 C 
BRANCH  23  24
ATOM     24  C   LIG    1       25.764 -32.979   2.798  0.00  0.00    +0.305 C 
ATOM     25  O   LIG    1       26.234 -32.689   1.713  0.00  0.00    -0.251 OA
BRANCH  24  26
ATOM     26  O   LIG    1       24.473 -33.346   2.961  0.00  0.00    -0.481 OA
ATOM     27  H   LIG    1       23.874 -33.021   2.263  0.00  0.00    +0.295 HD
ENDBRANCH  24  26
ENDBRANCH  23  24
ENDBRANCH  22  23
ENDBRANCH  21  22
ENDBRANCH   1  21
BRANCH  12  28
ATOM     28  O   LIG    1       21.191 -27.537  13.434  0.00  0.00    -0.392 OA
ATOM     29  H   LIG    1       21.339 -26.806  14.061  0.00  0.00    +0.210 HD
ENDBRANCH  12  28
BRANCH  16  30
ATOM     30  O   LIG    1       20.671 -30.808  10.081  0.00  0.00    -0.392 OA
ATOM     31  H   LIG    1       19.930 -31.148  10.609  0.00  0.00    +0.210 HD
ENDBRANCH  16  30
BRANCH  18  32
ATOM     32  O   LIG    1       27.445 -31.749   9.789  0.00  0.00    -0.391 OA
ATOM     33  H   LIG    1       27.937 -30.923   9.641  0.00  0.00    +0.210 HD
ENDBRANCH  18  32
TORSDOF 8
ENDMDL
MODEL 4
REMARK VINA RESULT:      -5.9      2.500      8.333
REMARK  Name = *****
REMARK                            x       y       z     vdW  Elec       q    Type
REMARK                         _______ _______ _______ _____ _____    ______ ____
ROOT
ATOM      1  C   LIG    1       25.346 -31.937   7.406  0.00  0.00    +0.001 C 
ATOM      2  C   LIG    1       25.215 -30.744   8.462  0.00  0.00    +0.000 C 
ATOM      3  C   LIG    1       25.229 -29.343   7.810  0.00  0.00    +0.014 C 
ATOM      4  C   LIG    1       26.536 -30.848   9.324  0.00  0.00    +0.003 C 
ATOM      5  C   LIG    1       26.526 -30.434  10.820  0.00  0.00    +0.025 C 
ATOM      6  C   LIG    1       24.904 -30.924  11.657  0.00  0.00    +0.003 C 
ATOM      7  C   LIG    1       23.985 -31.600  10.618  0.00  0.00    +0.036 C 
ATOM      8  C   LIG    1       24.129 -29.555  12.623  0.00  0.00    -0.026 C 
ATOM      9  C   LIG    1       22.675 -29.294  12.274  0.00  0.00    +0.012 C 
ATOM     10  C   LIG    1       24.905 -27.987  13.278  0.00  0.00    +0.000 C 
ATOM     11  C   LIG    1       25.259 -28.204  14.719  0.00  0.00    +0.035 C 
ATOM     12  C   LIG    1       25.967 -29.512  14.617  0.00  0.00    +0.115 C 
ATOM     13  C   LIG    1       26.356 -29.706  13.119  0.00  0.00    +0.032 C 
ATOM     14  C   LIG    1       26.497 -27.495  12.336  0.00  0.00    +0.035 C 
ATOM     15  C   LIG    1       25.081 -29.026  11.779  0.00  0.00    +0.009 C 
ATOM     16  C   LIG    1       27.114 -28.655  10.999  0.00  0.00    +0.118 C 
ATOM     17  C   LIG    1       26.996 -32.294   9.140  0.00  0.00    +0.005 C 
ATOM     18  C   LIG    1       23.880 -30.857   9.287  0.00  0.00    +0.121 C 
ATOM     19  C   LIG    1       26.745 -32.532   7.666  0.00  0.00    +0.005 C 
ENDROOT
BRANCH   1  21
ATOM     20  C   LIG    1       23.717 -32.006   5.357  0.00  0.00    +0.008 C 
ATOM     21  C   LIG    1       25.122 -31.673   5.878  0.00  0.00    -0.010 C 
BRANCH  21  22
ATOM     22  C   LIG    1       26.151 -32.423   4.984  0.00  0.00    +0.015 C 
BRANCH  22  23
ATOM     23  C   LIG    1       25.584 -32.936   3.660  0.00  0.00    +0.121 C 
BRANCH  23  24
ATOM     24  C   LIG    1       26.687 -33.168   2.659  0.00  0.00    +0.305 C 
ATOM     25  O   LIG    1       27.796 -33.578   2.952  0.00  0.00    -0.251 OA
BRANCH  24  26
ATOM     26  O   LIG    1       26.336 -32.850   1.393  0.00  0.00    -0.481 OA
ATOM     27  H   LIG    1       26.726 -32.018   1.067  0.00  0.00    +0.295 HD
ENDBRANCH  24  26
ENDBRANCH  23  24
ENDBRANCH  22  23
ENDBRANCH  21  22
ENDBRANCH   1  21
BRANCH  12  28
ATOM     28  O   LIG    1       27.111 -29.545  15.454  0.00  0.00    -0.392 OA
ATOM     29  H   LIG    1       27.876 -29.802  14.909  0.00  0.00    +0.210 HD
ENDBRANCH  12  28
BRANCH  16  30
ATOM     30  O   LIG    1       28.541 -28.652  11.053  0.00  0.00    -0.392 OA
ATOM     31  H   LIG    1       28.858 -29.324  10.427  0.00  0.00    +0.210 HD
ENDBRANCH  16  30
BRANCH  18  32
ATOM     32  O   LIG    1       22.831 -31.443   8.510  0.00  0.00    -0.391 OA
ATOM     33  H   LIG    1       21.977 -31.136   8.862  0.00  0.00    +0.210 HD
ENDBRANCH  18  32
TORSDOF 8
ENDMDL
MODEL 5
REMARK VINA RESULT:      -5.6      3.299      5.743
REMARK  Name = *****
REMARK                            x       y       z     vdW  Elec       q    Type
REMARK                         _______ _______ _______ _____ _____    ______ ____
ROOT
ATOM      1  C   LIG    1       19.744 -29.203  13.627  0.00  0.00    +0.001 C 
ATOM      2  C   LIG    1       21.066 -30.034  13.286  0.00  0.00    +0.000 C 
ATOM      3  C   LIG    1       21.517 -30.967  14.432  0.00  0.00    +0.014 C 
ATOM      4  C   LIG    1       22.187 -28.929  13.143  0.00  0.00    +0.003 C 
ATOM      5  C   LIG    1       23.369 -29.140  12.160  0.00  0.00    +0.025 C 
ATOM      6  C   LIG    1       22.802 -30.009  10.581  0.00  0.00    +0.003 C 
ATOM      7  C   LIG    1       21.293 -30.309  10.685  0.00  0.00    +0.036 C 
ATOM      8  C   LIG    1       23.861 -31.446  10.109  0.00  0.00    -0.026 C 
ATOM      9  C   LIG    1       23.092 -32.731   9.865  0.00  0.00    +0.012 C 
ATOM     10  C   LIG    1       25.605 -31.853  10.644  0.00  0.00    +0.000 C 
ATOM     11  C   LIG    1       26.547 -31.380   9.578  0.00  0.00    +0.035 C 
ATOM     12  C   LIG    1       26.032 -29.995   9.374  0.00  0.00    +0.115 C 
ATOM     13  C   LIG    1       25.167 -29.641  10.623  0.00  0.00    +0.032 C 
ATOM     14  C   LIG    1       26.092 -31.012  12.293  0.00  0.00    +0.035 C 
ATOM     15  C   LIG    1       24.121 -31.108  11.420  0.00  0.00    +0.009 C 
ATOM     16  C   LIG    1       24.851 -29.848  13.079  0.00  0.00    +0.118 C 
ATOM     17  C   LIG    1       21.416 -27.645  12.834  0.00  0.00    +0.005 C 
ATOM     18  C   LIG    1       20.861 -30.933  12.012  0.00  0.00    +0.121 C 
ATOM     19  C   LIG    1       20.227 -27.745  13.766  0.00  0.00    +0.005 C 
ENDROOT
BRANCH   1  21
ATOM     20  C   LIG    1       17.829 -30.732  14.551  0.00  0.00    +0.008 C 
ATOM     21  C   LIG    1       18.839 -29.613  14.839  0.00  0.00    -0.010 C 
BRANCH  21  22
ATOM     22  C   LIG    1       18.056 -28.408  15.437  0.00  0.00    +0.015 C 
BRANCH  22  23
ATOM     23  C   LIG    1       16.922 -27.889  14.553  0.00  0.00    +0.121 C 
BRANCH  23  24
ATOM     24  C   LIG    1       16.677 -26.423  14.801  0.00  0.00    +0.305 C 
ATOM     25  O   LIG    1       15.775 -25.992  15.497  0.00  0.00    -0.251 OA
BRANCH  24  26
ATOM     26  O   LIG    1       17.546 -25.617  14.150  0.00  0.00    -0.481 OA
ATOM     27  H   LIG    1       18.230 -26.094  13.643  0.00  0.00    +0.295 HD
ENDBRANCH  24  26
ENDBRANCH  23  24
ENDBRANCH  22  23
ENDBRANCH  21  22
ENDBRANCH   1  21
BRANCH  12  28
ATOM     28  O   LIG    1       27.094 -29.071   9.206  0.00  0.00    -0.392 OA
ATOM     29  H   LIG    1       26.742 -28.175   9.355  0.00  0.00    +0.210 HD
ENDBRANCH  12  28
BRANCH  16  30
ATOM     30  O   LIG    1       25.583 -28.768  13.660  0.00  0.00    -0.392 OA
ATOM     31  H   LIG    1       26.529 -28.959  13.543  0.00  0.00    +0.210 HD
ENDBRANCH  16  30
BRANCH  18  32
ATOM     32  O   LIG    1       19.507 -31.379  11.895  0.00  0.00    -0.391 OA
ATOM     33  H   LIG    1       19.510 -32.313  11.624  0.00  0.00    +0.210 HD
ENDBRANCH  18  32
TORSDOF 8
ENDMDL
MODEL 6
REMARK VINA RESULT:      -5.3      2.602      4.098
REMARK  Name = *****
REMARK                            x       y       z     vdW  Elec       q    Type
REMARK                         _______ _______ _______ _____ _____    ______ ____
ROOT
ATOM      1  C   LIG    1       25.817 -28.554  12.535  0.00  0.00    +0.001 C 
ATOM      2  C   LIG    1       25.437 -29.952  11.861  0.00  0.00    +0.000 C 
ATOM      3  C   LIG    1       26.008 -31.173  12.618  0.00  0.00    +0.014 C 
ATOM      4  C   LIG    1       26.168 -29.914  10.460  0.00  0.00    +0.003 C 
ATOM      5  C   LIG    1       25.547 -30.639   9.236  0.00  0.00    +0.025 C 
ATOM      6  C   LIG    1       23.662 -30.492   9.235  0.00  0.00    +0.003 C 
ATOM      7  C   LIG    1       23.218 -29.697  10.480  0.00  0.00    +0.036 C 
ATOM      8  C   LIG    1       22.797 -32.103   8.978  0.00  0.00    -0.026 C 
ATOM      9  C   LIG    1       21.744 -32.417  10.024  0.00  0.00    +0.012 C 
ATOM     10  C   LIG    1       23.459 -33.697   8.260  0.00  0.00    +0.000 C 
ATOM     11  C   LIG    1       23.063 -33.762   6.816  0.00  0.00    +0.035 C 
ATOM     12  C   LIG    1       23.483 -32.403   6.370  0.00  0.00    +0.115 C 
ATOM     13  C   LIG    1       24.475 -31.857   7.443  0.00  0.00    +0.032 C 
ATOM     14  C   LIG    1       25.366 -33.825   8.367  0.00  0.00    +0.035 C 
ATOM     15  C   LIG    1       24.111 -32.348   9.317  0.00  0.00    +0.009 C 
ATOM     16  C   LIG    1       26.303 -32.352   9.051  0.00  0.00    +0.118 C 
ATOM     17  C   LIG    1       26.385 -28.426  10.186  0.00  0.00    +0.005 C 
ATOM     18  C   LIG    1       23.877 -30.144  11.785  0.00  0.00    +0.121 C 
ATOM     19  C   LIG    1       26.802 -27.902  11.544  0.00  0.00    +0.005 C 
ENDROOT
BRANCH   1  21
ATOM     20  C   LIG    1       25.323 -28.259  15.090  0.00  0.00    +0.008 C 
ATOM     21  C   LIG    1       26.374 -28.503  13.998  0.00  0.00    -0.010 C 
BRANCH  21  22
ATOM     22  C   LIG    1       27.498 -27.441  14.174  0.00  0.00    +0.015 C 
BRANCH  22  23
ATOM     23  C   LIG    1       27.070 -26.187  14.937  0.00  0.00    +0.121 C 
BRANCH  23  24
ATOM     24  C   LIG    1       27.168 -24.966  14.060  0.00  0.00    +0.305 C 
ATOM     25  O   LIG    1       28.062 -24.142  14.138  0.00  0.00    -0.251 OA
BRANCH  24  26
ATOM     26  O   LIG    1       26.144 -24.852  13.184  0.00  0.00    -0.481 OA
ATOM     27  H   LIG    1       25.297 -25.206  13.512  0.00  0.00    +0.295 HD
ENDBRANCH  24  26
ENDBRANCH  23  24
ENDBRANCH  22  23
ENDBRANCH  21  22
ENDBRANCH   1  21
BRANCH  12  28
ATOM     28  O   LIG    1       24.085 -32.444   5.087  0.00  0.00    -0.392 OA
ATOM     29  H   LIG    1       23.397 -32.676   4.438  0.00  0.00    +0.210 HD
ENDBRANCH  12  28
BRANCH  16  30
ATOM     30  O   LIG    1       27.519 -32.234   8.310  0.00  0.00    -0.392 OA
ATOM     31  H   LIG    1       28.109 -32.949   8.601  0.00  0.00    +0.210 HD
ENDBRANCH  16  30
BRANCH  18  32
ATOM     32  O   LIG    1       23.216 -29.505  12.881  0.00  0.00    -0.391 OA
ATOM     33  H   LIG    1       22.263 -29.469  12.689  0.00  0.00    +0.210 HD
ENDBRANCH  18  32
TORSDOF 8
ENDMDL
MODEL 7
REMARK VINA RESULT:      -5.2     10.661     12.544
REMARK  Name = *****
REMARK                            x       y       z     vdW  Elec       q    Type
REMARK                         _______ _______ _______ _____ _____    ______ ____
ROOT
ATOM      1  C   LIG    1       30.774 -19.191   8.154  0.00  0.00    +0.001 C 
ATOM      2  C   LIG    1       29.209 -19.190   7.831  0.00  0.00    +0.000 C 
ATOM      3  C   LIG    1       28.418 -18.130   8.631  0.00  0.00    +0.014 C 
ATOM      4  C   LIG    1       28.711 -20.600   8.345  0.00  0.00    +0.003 C 
ATOM      5  C   LIG    1       27.532 -21.317   7.634  0.00  0.00    +0.025 C 
ATOM      6  C   LIG    1       27.591 -21.046   5.764  0.00  0.00    +0.003 C 
ATOM      7  C   LIG    1       28.801 -20.152   5.422  0.00  0.00    +0.036 C 
ATOM      8  C   LIG    1       25.979 -20.502   5.046  0.00  0.00    -0.026 C 
ATOM      9  C   LIG    1       26.071 -19.250   4.193  0.00  0.00    +0.012 C 
ATOM     10  C   LIG    1       24.260 -20.646   5.762  0.00  0.00    +0.000 C 
ATOM     11  C   LIG    1       23.605 -21.859   5.172  0.00  0.00    +0.035 C 
ATOM     12  C   LIG    1       24.687 -22.864   5.377  0.00  0.00    +0.115 C 
ATOM     13  C   LIG    1       25.656 -22.279   6.449  0.00  0.00    +0.032 C 
ATOM     14  C   LIG    1       24.261 -20.832   7.668  0.00  0.00    +0.035 C 
ATOM     15  C   LIG    1       25.943 -20.329   6.414  0.00  0.00    +0.009 C 
ATOM     16  C   LIG    1       25.920 -20.949   8.532  0.00  0.00    +0.118 C 
ATOM     17  C   LIG    1       29.972 -21.464   8.362  0.00  0.00    +0.005 C 
ATOM     18  C   LIG    1       28.942 -18.913   6.306  0.00  0.00    +0.121 C 
ATOM     19  C   LIG    1       31.013 -20.512   8.912  0.00  0.00    +0.005 C 
ENDROOT
BRANCH   1  21
ATOM     20  C   LIG    1       32.837 -17.601   8.429  0.00  0.00    +0.008 C 
ATOM     21  C   LIG    1       31.430 -17.984   8.908  0.00  0.00    -0.010 C 
BRANCH  21  22
ATOM     22  C   LIG    1       31.495 -18.204  10.447  0.00  0.00    +0.015 C 
BRANCH  22  23
ATOM     23  C   LIG    1       30.791 -17.127  11.272  0.00  0.00    +0.121 C 
BRANCH  23  24
ATOM     24  C   LIG    1       31.793 -16.210  11.925  0.00  0.00    +0.305 C 
ATOM     25  O   LIG    1       32.983 -16.207  11.664  0.00  0.00    -0.251 OA
BRANCH  24  26
ATOM     26  O   LIG    1       31.248 -15.398  12.858  0.00  0.00    -0.481 OA
ATOM     27  H   LIG    1       30.830 -15.870  13.602  0.00  0.00    +0.295 HD
ENDBRANCH  24  26
ENDBRANCH  23  24
ENDBRANCH  22  23
ENDBRANCH  21  22
ENDBRANCH   1  21
BRANCH  12  28
ATOM     28  O   LIG    1       24.158 -24.113   5.789  0.00  0.00    -0.392 OA
ATOM     29  H   LIG    1       24.540 -24.805   5.220  0.00  0.00    +0.210 HD
ENDBRANCH  12  28
BRANCH  16  30
ATOM     30  O   LIG    1       25.778 -21.877   9.609  0.00  0.00    -0.392 OA
ATOM     31  H   LIG    1       25.471 -22.718   9.232  0.00  0.00    +0.210 HD
ENDBRANCH  16  30
BRANCH  18  32
ATOM     32  O   LIG    1       29.940 -18.055   5.745  0.00  0.00    -0.391 OA
ATOM     33  H   LIG    1       30.368 -18.520   5.006  0.00  0.00    +0.210 HD
ENDBRANCH  18  32
TORSDOF 8
ENDMDL
MODEL 8
REMARK VINA RESULT:      -5.1      4.197      7.389
REMARK  Name = *****
REMARK                            x       y       z     vdW  Elec       q    Type
REMARK                         _______ _______ _______ _____ _____    ______ ____
ROOT
ATOM      1  C   LIG    1       21.856 -31.897  12.200  0.00  0.00    +0.001 C 
ATOM      2  C   LIG    1       22.748 -30.596  11.940  0.00  0.00    +0.000 C 
ATOM      3  C   LIG    1       22.770 -30.155  10.459  0.00  0.00    +0.014 C 
ATOM      4  C   LIG    1       24.217 -31.063  12.288  0.00  0.00    +0.003 C 
ATOM      5  C   LIG    1       25.239 -30.052  12.873  0.00  0.00    +0.025 C 
ATOM      6  C   LIG    1       24.406 -28.847  14.067  0.00  0.00    +0.003 C 
ATOM      7  C   LIG    1       22.899 -29.169  14.138  0.00  0.00    +0.036 C 
ATOM      8  C   LIG    1       24.819 -27.077  13.738  0.00  0.00    -0.026 C 
ATOM      9  C   LIG    1       23.609 -26.172  13.602  0.00  0.00    +0.012 C 
ATOM     10  C   LIG    1       26.248 -26.360  12.772  0.00  0.00    +0.000 C 
ATOM     11  C   LIG    1       27.322 -25.967  13.742  0.00  0.00    +0.035 C 
ATOM     12  C   LIG    1       27.401 -27.211  14.558  0.00  0.00    +0.115 C 
ATOM     13  C   LIG    1       26.722 -28.345  13.730  0.00  0.00    +0.032 C 
ATOM     14  C   LIG    1       26.996 -27.599  11.518  0.00  0.00    +0.035 C 
ATOM     15  C   LIG    1       25.165 -27.832  12.637  0.00  0.00    +0.009 C 
ATOM     16  C   LIG    1       26.301 -29.340  11.492  0.00  0.00    +0.118 C 
ATOM     17  C   LIG    1       24.023 -32.268  13.209  0.00  0.00    +0.005 C 
ATOM     18  C   LIG    1       22.229 -29.371  12.779  0.00  0.00    +0.121 C 
ATOM     19  C   LIG    1       22.874 -33.001  12.551  0.00  0.00    +0.005 C 
ENDROOT
BRANCH   1  21
ATOM     20  C   LIG    1       21.445 -33.250   9.997  0.00  0.00    +0.008 C 
ATOM     21  C   LIG    1       20.839 -32.392  11.116  0.00  0.00    -0.010 C 
BRANCH  21  22
ATOM     22  C   LIG    1       20.057 -31.224  10.449  0.00  0.00    +0.015 C 
BRANCH  22  23
ATOM     23  C   LIG    1       18.551 -31.239  10.710  0.00  0.00    +0.121 C 
BRANCH  23  24
ATOM     24  C   LIG    1       17.784 -31.324   9.416  0.00  0.00    +0.305 C 
ATOM     25  O   LIG    1       17.649 -32.348   8.771  0.00  0.00    -0.251 OA
BRANCH  24  26
ATOM     26  O   LIG    1       17.275 -30.136   9.017  0.00  0.00    -0.481 OA
ATOM     27  H   LIG    1       17.026 -29.543   9.749  0.00  0.00    +0.295 HD
ENDBRANCH  24  26
ENDBRANCH  23  24
ENDBRANCH  22  23
ENDBRANCH  21  22
ENDBRANCH   1  21
BRANCH  12  28
ATOM     28  O   LIG    1       28.745 -27.537  14.871  0.00  0.00    -0.392 OA
ATOM     29  H   LIG    1       28.973 -27.103  15.713  0.00  0.00    +0.210 HD
ENDBRANCH  12  28
BRANCH  16  30
ATOM     30  O   LIG    1       27.390 -30.233  11.250  0.00  0.00    -0.392 OA
ATOM     31  H   LIG    1       27.052 -30.965  10.708  0.00  0.00    +0.210 HD
ENDBRANCH  16  30
BRANCH  18  32
ATOM     32  O   LIG    1       20.812 -29.423  12.964  0.00  0.00    -0.391 OA
ATOM     33  H   LIG    1       20.515 -28.571  13.326  0.00  0.00    +0.210 HD
ENDBRANCH  18  32
TORSDOF 8
ENDMDL
MODEL 9
REMARK VINA RESULT:      -5.1      2.950      7.680
REMARK  Name = *****
REMARK                            x       y       z     vdW  Elec       q    Type
REMARK                         _______ _______ _______ _____ _____    ______ ____
ROOT
ATOM      1  C   LIG    1       21.875 -31.950  11.888  0.00  0.00    +0.001 C 
ATOM      2  C   LIG    1       22.783 -30.645  11.724  0.00  0.00    +0.000 C 
ATOM      3  C   LIG    1       22.940 -30.188  10.256  0.00  0.00    +0.014 C 
ATOM      4  C   LIG    1       24.215 -31.111  12.202  0.00  0.00    +0.003 C 
ATOM      5  C   LIG    1       25.175 -30.103  12.888  0.00  0.00    +0.025 C 
ATOM      6  C   LIG    1       24.231 -28.913  14.013  0.00  0.00    +0.003 C 
ATOM      7  C   LIG    1       22.725 -29.240  13.942  0.00  0.00    +0.036 C 
ATOM      8  C   LIG    1       24.666 -27.139  13.741  0.00  0.00    -0.026 C 
ATOM      9  C   LIG    1       23.470 -26.235  13.504  0.00  0.00    +0.012 C 
ATOM     10  C   LIG    1       26.176 -26.407  12.919  0.00  0.00    +0.000 C 
ATOM     11  C   LIG    1       27.153 -26.021  13.988  0.00  0.00    +0.035 C 
ATOM     12  C   LIG    1       27.162 -27.274  14.795  0.00  0.00    +0.115 C 
ATOM     13  C   LIG    1       26.567 -28.401  13.896  0.00  0.00    +0.032 C 
ATOM     14  C   LIG    1       27.040 -27.631  11.727  0.00  0.00    +0.035 C 
ATOM     15  C   LIG    1       25.115 -27.881  12.669  0.00  0.00    +0.009 C 
ATOM     16  C   LIG    1       26.357 -29.373  11.619  0.00  0.00    +0.118 C 
ATOM     17  C   LIG    1       23.942 -32.326  13.088  0.00  0.00    +0.005 C 
ATOM     18  C   LIG    1       22.184 -29.430  12.524  0.00  0.00    +0.121 C 
ATOM     19  C   LIG    1       22.861 -33.055  12.319  0.00  0.00    +0.005 C 
ENDROOT
BRANCH   1  21
ATOM     20  C   LIG    1       19.467 -32.523  11.034  0.00  0.00    +0.008 C 
ATOM     21  C   LIG    1       20.965 -32.437  10.710  0.00  0.00    -0.010 C 
BRANCH  21  22
ATOM     22  C   LIG    1       21.408 -33.816  10.141  0.00  0.00    +0.015 C 
BRANCH  22  23
ATOM     23  C   LIG    1       21.751 -33.807   8.652  0.00  0.00    +0.121 C 
BRANCH  23  24
ATOM     24  C   LIG    1       23.107 -33.193   8.417  0.00  0.00    +0.305 C 
ATOM     25  O   LIG    1       24.090 -33.436   9.094  0.00  0.00    -0.251 OA
BRANCH  24  26
ATOM     26  O   LIG    1       23.127 -32.316   7.388  0.00  0.00    -0.481 OA
ATOM     27  H   LIG    1       23.969 -31.834   7.291  0.00  0.00    +0.295 HD
ENDBRANCH  24  26
ENDBRANCH  23  24
ENDBRANCH  22  23
ENDBRANCH  21  22
ENDBRANCH   1  21
BRANCH  12  28
ATOM     28  O   LIG    1       28.473 -27.599  15.227  0.00  0.00    -0.392 OA
ATOM     29  H   LIG    1       28.657 -28.520  14.967  0.00  0.00    +0.210 HD
ENDBRANCH  12  28
BRANCH  16  30
ATOM     30  O   LIG    1       27.467 -30.260  11.469  0.00  0.00    -0.392 OA
ATOM     31  H   LIG    1       28.160 -29.969  12.084  0.00  0.00    +0.210 HD
ENDBRANCH  16  30
BRANCH  18  32
ATOM     32  O   LIG    1       20.756 -29.488  12.577  0.00  0.00    -0.391 OA
ATOM     33  H   LIG    1       20.450 -30.170  11.954  0.00  0.00    +0.210 HD
ENDBRANCH  18  32
TORSDOF 8
ENDMDL
