MODEL 1
REMARK VINA RESULT:      -8.8      0.000      0.000
REMARK  Name = *****
REMARK                            x       y       z     vdW  Elec       q    Type
REMARK                         _______ _______ _______ _____ _____    ______ ____
ROOT
ATOM      1  C   LIG    1       26.293 -31.081  10.338  0.00  0.00    +0.048 C 
ATOM      2  C   LIG    1       25.824 -30.405   9.068  0.00  0.00    -0.002 A 
ATOM      3  C   LIG    1       25.226 -31.117   8.040  0.00  0.00    +0.123 A 
ATOM      4  C   LIG    1       24.703 -30.509   6.880  0.00  0.00    -0.002 A 
ATOM      5  C   LIG    1       23.993 -31.317   5.830  0.00  0.00    +0.048 C 
ATOM      6  C   LIG    1       24.813 -29.090   6.775  0.00  0.00    +0.001 A 
ATOM      7  C   LIG    1       24.136 -28.337   5.651  0.00  0.00    +0.043 C 
ATOM      8  C   LIG    1       24.266 -26.813   5.818  0.00  0.00    +0.052 C 
ATOM      9  C   LIG    1       25.669 -26.442   6.306  0.00  0.00    +0.108 C 
ATOM     10  O   LIG    1       25.885 -27.057   7.588  0.00  0.00    -0.485 OA
ATOM     11  C   LIG    1       26.731 -26.923   5.274  0.00  0.00    +0.056 C 
ATOM     12  C   LIG    1       25.549 -28.389   7.728  0.00  0.00    +0.128 A 
ATOM     13  C   LIG    1       26.008 -29.004   8.914  0.00  0.00    -0.002 A 
ATOM     14  C   LIG    1       26.684 -28.203   9.991  0.00  0.00    +0.048 C 
ENDROOT
BRANCH   3  15
ATOM     15  O   LIG    1       25.147 -32.493   8.170  0.00  0.00    -0.506 OA
ATOM     16  H   LIG    1       25.102 -32.693   9.103  0.00  0.00    +0.292 HD
ENDBRANCH   3  15
BRANCH   9  17
ATOM     17  C   LIG    1       25.939 -24.908   6.506  0.00  0.00    +0.048 C 
BRANCH  17  18
ATOM     18  C   LIG    1       24.867 -23.814   6.184  0.00  0.00    +0.004 C 
BRANCH  18  19
ATOM     19  C   LIG    1       24.476 -22.892   7.368  0.00  0.00    +0.003 C 
BRANCH  19  20
ATOM     20  C   LIG    1       24.603 -21.327   7.290  0.00  0.00    -0.014 C 
ATOM     21  C   LIG    1       23.302 -20.735   6.652  0.00  0.00    +0.007 C 
BRANCH  20  22
ATOM     22  C   LIG    1       25.764 -20.718   6.453  0.00  0.00    +0.003 C 
BRANCH  22  23
ATOM     23  C   LIG    1       27.200 -21.091   6.826  0.00  0.00    +0.000 C 
BRANCH  23  24
ATOM     24  C   LIG    1       27.751 -20.219   7.976  0.00  0.00    +0.003 C 
BRANCH  24  25
ATOM     25  C   LIG    1       29.107 -19.520   7.672  0.00  0.00    -0.014 C 
ATOM     26  C   LIG    1       29.194 -19.168   6.176  0.00  0.00    +0.007 C 
BRANCH  25  27
ATOM     27  C   LIG    1       30.402 -20.297   8.100  0.00  0.00    +0.003 C 
BRANCH  27  28
ATOM     28  C   LIG    1       31.376 -19.464   8.958  0.00  0.00    +0.000 C 
BRANCH  28  29
ATOM     29  C   LIG    1       31.695 -18.003   8.567  0.00  0.00    +0.003 C 
BRANCH  29  30
ATOM     30  C   LIG    1       31.332 -16.839   9.525  0.00  0.00    -0.017 C 
ATOM     31  C   LIG    1       32.546 -16.081  10.067  0.00  0.00    +0.007 C 
ATOM     32  C   LIG    1       30.486 -17.350  10.713  0.00  0.00    +0.007 C 
ENDBRANCH  29  30
ENDBRANCH  28  29
ENDBRANCH  27  28
ENDBRANCH  25  27
ENDBRANCH  24  25
ENDBRANCH  23  24
ENDBRANCH  22  23
ENDBRANCH  20  22
ENDBRANCH  19  20
ENDBRANCH  18  19
ENDBRANCH  17  18
ENDBRANCH   9  17
TORSDOF 13
ENDMDL
MODEL 2
REMARK VINA RESULT:      -8.4      2.906     10.214
REMARK  Name = *****
REMARK                            x       y       z     vdW  Elec       q    Type
REMARK                         _______ _______ _______ _____ _____    ______ ____
ROOT
ATOM      1  C   LIG    1       29.729 -19.399   6.549  0.00  0.00    +0.048 C 
ATOM      2  C   LIG    1       28.340 -19.628   5.993  0.00  0.00    -0.002 A 
ATOM      3  C   LIG    1       27.816 -18.827   4.990  0.00  0.00    +0.123 A 
ATOM      4  C   LIG    1       26.561 -19.061   4.391  0.00  0.00    -0.002 A 
ATOM      5  C   LIG    1       26.070 -18.211   3.252  0.00  0.00    +0.048 C 
ATOM      6  C   LIG    1       25.806 -20.178   4.861  0.00  0.00    +0.001 A 
ATOM      7  C   LIG    1       24.531 -20.604   4.167  0.00  0.00    +0.043 C 
ATOM      8  C   LIG    1       23.966 -21.911   4.750  0.00  0.00    +0.052 C 
ATOM      9  C   LIG    1       24.096 -21.920   6.276  0.00  0.00    +0.108 C 
ATOM     10  O   LIG    1       25.491 -21.838   6.618  0.00  0.00    -0.485 OA
ATOM     11  C   LIG    1       23.305 -20.723   6.880  0.00  0.00    +0.056 C 
ATOM     12  C   LIG    1       26.257 -20.890   5.970  0.00  0.00    +0.128 A 
ATOM     13  C   LIG    1       27.544 -20.683   6.514  0.00  0.00    -0.002 A 
ATOM     14  C   LIG    1       28.064 -21.550   7.626  0.00  0.00    +0.048 C 
ENDROOT
BRANCH   3  15
ATOM     15  O   LIG    1       28.569 -17.745   4.567  0.00  0.00    -0.506 OA
ATOM     16  H   LIG    1       29.357 -18.089   4.150  0.00  0.00    +0.292 HD
ENDBRANCH   3  15
BRANCH   9  17
ATOM     17  C   LIG    1       23.543 -23.199   7.000  0.00  0.00    +0.048 C 
BRANCH  17  18
ATOM     18  C   LIG    1       23.851 -24.651   6.502  0.00  0.00    +0.004 C 
BRANCH  18  19
ATOM     19  C   LIG    1       25.337 -25.084   6.580  0.00  0.00    +0.003 C 
BRANCH  19  20
ATOM     20  C   LIG    1       25.805 -26.545   6.231  0.00  0.00    -0.014 C 
ATOM     21  C   LIG    1       25.898 -26.699   4.676  0.00  0.00    +0.007 C 
BRANCH  20  22
ATOM     22  C   LIG    1       24.919 -27.737   6.692  0.00  0.00    +0.003 C 
BRANCH  22  23
ATOM     23  C   LIG    1       24.331 -28.660   5.623  0.00  0.00    +0.000 C 
BRANCH  23  24
ATOM     24  C   LIG    1       24.163 -30.109   6.131  0.00  0.00    +0.003 C 
BRANCH  24  25
ATOM     25  C   LIG    1       25.470 -30.952   6.144  0.00  0.00    -0.014 C 
ATOM     26  C   LIG    1       25.687 -31.608   4.769  0.00  0.00    +0.007 C 
BRANCH  25  27
ATOM     27  C   LIG    1       25.584 -32.043   7.266  0.00  0.00    +0.003 C 
BRANCH  27  28
ATOM     28  C   LIG    1       26.864 -31.930   8.120  0.00  0.00    +0.000 C 
BRANCH  28  29
ATOM     29  C   LIG    1       26.879 -31.026   9.374  0.00  0.00    +0.003 C 
BRANCH  29  30
ATOM     30  C   LIG    1       26.105 -29.682   9.378  0.00  0.00    -0.017 C 
ATOM     31  C   LIG    1       26.824 -28.555  10.123  0.00  0.00    +0.007 C 
ATOM     32  C   LIG    1       24.693 -29.862   9.980  0.00  0.00    +0.007 C 
ENDBRANCH  29  30
ENDBRANCH  28  29
ENDBRANCH  27  28
ENDBRANCH  25  27
ENDBRANCH  24  25
ENDBRANCH  23  24
ENDBRANCH  22  23
ENDBRANCH  20  22
ENDBRANCH  19  20
ENDBRANCH  18  19
ENDBRANCH  17  18
ENDBRANCH   9  17
TORSDOF 13
ENDMDL
MODEL 3
REMARK VINA RESULT:      -8.3      3.057      9.485
REMARK  Name = *****
REMARK                            x       y       z     vdW  Elec       q    Type
REMARK                         _______ _______ _______ _____ _____    ______ ____
ROOT
ATOM      1  C   LIG    1       29.761 -19.425   6.550  0.00  0.00    +0.048 C 
ATOM      2  C   LIG    1       28.369 -19.650   6.003  0.00  0.00    -0.002 A 
ATOM      3  C   LIG    1       27.834 -18.838   5.015  0.00  0.00    +0.123 A 
ATOM      4  C   LIG    1       26.574 -19.067   4.424  0.00  0.00    -0.002 A 
ATOM      5  C   LIG    1       26.072 -18.204   3.300  0.00  0.00    +0.048 C 
ATOM      6  C   LIG    1       25.826 -20.192   4.886  0.00  0.00    +0.001 A 
ATOM      7  C   LIG    1       24.546 -20.612   4.198  0.00  0.00    +0.043 C 
ATOM      8  C   LIG    1       23.989 -21.928   4.769  0.00  0.00    +0.052 C 
ATOM      9  C   LIG    1       24.132 -21.955   6.295  0.00  0.00    +0.108 C 
ATOM     10  O   LIG    1       25.530 -21.875   6.625  0.00  0.00    -0.485 OA
ATOM     11  C   LIG    1       23.344 -20.767   6.920  0.00  0.00    +0.056 C 
ATOM     12  C   LIG    1       26.288 -20.916   5.983  0.00  0.00    +0.128 A 
ATOM     13  C   LIG    1       27.579 -20.713   6.518  0.00  0.00    -0.002 A 
ATOM     14  C   LIG    1       28.111 -21.593   7.614  0.00  0.00    +0.048 C 
ENDROOT
BRANCH   3  15
ATOM     15  O   LIG    1       28.581 -17.749   4.599  0.00  0.00    -0.506 OA
ATOM     16  H   LIG    1       28.643 -17.144   5.336  0.00  0.00    +0.292 HD
ENDBRANCH   3  15
BRANCH   9  17
ATOM     17  C   LIG    1       23.588 -23.245   7.007  0.00  0.00    +0.048 C 
BRANCH  17  18
ATOM     18  C   LIG    1       23.872 -24.688   6.473  0.00  0.00    +0.004 C 
BRANCH  18  19
ATOM     19  C   LIG    1       25.312 -25.216   6.703  0.00  0.00    +0.003 C 
BRANCH  19  20
ATOM     20  C   LIG    1       25.737 -26.684   6.331  0.00  0.00    -0.014 C 
ATOM     21  C   LIG    1       25.969 -26.778   4.786  0.00  0.00    +0.007 C 
BRANCH  20  22
ATOM     22  C   LIG    1       24.753 -27.845   6.653  0.00  0.00    +0.003 C 
BRANCH  22  23
ATOM     23  C   LIG    1       25.133 -28.833   7.756  0.00  0.00    +0.000 C 
BRANCH  23  24
ATOM     24  C   LIG    1       26.380 -28.377   8.545  0.00  0.00    +0.003 C 
BRANCH  24  25
ATOM     25  C   LIG    1       26.495 -28.966   9.981  0.00  0.00    -0.014 C 
ATOM     26  C   LIG    1       25.206 -29.726  10.342  0.00  0.00    +0.007 C 
BRANCH  25  27
ATOM     27  C   LIG    1       26.838 -27.949  11.125  0.00  0.00    +0.003 C 
BRANCH  27  28
ATOM     28  C   LIG    1       25.797 -27.912  12.263  0.00  0.00    +0.000 C 
BRANCH  28  29
ATOM     29  C   LIG    1       25.993 -26.951  13.459  0.00  0.00    +0.003 C 
BRANCH  29  30
ATOM     30  C   LIG    1       24.790 -26.159  14.031  0.00  0.00    -0.017 C 
ATOM     31  C   LIG    1       23.452 -26.503  13.374  0.00  0.00    +0.007 C 
ATOM     32  C   LIG    1       25.030 -24.637  13.916  0.00  0.00    +0.007 C 
ENDBRANCH  29  30
ENDBRANCH  28  29
ENDBRANCH  27  28
ENDBRANCH  25  27
ENDBRANCH  24  25
ENDBRANCH  23  24
ENDBRANCH  22  23
ENDBRANCH  20  22
ENDBRANCH  19  20
ENDBRANCH  18  19
ENDBRANCH  17  18
ENDBRANCH   9  17
TORSDOF 13
ENDMDL
MODEL 4
REMARK VINA RESULT:      -8.1      4.497      7.631
REMARK  Name = *****
REMARK                            x       y       z     vdW  Elec       q    Type
REMARK                         _______ _______ _______ _____ _____    ______ ____
ROOT
ATOM      1  C   LIG    1       22.216 -27.006  14.010  0.00  0.00    +0.048 C 
ATOM      2  C   LIG    1       23.594 -27.245  13.434  0.00  0.00    -0.002 A 
ATOM      3  C   LIG    1       24.681 -26.462  13.793  0.00  0.00    +0.123 A 
ATOM      4  C   LIG    1       25.994 -26.707  13.340  0.00  0.00    -0.002 A 
ATOM      5  C   LIG    1       27.151 -25.877  13.820  0.00  0.00    +0.048 C 
ATOM      6  C   LIG    1       26.190 -27.817  12.463  0.00  0.00    +0.001 A 
ATOM      7  C   LIG    1       27.582 -28.255  12.062  0.00  0.00    +0.043 C 
ATOM      8  C   LIG    1       27.561 -29.553  11.236  0.00  0.00    +0.052 C 
ATOM      9  C   LIG    1       26.400 -29.536  10.236  0.00  0.00    +0.108 C 
ATOM     10  O   LIG    1       25.166 -29.447  10.969  0.00  0.00    -0.485 OA
ATOM     11  C   LIG    1       26.558 -28.329   9.265  0.00  0.00    +0.056 C 
ATOM     12  C   LIG    1       25.083 -28.509  11.978  0.00  0.00    +0.128 A 
ATOM     13  C   LIG    1       23.786 -28.292  12.492  0.00  0.00    -0.002 A 
ATOM     14  C   LIG    1       22.626 -29.140  12.052  0.00  0.00    +0.048 C 
ENDROOT
BRANCH   3  15
ATOM     15  O   LIG    1       24.452 -25.387  14.634  0.00  0.00    -0.506 OA
ATOM     16  H   LIG    1       23.903 -24.764  14.162  0.00  0.00    +0.292 HD
ENDBRANCH   3  15
BRANCH   9  17
ATOM     17  C   LIG    1       26.274 -30.803   9.317  0.00  0.00    +0.048 C 
BRANCH  17  18
ATOM     18  C   LIG    1       24.945 -31.183   8.580  0.00  0.00    +0.004 C 
BRANCH  18  19
ATOM     19  C   LIG    1       24.292 -30.047   7.751  0.00  0.00    +0.003 C 
BRANCH  19  20
ATOM     20  C   LIG    1       24.357 -30.011   6.180  0.00  0.00    -0.014 C 
ATOM     21  C   LIG    1       25.465 -31.000   5.687  0.00  0.00    +0.007 C 
BRANCH  20  22
ATOM     22  C   LIG    1       24.693 -28.663   5.483  0.00  0.00    +0.003 C 
BRANCH  22  23
ATOM     23  C   LIG    1       24.541 -27.371   6.288  0.00  0.00    +0.000 C 
BRANCH  23  24
ATOM     24  C   LIG    1       24.188 -26.163   5.394  0.00  0.00    +0.003 C 
BRANCH  24  25
ATOM     25  C   LIG    1       24.508 -24.774   6.018  0.00  0.00    -0.014 C 
ATOM     26  C   LIG    1       25.713 -24.889   6.969  0.00  0.00    +0.007 C 
BRANCH  25  27
ATOM     27  C   LIG    1       23.326 -24.056   6.760  0.00  0.00    +0.003 C 
BRANCH  27  28
ATOM     28  C   LIG    1       23.513 -22.532   6.905  0.00  0.00    +0.000 C 
BRANCH  28  29
ATOM     29  C   LIG    1       22.760 -21.567   5.959  0.00  0.00    +0.003 C 
BRANCH  29  30
ATOM     30  C   LIG    1       23.429 -20.249   5.492  0.00  0.00    -0.017 C 
ATOM     31  C   LIG    1       22.456 -19.247   4.866  0.00  0.00    +0.007 C 
ATOM     32  C   LIG    1       24.569 -20.537   4.489  0.00  0.00    +0.007 C 
ENDBRANCH  29  30
ENDBRANCH  28  29
ENDBRANCH  27  28
ENDBRANCH  25  27
ENDBRANCH  24  25
ENDBRANCH  23  24
ENDBRANCH  22  23
ENDBRANCH  20  22
ENDBRANCH  19  20
ENDBRANCH  18  19
ENDBRANCH  17  18
ENDBRANCH   9  17
TORSDOF 13
ENDMDL
MODEL 5
REMARK VINA RESULT:      -8.1      4.405      7.455
REMARK  Name = *****
REMARK                            x       y       z     vdW  Elec       q    Type
REMARK                         _______ _______ _______ _____ _____    ______ ____
ROOT
ATOM      1  C   LIG    1       20.687 -26.333  14.695  0.00  0.00    +0.048 C 
ATOM      2  C   LIG    1       21.148 -27.486  13.832  0.00  0.00    -0.002 A 
ATOM      3  C   LIG    1       20.312 -28.552  13.532  0.00  0.00    +0.123 A 
ATOM      4  C   LIG    1       20.680 -29.601  12.665  0.00  0.00    -0.002 A 
ATOM      5  C   LIG    1       19.710 -30.694  12.309  0.00  0.00    +0.048 C 
ATOM      6  C   LIG    1       21.983 -29.550  12.085  0.00  0.00    +0.001 A 
ATOM      7  C   LIG    1       22.401 -30.538  11.018  0.00  0.00    +0.043 C 
ATOM      8  C   LIG    1       23.785 -30.206  10.435  0.00  0.00    +0.052 C 
ATOM      9  C   LIG    1       24.745 -29.762  11.544  0.00  0.00    +0.108 C 
ATOM     10  O   LIG    1       24.216 -28.574  12.158  0.00  0.00    -0.485 OA
ATOM     11  C   LIG    1       24.905 -30.904  12.591  0.00  0.00    +0.056 C 
ATOM     12  C   LIG    1       22.879 -28.568  12.503  0.00  0.00    +0.128 A 
ATOM     13  C   LIG    1       22.473 -27.490  13.319  0.00  0.00    -0.002 A 
ATOM     14  C   LIG    1       23.419 -26.370  13.652  0.00  0.00    +0.048 C 
ENDROOT
BRANCH   3  15
ATOM     15  O   LIG    1       19.060 -28.577  14.122  0.00  0.00    -0.506 OA
ATOM     16  H   LIG    1       18.501 -27.975  13.635  0.00  0.00    +0.292 HD
ENDBRANCH   3  15
BRANCH   9  17
ATOM     17  C   LIG    1       26.202 -29.404  11.082  0.00  0.00    +0.048 C 
BRANCH  17  18
ATOM     18  C   LIG    1       26.687 -29.580   9.604  0.00  0.00    +0.004 C 
BRANCH  18  19
ATOM     19  C   LIG    1       26.323 -28.423   8.639  0.00  0.00    +0.003 C 
BRANCH  19  20
ATOM     20  C   LIG    1       25.213 -28.570   7.534  0.00  0.00    -0.014 C 
ATOM     21  C   LIG    1       25.188 -30.048   7.021  0.00  0.00    +0.007 C 
BRANCH  20  22
ATOM     22  C   LIG    1       25.331 -27.707   6.246  0.00  0.00    +0.003 C 
BRANCH  22  23
ATOM     23  C   LIG    1       25.591 -26.208   6.397  0.00  0.00    +0.000 C 
BRANCH  23  24
ATOM     24  C   LIG    1       24.451 -25.354   5.800  0.00  0.00    +0.003 C 
BRANCH  24  25
ATOM     25  C   LIG    1       24.492 -23.848   6.189  0.00  0.00    -0.014 C 
ATOM     26  C   LIG    1       25.662 -23.585   7.153  0.00  0.00    +0.007 C 
BRANCH  25  27
ATOM     27  C   LIG    1       23.174 -23.249   6.794  0.00  0.00    +0.003 C 
BRANCH  27  28
ATOM     28  C   LIG    1       23.378 -21.914   7.540  0.00  0.00    +0.000 C 
BRANCH  28  29
ATOM     29  C   LIG    1       23.400 -20.584   6.751  0.00  0.00    +0.003 C 
BRANCH  29  30
ATOM     30  C   LIG    1       23.141 -20.577   5.222  0.00  0.00    -0.017 C 
ATOM     31  C   LIG    1       24.414 -20.649   4.377  0.00  0.00    +0.007 C 
ATOM     32  C   LIG    1       22.332 -19.326   4.809  0.00  0.00    +0.007 C 
ENDBRANCH  29  30
ENDBRANCH  28  29
ENDBRANCH  27  28
ENDBRANCH  25  27
ENDBRANCH  24  25
ENDBRANCH  23  24
ENDBRANCH  22  23
ENDBRANCH  20  22
ENDBRANCH  19  20
ENDBRANCH  18  19
ENDBRANCH  17  18
ENDBRANCH   9  17
TORSDOF 13
ENDMDL
MODEL 6
REMARK VINA RESULT:      -8.1      2.969     10.485
REMARK  Name = *****
REMARK                            x       y       z     vdW  Elec       q    Type
REMARK                         _______ _______ _______ _____ _____    ______ ____
ROOT
ATOM      1  C   LIG    1       29.747 -19.367   6.552  0.00  0.00    +0.048 C 
ATOM      2  C   LIG    1       28.361 -19.616   5.998  0.00  0.00    -0.002 A 
ATOM      3  C   LIG    1       27.818 -18.816   5.004  0.00  0.00    +0.123 A 
ATOM      4  C   LIG    1       26.566 -19.067   4.407  0.00  0.00    -0.002 A 
ATOM      5  C   LIG    1       26.056 -18.216   3.278  0.00  0.00    +0.048 C 
ATOM      6  C   LIG    1       25.832 -20.201   4.871  0.00  0.00    +0.001 A 
ATOM      7  C   LIG    1       24.562 -20.643   4.177  0.00  0.00    +0.043 C 
ATOM      8  C   LIG    1       24.023 -21.965   4.751  0.00  0.00    +0.052 C 
ATOM      9  C   LIG    1       24.158 -21.985   6.277  0.00  0.00    +0.108 C 
ATOM     10  O   LIG    1       25.552 -21.881   6.614  0.00  0.00    -0.485 OA
ATOM     11  C   LIG    1       23.349 -20.806   6.894  0.00  0.00    +0.056 C 
ATOM     12  C   LIG    1       26.300 -20.914   5.973  0.00  0.00    +0.128 A 
ATOM     13  C   LIG    1       27.584 -20.689   6.513  0.00  0.00    -0.002 A 
ATOM     14  C   LIG    1       28.124 -21.556   7.616  0.00  0.00    +0.048 C 
ENDROOT
BRANCH   3  15
ATOM     15  O   LIG    1       28.551 -17.717   4.588  0.00  0.00    -0.506 OA
ATOM     16  H   LIG    1       29.398 -17.753   5.029  0.00  0.00    +0.292 HD
ENDBRANCH   3  15
BRANCH   9  17
ATOM     17  C   LIG    1       23.630 -23.279   6.992  0.00  0.00    +0.048 C 
BRANCH  17  18
ATOM     18  C   LIG    1       23.909 -24.719   6.446  0.00  0.00    +0.004 C 
BRANCH  18  19
ATOM     19  C   LIG    1       25.379 -25.200   6.547  0.00  0.00    +0.003 C 
BRANCH  19  20
ATOM     20  C   LIG    1       25.785 -26.707   6.348  0.00  0.00    -0.014 C 
ATOM     21  C   LIG    1       26.241 -26.927   4.867  0.00  0.00    +0.007 C 
BRANCH  20  22
ATOM     22  C   LIG    1       24.709 -27.803   6.595  0.00  0.00    +0.003 C 
BRANCH  22  23
ATOM     23  C   LIG    1       25.003 -28.885   7.636  0.00  0.00    +0.000 C 
BRANCH  23  24
ATOM     24  C   LIG    1       26.119 -28.465   8.617  0.00  0.00    +0.003 C 
BRANCH  24  25
ATOM     25  C   LIG    1       26.386 -29.473   9.771  0.00  0.00    -0.014 C 
ATOM     26  C   LIG    1       27.325 -28.842  10.814  0.00  0.00    +0.007 C 
BRANCH  25  27
ATOM     27  C   LIG    1       26.942 -30.880   9.353  0.00  0.00    +0.003 C 
BRANCH  27  28
ATOM     28  C   LIG    1       26.034 -32.058   9.761  0.00  0.00    +0.000 C 
BRANCH  28  29
ATOM     29  C   LIG    1       24.901 -31.840  10.791  0.00  0.00    +0.003 C 
BRANCH  29  30
ATOM     30  C   LIG    1       23.435 -31.673  10.316  0.00  0.00    -0.017 C 
ATOM     31  C   LIG    1       23.236 -31.917   8.819  0.00  0.00    +0.007 C 
ATOM     32  C   LIG    1       22.898 -30.269  10.674  0.00  0.00    +0.007 C 
ENDBRANCH  29  30
ENDBRANCH  28  29
ENDBRANCH  27  28
ENDBRANCH  25  27
ENDBRANCH  24  25
ENDBRANCH  23  24
ENDBRANCH  22  23
ENDBRANCH  20  22
ENDBRANCH  19  20
ENDBRANCH  18  19
ENDBRANCH  17  18
ENDBRANCH   9  17
TORSDOF 13
ENDMDL
MODEL 7
REMARK VINA RESULT:      -8.0      2.440      4.875
REMARK  Name = *****
REMARK                            x       y       z     vdW  Elec       q    Type
REMARK                         _______ _______ _______ _____ _____    ______ ____
ROOT
ATOM      1  C   LIG    1       24.631 -33.639   5.547  0.00  0.00    +0.048 C 
ATOM      2  C   LIG    1       24.771 -32.343   6.314  0.00  0.00    -0.002 A 
ATOM      3  C   LIG    1       24.518 -32.269   7.675  0.00  0.00    +0.123 A 
ATOM      4  C   LIG    1       24.717 -31.099   8.436  0.00  0.00    -0.002 A 
ATOM      5  C   LIG    1       24.504 -31.092   9.924  0.00  0.00    +0.048 C 
ATOM      6  C   LIG    1       25.194 -29.942   7.750  0.00  0.00    +0.001 A 
ATOM      7  C   LIG    1       25.594 -28.695   8.510  0.00  0.00    +0.043 C 
ATOM      8  C   LIG    1       26.213 -27.632   7.586  0.00  0.00    +0.052 C 
ATOM      9  C   LIG    1       25.448 -27.558   6.260  0.00  0.00    +0.108 C 
ATOM     10  O   LIG    1       25.544 -28.835   5.606  0.00  0.00    -0.485 OA
ATOM     11  C   LIG    1       23.961 -27.181   6.529  0.00  0.00    +0.056 C 
ATOM     12  C   LIG    1       25.300 -29.965   6.361  0.00  0.00    +0.128 A 
ATOM     13  C   LIG    1       25.160 -31.162   5.625  0.00  0.00    -0.002 A 
ATOM     14  C   LIG    1       25.408 -31.194   4.143  0.00  0.00    +0.048 C 
ENDROOT
BRANCH   3  15
ATOM     15  O   LIG    1       24.044 -33.407   8.306  0.00  0.00    -0.506 OA
ATOM     16  H   LIG    1       23.192 -33.612   7.927  0.00  0.00    +0.292 HD
ENDBRANCH   3  15
BRANCH   9  17
ATOM     17  C   LIG    1       25.973 -26.498   5.228  0.00  0.00    +0.048 C 
BRANCH  17  18
ATOM     18  C   LIG    1       25.500 -25.005   5.237  0.00  0.00    +0.004 C 
BRANCH  18  19
ATOM     19  C   LIG    1       25.769 -24.225   6.549  0.00  0.00    +0.003 C 
BRANCH  19  20
ATOM     20  C   LIG    1       24.613 -23.563   7.383  0.00  0.00    -0.014 C 
ATOM     21  C   LIG    1       23.254 -23.763   6.632  0.00  0.00    +0.007 C 
BRANCH  20  22
ATOM     22  C   LIG    1       24.684 -22.035   7.667  0.00  0.00    +0.003 C 
BRANCH  22  23
ATOM     23  C   LIG    1       25.831 -21.511   8.532  0.00  0.00    +0.000 C 
BRANCH  23  24
ATOM     24  C   LIG    1       26.601 -20.360   7.847  0.00  0.00    +0.003 C 
BRANCH  24  25
ATOM     25  C   LIG    1       27.276 -20.739   6.498  0.00  0.00    -0.014 C 
ATOM     26  C   LIG    1       28.797 -20.529   6.594  0.00  0.00    +0.007 C 
BRANCH  25  27
ATOM     27  C   LIG    1       26.729 -20.014   5.218  0.00  0.00    +0.003 C 
BRANCH  27  28
ATOM     28  C   LIG    1       25.435 -20.635   4.653  0.00  0.00    +0.000 C 
BRANCH  28  29
ATOM     29  C   LIG    1       24.301 -19.719   4.136  0.00  0.00    +0.003 C 
BRANCH  29  30
ATOM     30  C   LIG    1       22.984 -19.576   4.940  0.00  0.00    -0.017 C 
ATOM     31  C   LIG    1       22.183 -20.875   5.055  0.00  0.00    +0.007 C 
ATOM     32  C   LIG    1       22.082 -18.481   4.327  0.00  0.00    +0.007 C 
ENDBRANCH  29  30
ENDBRANCH  28  29
ENDBRANCH  27  28
ENDBRANCH  25  27
ENDBRANCH  24  25
ENDBRANCH  23  24
ENDBRANCH  22  23
ENDBRANCH  20  22
ENDBRANCH  19  20
ENDBRANCH  18  19
ENDBRANCH  17  18
ENDBRANCH   9  17
TORSDOF 13
ENDMDL
MODEL 8
REMARK VINA RESULT:      -7.8      4.231      7.342
REMARK  Name = *****
REMARK                            x       y       z     vdW  Elec       q    Type
REMARK                         _______ _______ _______ _____ _____    ______ ____
ROOT
ATOM      1  C   LIG    1       25.063 -24.989  14.672  0.00  0.00    +0.048 C 
ATOM      2  C   LIG    1       24.464 -26.218  14.024  0.00  0.00    -0.002 A 
ATOM      3  C   LIG    1       23.181 -26.650  14.325  0.00  0.00    +0.123 A 
ATOM      4  C   LIG    1       22.562 -27.740  13.681  0.00  0.00    -0.002 A 
ATOM      5  C   LIG    1       21.140 -28.121  13.987  0.00  0.00    +0.048 C 
ATOM      6  C   LIG    1       23.313 -28.425  12.678  0.00  0.00    +0.001 A 
ATOM      7  C   LIG    1       22.673 -29.495  11.821  0.00  0.00    +0.043 C 
ATOM      8  C   LIG    1       23.621 -29.991  10.716  0.00  0.00    +0.052 C 
ATOM      9  C   LIG    1       25.049 -30.134  11.254  0.00  0.00    +0.108 C 
ATOM     10  O   LIG    1       25.503 -28.843  11.694  0.00  0.00    -0.485 OA
ATOM     11  C   LIG    1       25.069 -31.160  12.426  0.00  0.00    +0.056 C 
ATOM     12  C   LIG    1       24.652 -28.095  12.483  0.00  0.00    +0.128 A 
ATOM     13  C   LIG    1       25.235 -26.960  13.088  0.00  0.00    -0.002 A 
ATOM     14  C   LIG    1       26.642 -26.544  12.763  0.00  0.00    +0.048 C 
ENDROOT
BRANCH   3  15
ATOM     15  O   LIG    1       22.487 -25.971  15.312  0.00  0.00    -0.506 OA
ATOM     16  H   LIG    1       22.978 -26.065  16.126  0.00  0.00    +0.292 HD
ENDBRANCH   3  15
BRANCH   9  17
ATOM     17  C   LIG    1       26.118 -30.647  10.225  0.00  0.00    +0.048 C 
BRANCH  17  18
ATOM     18  C   LIG    1       26.135 -30.192   8.727  0.00  0.00    +0.004 C 
BRANCH  18  19
ATOM     19  C   LIG    1       25.906 -28.678   8.486  0.00  0.00    +0.003 C 
BRANCH  19  20
ATOM     20  C   LIG    1       25.105 -28.138   7.245  0.00  0.00    -0.014 C 
ATOM     21  C   LIG    1       24.474 -29.345   6.474  0.00  0.00    +0.007 C 
BRANCH  20  22
ATOM     22  C   LIG    1       25.874 -27.335   6.158  0.00  0.00    +0.003 C 
BRANCH  22  23
ATOM     23  C   LIG    1       25.098 -26.312   5.327  0.00  0.00    +0.000 C 
BRANCH  23  24
ATOM     24  C   LIG    1       24.055 -25.545   6.169  0.00  0.00    +0.003 C 
BRANCH  24  25
ATOM     25  C   LIG    1       24.342 -24.024   6.334  0.00  0.00    -0.014 C 
ATOM     26  C   LIG    1       25.575 -23.815   7.229  0.00  0.00    +0.007 C 
BRANCH  25  27
ATOM     27  C   LIG    1       23.156 -23.146   6.868  0.00  0.00    +0.003 C 
BRANCH  27  28
ATOM     28  C   LIG    1       23.594 -21.781   7.436  0.00  0.00    +0.000 C 
BRANCH  28  29
ATOM     29  C   LIG    1       24.225 -20.722   6.502  0.00  0.00    +0.003 C 
BRANCH  29  30
ATOM     30  C   LIG    1       23.676 -20.520   5.066  0.00  0.00    -0.017 C 
ATOM     31  C   LIG    1       24.725 -20.035   4.063  0.00  0.00    +0.007 C 
ATOM     32  C   LIG    1       22.486 -19.533   5.067  0.00  0.00    +0.007 C 
ENDBRANCH  29  30
ENDBRANCH  28  29
ENDBRANCH  27  28
ENDBRANCH  25  27
ENDBRANCH  24  25
ENDBRANCH  23  24
ENDBRANCH  22  23
ENDBRANCH  20  22
ENDBRANCH  19  20
ENDBRANCH  18  19
ENDBRANCH  17  18
ENDBRANCH   9  17
TORSDOF 13
ENDMDL
MODEL 9
REMARK VINA RESULT:      -7.8      3.076     10.677
REMARK  Name = *****
REMARK                            x       y       z     vdW  Elec       q    Type
REMARK                         _______ _______ _______ _____ _____    ______ ____
ROOT
ATOM      1  C   LIG    1       29.485 -19.815   6.654  0.00  0.00    +0.048 C 
ATOM      2  C   LIG    1       28.128 -19.824   5.985  0.00  0.00    -0.002 A 
ATOM      3  C   LIG    1       27.784 -18.888   5.021  0.00  0.00    +0.123 A 
ATOM      4  C   LIG    1       26.562 -18.916   4.318  0.00  0.00    -0.002 A 
ATOM      5  C   LIG    1       26.268 -17.924   3.227  0.00  0.00    +0.048 C 
ATOM      6  C   LIG    1       25.644 -19.962   4.635  0.00  0.00    +0.001 A 
ATOM      7  C   LIG    1       24.387 -20.169   3.820  0.00  0.00    +0.043 C 
ATOM      8  C   LIG    1       23.626 -21.437   4.246  0.00  0.00    +0.052 C 
ATOM      9  C   LIG    1       23.632 -21.582   5.771  0.00  0.00    +0.108 C 
ATOM     10  O   LIG    1       24.995 -21.702   6.214  0.00  0.00    -0.485 OA
ATOM     11  C   LIG    1       22.944 -20.345   6.421  0.00  0.00    +0.056 C 
ATOM     12  C   LIG    1       25.918 -20.810   5.707  0.00  0.00    +0.128 A 
ATOM     13  C   LIG    1       27.172 -20.809   6.355  0.00  0.00    -0.002 A 
ATOM     14  C   LIG    1       27.495 -21.819   7.420  0.00  0.00    +0.048 C 
ENDROOT
BRANCH   3  15
ATOM     15  O   LIG    1       28.692 -17.879   4.748  0.00  0.00    -0.506 OA
ATOM     16  H   LIG    1       28.281 -17.050   4.985  0.00  0.00    +0.292 HD
ENDBRANCH   3  15
BRANCH   9  17
ATOM     17  C   LIG    1       22.875 -22.834   6.340  0.00  0.00    +0.048 C 
BRANCH  17  18
ATOM     18  C   LIG    1       23.621 -24.066   6.954  0.00  0.00    +0.004 C 
BRANCH  18  19
ATOM     19  C   LIG    1       24.146 -25.107   5.933  0.00  0.00    +0.003 C 
BRANCH  19  20
ATOM     20  C   LIG    1       24.908 -26.409   6.379  0.00  0.00    -0.014 C 
ATOM     21  C   LIG    1       26.415 -26.290   5.973  0.00  0.00    +0.007 C 
BRANCH  20  22
ATOM     22  C   LIG    1       24.448 -27.774   5.793  0.00  0.00    +0.003 C 
BRANCH  22  23
ATOM     23  C   LIG    1       24.988 -29.056   6.430  0.00  0.00    +0.000 C 
BRANCH  23  24
ATOM     24  C   LIG    1       23.984 -29.683   7.422  0.00  0.00    +0.003 C 
BRANCH  24  25
ATOM     25  C   LIG    1       24.633 -30.441   8.615  0.00  0.00    -0.014 C 
ATOM     26  C   LIG    1       23.859 -30.145   9.911  0.00  0.00    +0.007 C 
BRANCH  25  27
ATOM     27  C   LIG    1       26.163 -30.186   8.853  0.00  0.00    +0.003 C 
BRANCH  27  28
ATOM     28  C   LIG    1       26.952 -31.446   9.263  0.00  0.00    +0.000 C 
BRANCH  28  29
ATOM     29  C   LIG    1       26.999 -32.670   8.319  0.00  0.00    +0.003 C 
BRANCH  29  30
ATOM     30  C   LIG    1       27.162 -32.472   6.790  0.00  0.00    -0.017 C 
ATOM     31  C   LIG    1       25.890 -32.753   5.988  0.00  0.00    +0.007 C 
ATOM     32  C   LIG    1       28.307 -33.354   6.242  0.00  0.00    +0.007 C 
ENDBRANCH  29  30
ENDBRANCH  28  29
ENDBRANCH  27  28
ENDBRANCH  25  27
ENDBRANCH  24  25
ENDBRANCH  23  24
ENDBRANCH  22  23
ENDBRANCH  20  22
ENDBRANCH  19  20
ENDBRANCH  18  19
ENDBRANCH  17  18
ENDBRANCH   9  17
TORSDOF 13
ENDMDL
