MODEL 1
REMARK VINA RESULT:      -9.5      0.000      0.000
REMARK  Name = *****
REMARK                            x       y       z     vdW  Elec       q    Type
REMARK                         _______ _______ _______ _____ _____    ______ ____
ROOT
ATOM      1  N   LIG    1       26.327 -21.153   6.703  0.00  0.00    -0.261 N 
ATOM      2  N   LIG    1       26.693 -20.230   5.787  0.00  0.00    -0.178 NA
ATOM      3  C   LIG    1       27.944 -19.910   6.132  0.00  0.00    +0.144 A 
ATOM      4  C   LIG    1       28.407 -20.636   7.246  0.00  0.00    +0.038 A 
ATOM      5  C   LIG    1       27.343 -21.447   7.573  0.00  0.00    +0.119 A 
ENDROOT
BRANCH   4   6
ATOM      6  C   LIG    1       29.646 -20.625   7.985  0.00  0.00    +0.086 A 
ATOM      7  C   LIG    1       30.261 -19.443   8.404  0.00  0.00    +0.045 A 
ATOM      8  C   LIG    1       31.451 -19.605   9.102  0.00  0.00    +0.142 A 
ATOM      9  N   LIG    1       31.923 -18.367   9.439  0.00  0.00    -0.346 N 
ATOM     10  H   LIG    1       32.777 -18.214   9.956  0.00  0.00    +0.167 HD
ATOM     11  C   LIG    1       31.071 -17.403   8.965  0.00  0.00    +0.085 A 
ATOM     12  N   LIG    1       32.061 -20.757   9.411  0.00  0.00    -0.218 NA
ATOM     13  C   LIG    1       31.380 -21.819   8.949  0.00  0.00    +0.224 A 
ATOM     14  C   LIG    1       30.035 -18.039   8.314  0.00  0.00    +0.031 A 
ATOM     15  N   LIG    1       30.227 -21.823   8.256  0.00  0.00    -0.235 NA
ENDBRANCH   4   6
BRANCH   1  18
ATOM     16  N   LIG    1       25.196 -23.750   6.038  0.00  0.00    -0.176 NA
ATOM     17  C   LIG    1       24.705 -22.505   5.388  0.00  0.00    +0.141 C 
ATOM     18  C   LIG    1       24.986 -21.719   6.714  0.00  0.00    +0.105 C 
ATOM     19  C   LIG    1       24.920 -23.133   7.366  0.00  0.00    +0.141 C 
BRANCH  16  20
ATOM     20  S   LIG    1       24.869 -25.328   5.564  0.00  0.00    +0.032 S 
ATOM     21  O   LIG    1       23.617 -25.708   6.182  0.00  0.00    -0.158 OA
ATOM     22  O   LIG    1       25.064 -25.396   4.133  0.00  0.00    -0.158 OA
BRANCH  20  24
ATOM     23  C   LIG    1       25.733 -27.412   7.123  0.00  0.00    +0.030 C 
ATOM     24  C   LIG    1       26.212 -26.184   6.379  0.00  0.00    +0.182 C 
ENDBRANCH  20  24
ENDBRANCH  16  20
BRANCH  18  25
ATOM     25  C   LIG    1       23.903 -20.719   7.098  0.00  0.00    +0.151 C 
BRANCH  25  26
ATOM     26  C   LIG    1       23.095 -20.320   5.930  0.00  0.00    +0.065 C 
ATOM     27  N   LIG    1       22.434 -19.969   5.048  0.00  0.00    -0.197 NA
ENDBRANCH  25  26
ENDBRANCH  18  25
ENDBRANCH   1  18
TORSDOF 6
ENDMDL
MODEL 2
REMARK VINA RESULT:      -9.1      1.345      2.134
REMARK  Name = *****
REMARK                            x       y       z     vdW  Elec       q    Type
REMARK                         _______ _______ _______ _____ _____    ______ ____
ROOT
ATOM      1  N   LIG    1       25.322 -21.183   7.008  0.00  0.00    -0.261 N 
ATOM      2  N   LIG    1       25.220 -20.762   8.287  0.00  0.00    -0.178 NA
ATOM      3  C   LIG    1       26.440 -20.297   8.573  0.00  0.00    +0.144 A 
ATOM      4  C   LIG    1       27.328 -20.385   7.484  0.00  0.00    +0.038 A 
ATOM      5  C   LIG    1       26.563 -20.940   6.482  0.00  0.00    +0.119 A 
ENDROOT
BRANCH   4   6
ATOM      6  C   LIG    1       28.720 -20.043   7.316  0.00  0.00    +0.086 A 
ATOM      7  C   LIG    1       29.744 -20.709   7.993  0.00  0.00    +0.045 A 
ATOM      8  C   LIG    1       31.029 -20.256   7.723  0.00  0.00    +0.142 A 
ATOM      9  N   LIG    1       31.910 -21.002   8.457  0.00  0.00    -0.346 N 
ATOM     10  H   LIG    1       32.911 -20.870   8.434  0.00  0.00    +0.167 HD
ATOM     11  C   LIG    1       31.224 -21.922   9.207  0.00  0.00    +0.085 A 
ATOM     12  N   LIG    1       31.384 -19.265   6.894  0.00  0.00    -0.218 NA
ATOM     13  C   LIG    1       30.315 -18.700   6.310  0.00  0.00    +0.224 A 
ATOM     14  C   LIG    1       29.879 -21.760   8.945  0.00  0.00    +0.031 A 
ATOM     15  N   LIG    1       29.019 -19.020   6.474  0.00  0.00    -0.235 NA
ENDBRANCH   4   6
BRANCH   1  18
ATOM     16  N   LIG    1       24.826 -23.850   5.956  0.00  0.00    -0.176 NA
ATOM     17  C   LIG    1       24.705 -22.644   5.091  0.00  0.00    +0.141 C 
ATOM     18  C   LIG    1       24.205 -21.825   6.330  0.00  0.00    +0.105 C 
ATOM     19  C   LIG    1       23.861 -23.231   6.907  0.00  0.00    +0.141 C 
BRANCH  16  20
ATOM     20  S   LIG    1       24.867 -25.450   5.448  0.00  0.00    +0.032 S 
ATOM     21  O   LIG    1       23.616 -26.056   5.848  0.00  0.00    -0.158 OA
ATOM     22  O   LIG    1       25.310 -25.454   4.072  0.00  0.00    -0.158 OA
BRANCH  20  24
ATOM     23  C   LIG    1       25.798 -27.367   7.174  0.00  0.00    +0.030 C 
ATOM     24  C   LIG    1       26.182 -26.075   6.487  0.00  0.00    +0.182 C 
ENDBRANCH  20  24
ENDBRANCH  16  20
BRANCH  18  25
ATOM     25  C   LIG    1       23.043 -20.884   6.039  0.00  0.00    +0.151 C 
BRANCH  25  26
ATOM     26  C   LIG    1       23.325 -20.017   4.878  0.00  0.00    +0.065 C 
ATOM     27  N   LIG    1       23.561 -19.296   4.005  0.00  0.00    -0.197 NA
ENDBRANCH  25  26
ENDBRANCH  18  25
ENDBRANCH   1  18
TORSDOF 6
ENDMDL
MODEL 3
REMARK VINA RESULT:      -8.4      1.520      1.875
REMARK  Name = *****
REMARK                            x       y       z     vdW  Elec       q    Type
REMARK                         _______ _______ _______ _____ _____    ______ ____
ROOT
ATOM      1  N   LIG    1       25.139 -21.864   7.089  0.00  0.00    -0.261 N 
ATOM      2  N   LIG    1       24.845 -21.222   8.240  0.00  0.00    -0.178 NA
ATOM      3  C   LIG    1       26.027 -20.774   8.672  0.00  0.00    +0.144 A 
ATOM      4  C   LIG    1       27.085 -21.093   7.800  0.00  0.00    +0.038 A 
ATOM      5  C   LIG    1       26.469 -21.777   6.776  0.00  0.00    +0.119 A 
ENDROOT
BRANCH   4   6
ATOM      6  C   LIG    1       28.507 -20.853   7.845  0.00  0.00    +0.086 A 
ATOM      7  C   LIG    1       29.142 -19.937   7.003  0.00  0.00    +0.045 A 
ATOM      8  C   LIG    1       30.516 -19.826   7.171  0.00  0.00    +0.142 A 
ATOM      9  N   LIG    1       30.984 -18.900   6.280  0.00  0.00    -0.346 N 
ATOM     10  H   LIG    1       31.955 -18.634   6.206  0.00  0.00    +0.167 HD
ATOM     11  C   LIG    1       29.945 -18.415   5.529  0.00  0.00    +0.085 A 
ATOM     12  N   LIG    1       31.284 -20.492   8.044  0.00  0.00    -0.218 NA
ATOM     13  C   LIG    1       30.563 -21.344   8.791  0.00  0.00    +0.224 A 
ATOM     14  C   LIG    1       28.791 -19.045   5.949  0.00  0.00    +0.031 A 
ATOM     15  N   LIG    1       29.237 -21.568   8.740  0.00  0.00    -0.235 NA
ENDBRANCH   4   6
BRANCH   1  18
ATOM     16  N   LIG    1       24.863 -24.551   6.007  0.00  0.00    -0.176 NA
ATOM     17  C   LIG    1       24.750 -23.351   5.133  0.00  0.00    +0.141 C 
ATOM     18  C   LIG    1       24.113 -22.560   6.326  0.00  0.00    +0.105 C 
ATOM     19  C   LIG    1       23.796 -23.983   6.877  0.00  0.00    +0.141 C 
BRANCH  16  20
ATOM     20  S   LIG    1       25.024 -26.146   5.507  0.00  0.00    +0.032 S 
ATOM     21  O   LIG    1       23.699 -26.725   5.496  0.00  0.00    -0.158 OA
ATOM     22  O   LIG    1       25.865 -26.145   4.330  0.00  0.00    -0.158 OA
BRANCH  20  24
ATOM     23  C   LIG    1       25.445 -28.181   7.296  0.00  0.00    +0.030 C 
ATOM     24  C   LIG    1       25.948 -26.814   6.886  0.00  0.00    +0.182 C 
ENDBRANCH  20  24
ENDBRANCH  16  20
BRANCH  18  25
ATOM     25  C   LIG    1       22.932 -21.679   5.942  0.00  0.00    +0.151 C 
BRANCH  25  26
ATOM     26  C   LIG    1       23.333 -20.616   4.999  0.00  0.00    +0.065 C 
ATOM     27  N   LIG    1       23.700 -19.786   4.283  0.00  0.00    -0.197 NA
ENDBRANCH  25  26
ENDBRANCH  18  25
ENDBRANCH   1  18
TORSDOF 6
ENDMDL
MODEL 4
REMARK VINA RESULT:      -8.4      2.355      3.651
REMARK  Name = *****
REMARK                            x       y       z     vdW  Elec       q    Type
REMARK                         _______ _______ _______ _____ _____    ______ ____
ROOT
ATOM      1  N   LIG    1       26.632 -21.351   6.578  0.00  0.00    -0.261 N 
ATOM      2  N   LIG    1       26.946 -20.349   5.729  0.00  0.00    -0.178 NA
ATOM      3  C   LIG    1       28.156 -19.949   6.132  0.00  0.00    +0.144 A 
ATOM      4  C   LIG    1       28.645 -20.699   7.219  0.00  0.00    +0.038 A 
ATOM      5  C   LIG    1       27.643 -21.612   7.464  0.00  0.00    +0.119 A 
ENDROOT
BRANCH   4   6
ATOM      6  C   LIG    1       29.858 -20.630   7.997  0.00  0.00    +0.086 A 
ATOM      7  C   LIG    1       30.394 -19.422   8.448  0.00  0.00    +0.045 A 
ATOM      8  C   LIG    1       31.568 -19.528   9.182  0.00  0.00    +0.142 A 
ATOM      9  N   LIG    1       31.962 -18.270   9.546  0.00  0.00    -0.346 N 
ATOM     10  H   LIG    1       32.789 -18.078  10.092  0.00  0.00    +0.167 HD
ATOM     11  C   LIG    1       31.076 -17.348   9.054  0.00  0.00    +0.085 A 
ATOM     12  N   LIG    1       32.229 -20.649   9.500  0.00  0.00    -0.218 NA
ATOM     13  C   LIG    1       31.621 -21.741   9.007  0.00  0.00    +0.224 A 
ATOM     14  C   LIG    1       30.096 -18.031   8.364  0.00  0.00    +0.031 A 
ATOM     15  N   LIG    1       30.493 -21.798   8.276  0.00  0.00    -0.235 NA
ENDBRANCH   4   6
BRANCH   1  18
ATOM     16  N   LIG    1       24.002 -20.641   5.556  0.00  0.00    -0.176 NA
ATOM     17  C   LIG    1       24.192 -21.064   6.971  0.00  0.00    +0.141 C 
ATOM     18  C   LIG    1       25.343 -22.024   6.513  0.00  0.00    +0.105 C 
ATOM     19  C   LIG    1       24.657 -21.906   5.119  0.00  0.00    +0.141 C 
BRANCH  16  20
ATOM     20  S   LIG    1       22.633 -19.926   4.897  0.00  0.00    +0.032 S 
ATOM     21  O   LIG    1       21.671 -20.981   4.664  0.00  0.00    -0.158 OA
ATOM     22  O   LIG    1       22.317 -18.772   5.709  0.00  0.00    -0.158 OA
BRANCH  20  24
ATOM     23  C   LIG    1       24.634 -18.689   3.487  0.00  0.00    +0.030 C 
ATOM     24  C   LIG    1       23.293 -19.374   3.328  0.00  0.00    +0.182 C 
ENDBRANCH  20  24
ENDBRANCH  16  20
BRANCH  18  25
ATOM     25  C   LIG    1       25.331 -23.391   7.186  0.00  0.00    +0.151 C 
BRANCH  25  26
ATOM     26  C   LIG    1       24.124 -24.161   6.827  0.00  0.00    +0.065 C 
ATOM     27  N   LIG    1       23.156 -24.716   6.523  0.00  0.00    -0.197 NA
ENDBRANCH  25  26
ENDBRANCH  18  25
ENDBRANCH   1  18
TORSDOF 6
ENDMDL
MODEL 5
REMARK VINA RESULT:      -7.9      4.678      8.406
REMARK  Name = *****
REMARK                            x       y       z     vdW  Elec       q    Type
REMARK                         _______ _______ _______ _____ _____    ______ ____
ROOT
ATOM      1  N   LIG    1       29.883 -19.416   7.251  0.00  0.00    -0.261 N 
ATOM      2  N   LIG    1       30.011 -18.598   6.184  0.00  0.00    -0.178 NA
ATOM      3  C   LIG    1       28.902 -18.818   5.472  0.00  0.00    +0.144 A 
ATOM      4  C   LIG    1       28.040 -19.751   6.078  0.00  0.00    +0.038 A 
ATOM      5  C   LIG    1       28.696 -20.098   7.238  0.00  0.00    +0.119 A 
ENDROOT
BRANCH   4   6
ATOM      6  C   LIG    1       26.770 -20.317   5.690  0.00  0.00    +0.086 A 
ATOM      7  C   LIG    1       26.224 -21.439   6.318  0.00  0.00    +0.045 A 
ATOM      8  C   LIG    1       24.996 -21.859   5.824  0.00  0.00    +0.142 A 
ATOM      9  N   LIG    1       24.601 -22.958   6.536  0.00  0.00    -0.346 N 
ATOM     10  H   LIG    1       23.735 -23.450   6.371  0.00  0.00    +0.167 HD
ATOM     11  C   LIG    1       25.551 -23.267   7.474  0.00  0.00    +0.085 A 
ATOM     12  N   LIG    1       24.290 -21.309   4.827  0.00  0.00    -0.218 NA
ATOM     13  C   LIG    1       24.919 -20.245   4.301  0.00  0.00    +0.224 A 
ATOM     14  C   LIG    1       26.572 -22.348   7.358  0.00  0.00    +0.031 A 
ATOM     15  N   LIG    1       26.106 -19.726   4.663  0.00  0.00    -0.235 NA
ENDBRANCH   4   6
BRANCH   1  18
ATOM     16  N   LIG    1       31.045 -17.593   9.199  0.00  0.00    -0.176 NA
ATOM     17  C   LIG    1       31.891 -18.285   8.188  0.00  0.00    +0.141 C 
ATOM     18  C   LIG    1       30.933 -19.522   8.254  0.00  0.00    +0.105 C 
ATOM     19  C   LIG    1       30.528 -18.921   9.634  0.00  0.00    +0.141 C 
BRANCH  16  20
ATOM     20  S   LIG    1       31.500 -16.310  10.181  0.00  0.00    +0.032 S 
ATOM     21  O   LIG    1       32.176 -15.348   9.339  0.00  0.00    -0.158 OA
ATOM     22  O   LIG    1       30.349 -15.949  10.979  0.00  0.00    -0.158 OA
BRANCH  20  24
ATOM     23  C   LIG    1       32.632 -16.641  12.657  0.00  0.00    +0.030 C 
ATOM     24  C   LIG    1       32.702 -17.126  11.226  0.00  0.00    +0.182 C 
ENDBRANCH  20  24
ENDBRANCH  16  20
BRANCH  18  25
ATOM     25  C   LIG    1       31.641 -20.871   8.259  0.00  0.00    +0.151 C 
BRANCH  25  26
ATOM     26  C   LIG    1       31.128 -21.749   9.329  0.00  0.00    +0.065 C 
ATOM     27  N   LIG    1       30.708 -22.389  10.196  0.00  0.00    -0.197 NA
ENDBRANCH  25  26
ENDBRANCH  18  25
ENDBRANCH   1  18
TORSDOF 6
ENDMDL
MODEL 6
REMARK VINA RESULT:      -7.7      3.395      7.554
REMARK  Name = *****
REMARK                            x       y       z     vdW  Elec       q    Type
REMARK                         _______ _______ _______ _____ _____    ______ ____
ROOT
ATOM      1  N   LIG    1       24.775 -23.764   6.176  0.00  0.00    -0.261 N 
ATOM      2  N   LIG    1       25.079 -23.935   4.871  0.00  0.00    -0.178 NA
ATOM      3  C   LIG    1       25.122 -25.262   4.720  0.00  0.00    +0.144 A 
ATOM      4  C   LIG    1       24.822 -25.958   5.906  0.00  0.00    +0.038 A 
ATOM      5  C   LIG    1       24.579 -24.957   6.820  0.00  0.00    +0.119 A 
ENDROOT
BRANCH   4   6
ATOM      6  C   LIG    1       24.766 -27.361   6.239  0.00  0.00    +0.086 A 
ATOM      7  C   LIG    1       25.450 -27.902   7.331  0.00  0.00    +0.045 A 
ATOM      8  C   LIG    1       25.293 -29.270   7.512  0.00  0.00    +0.142 A 
ATOM      9  N   LIG    1       26.019 -29.643   8.610  0.00  0.00    -0.346 N 
ATOM     10  H   LIG    1       26.067 -30.590   8.955  0.00  0.00    +0.167 HD
ATOM     11  C   LIG    1       26.652 -28.548   9.138  0.00  0.00    +0.085 A 
ATOM     12  N   LIG    1       24.566 -30.111   6.765  0.00  0.00    -0.218 NA
ATOM     13  C   LIG    1       23.964 -29.477   5.746  0.00  0.00    +0.224 A 
ATOM     14  C   LIG    1       26.324 -27.456   8.363  0.00  0.00    +0.031 A 
ATOM     15  N   LIG    1       24.025 -28.168   5.437  0.00  0.00    -0.235 NA
ENDBRANCH   4   6
BRANCH   1  18
ATOM     16  N   LIG    1       26.728 -21.810   7.089  0.00  0.00    -0.176 NA
ATOM     17  C   LIG    1       25.662 -22.318   7.995  0.00  0.00    +0.141 C 
ATOM     18  C   LIG    1       24.696 -22.437   6.768  0.00  0.00    +0.105 C 
ATOM     19  C   LIG    1       25.673 -21.412   6.116  0.00  0.00    +0.141 C 
BRANCH  16  20
ATOM     20  S   LIG    1       28.086 -20.926   7.531  0.00  0.00    +0.032 S 
ATOM     21  O   LIG    1       27.668 -19.979   8.541  0.00  0.00    -0.158 OA
ATOM     22  O   LIG    1       29.155 -21.870   7.767  0.00  0.00    -0.158 OA
BRANCH  20  24
ATOM     23  C   LIG    1       29.400 -18.930   6.185  0.00  0.00    +0.030 C 
ATOM     24  C   LIG    1       28.403 -20.054   6.001  0.00  0.00    +0.182 C 
ENDBRANCH  20  24
ENDBRANCH  16  20
BRANCH  18  25
ATOM     25  C   LIG    1       23.270 -21.971   7.037  0.00  0.00    +0.151 C 
BRANCH  25  26
ATOM     26  C   LIG    1       22.888 -20.856   6.150  0.00  0.00    +0.065 C 
ATOM     27  N   LIG    1       22.539 -20.009   5.445  0.00  0.00    -0.197 NA
ENDBRANCH  25  26
ENDBRANCH  18  25
ENDBRANCH   1  18
TORSDOF 6
ENDMDL
MODEL 7
REMARK VINA RESULT:      -7.7      4.052      7.915
REMARK  Name = *****
REMARK                            x       y       z     vdW  Elec       q    Type
REMARK                         _______ _______ _______ _____ _____    ______ ____
ROOT
ATOM      1  N   LIG    1       25.023 -24.462   6.239  0.00  0.00    -0.261 N 
ATOM      2  N   LIG    1       25.186 -24.693   4.919  0.00  0.00    -0.178 NA
ATOM      3  C   LIG    1       25.142 -26.025   4.815  0.00  0.00    +0.144 A 
ATOM      4  C   LIG    1       24.925 -26.662   6.051  0.00  0.00    +0.038 A 
ATOM      5  C   LIG    1       24.828 -25.619   6.945  0.00  0.00    +0.119 A 
ENDROOT
BRANCH   4   6
ATOM      6  C   LIG    1       24.827 -28.048   6.441  0.00  0.00    +0.086 A 
ATOM      7  C   LIG    1       25.463 -28.556   7.577  0.00  0.00    +0.045 A 
ATOM      8  C   LIG    1       25.272 -29.911   7.812  0.00  0.00    +0.142 A 
ATOM      9  N   LIG    1       25.953 -30.251   8.948  0.00  0.00    -0.346 N 
ATOM     10  H   LIG    1       25.968 -31.183   9.334  0.00  0.00    +0.167 HD
ATOM     11  C   LIG    1       26.592 -29.147   9.450  0.00  0.00    +0.085 A 
ATOM     12  N   LIG    1       24.551 -30.769   7.077  0.00  0.00    -0.218 NA
ATOM     13  C   LIG    1       23.996 -30.167   6.012  0.00  0.00    +0.224 A 
ATOM     14  C   LIG    1       26.313 -28.083   8.618  0.00  0.00    +0.031 A 
ATOM     15  N   LIG    1       24.096 -28.875   5.650  0.00  0.00    -0.235 NA
ENDBRANCH   4   6
BRANCH   1  18
ATOM     16  N   LIG    1       23.617 -21.975   5.684  0.00  0.00    -0.176 NA
ATOM     17  C   LIG    1       25.104 -22.051   5.634  0.00  0.00    +0.141 C 
ATOM     18  C   LIG    1       25.073 -23.113   6.785  0.00  0.00    +0.105 C 
ATOM     19  C   LIG    1       23.664 -22.513   7.072  0.00  0.00    +0.141 C 
BRANCH  16  20
ATOM     20  S   LIG    1       22.656 -20.724   5.111  0.00  0.00    +0.032 S 
ATOM     21  O   LIG    1       21.388 -21.303   4.725  0.00  0.00    -0.158 OA
ATOM     22  O   LIG    1       22.740 -19.644   6.068  0.00  0.00    -0.158 OA
BRANCH  20  24
ATOM     23  C   LIG    1       24.068 -18.847   3.696  0.00  0.00    +0.030 C 
ATOM     24  C   LIG    1       23.570 -20.275   3.640  0.00  0.00    +0.182 C 
ENDBRANCH  20  24
ENDBRANCH  16  20
BRANCH  18  25
ATOM     25  C   LIG    1       26.146 -22.923   7.850  0.00  0.00    +0.151 C 
BRANCH  25  26
ATOM     26  C   LIG    1       25.956 -21.661   8.591  0.00  0.00    +0.065 C 
ATOM     27  N   LIG    1       25.863 -20.673   9.185  0.00  0.00    -0.197 NA
ENDBRANCH  25  26
ENDBRANCH  18  25
ENDBRANCH   1  18
TORSDOF 6
ENDMDL
MODEL 8
REMARK VINA RESULT:      -7.1      4.619      8.336
REMARK  Name = *****
REMARK                            x       y       z     vdW  Elec       q    Type
REMARK                         _______ _______ _______ _____ _____    ______ ____
ROOT
ATOM      1  N   LIG    1       29.247 -19.926   7.212  0.00  0.00    -0.261 N 
ATOM      2  N   LIG    1       29.252 -19.354   5.989  0.00  0.00    -0.178 NA
ATOM      3  C   LIG    1       28.013 -19.556   5.531  0.00  0.00    +0.144 A 
ATOM      4  C   LIG    1       27.192 -20.230   6.455  0.00  0.00    +0.038 A 
ATOM      5  C   LIG    1       28.017 -20.431   7.540  0.00  0.00    +0.119 A 
ENDROOT
BRANCH   4   6
ATOM      6  C   LIG    1       25.823 -20.682   6.411  0.00  0.00    +0.086 A 
ATOM      7  C   LIG    1       24.966 -20.383   5.349  0.00  0.00    +0.045 A 
ATOM      8  C   LIG    1       23.679 -20.892   5.460  0.00  0.00    +0.142 A 
ATOM      9  N   LIG    1       22.971 -20.514   4.352  0.00  0.00    -0.346 N 
ATOM     10  H   LIG    1       22.006 -20.763   4.192  0.00  0.00    +0.167 HD
ATOM     11  C   LIG    1       23.768 -19.761   3.529  0.00  0.00    +0.085 A 
ATOM     12  N   LIG    1       23.180 -21.629   6.461  0.00  0.00    -0.218 NA
ATOM     13  C   LIG    1       24.093 -21.843   7.422  0.00  0.00    +0.224 A 
ATOM     14  C   LIG    1       25.009 -19.657   4.123  0.00  0.00    +0.031 A 
ATOM     15  N   LIG    1       25.368 -21.413   7.461  0.00  0.00    -0.235 NA
ENDBRANCH   4   6
BRANCH   1  18
ATOM     16  N   LIG    1       30.778 -17.969   8.727  0.00  0.00    -0.176 NA
ATOM     17  C   LIG    1       31.417 -18.799   7.669  0.00  0.00    +0.141 C 
ATOM     18  C   LIG    1       30.450 -19.978   8.030  0.00  0.00    +0.105 C 
ATOM     19  C   LIG    1       30.307 -19.220   9.384  0.00  0.00    +0.141 C 
BRANCH  16  20
ATOM     20  S   LIG    1       31.431 -16.614   9.473  0.00  0.00    +0.032 S 
ATOM     21  O   LIG    1       32.610 -16.241   8.722  0.00  0.00    -0.158 OA
ATOM     22  O   LIG    1       30.347 -15.684   9.701  0.00  0.00    -0.158 OA
BRANCH  20  24
ATOM     23  C   LIG    1       33.025 -16.524  11.702  0.00  0.00    +0.030 C 
ATOM     24  C   LIG    1       31.929 -17.327  11.036  0.00  0.00    +0.182 C 
ENDBRANCH  20  24
ENDBRANCH  16  20
BRANCH  18  25
ATOM     25  C   LIG    1       31.111 -21.350   8.062  0.00  0.00    +0.151 C 
BRANCH  25  26
ATOM     26  C   LIG    1       30.916 -22.015   9.365  0.00  0.00    +0.065 C 
ATOM     27  N   LIG    1       30.707 -22.537  10.375  0.00  0.00    -0.197 NA
ENDBRANCH  25  26
ENDBRANCH  18  25
ENDBRANCH   1  18
TORSDOF 6
ENDMDL
MODEL 9
REMARK VINA RESULT:      -7.0      3.761      7.895
REMARK  Name = *****
REMARK                            x       y       z     vdW  Elec       q    Type
REMARK                         _______ _______ _______ _____ _____    ______ ____
ROOT
ATOM      1  N   LIG    1       25.383 -24.072   6.378  0.00  0.00    -0.261 N 
ATOM      2  N   LIG    1       25.187 -24.555   5.132  0.00  0.00    -0.178 NA
ATOM      3  C   LIG    1       25.248 -25.881   5.286  0.00  0.00    +0.144 A 
ATOM      4  C   LIG    1       25.454 -26.267   6.624  0.00  0.00    +0.038 A 
ATOM      5  C   LIG    1       25.512 -25.071   7.304  0.00  0.00    +0.119 A 
ENDROOT
BRANCH   4   6
ATOM      6  C   LIG    1       25.609 -27.549   7.267  0.00  0.00    +0.086 A 
ATOM      7  C   LIG    1       24.992 -28.709   6.791  0.00  0.00    +0.045 A 
ATOM      8  C   LIG    1       25.239 -29.861   7.526  0.00  0.00    +0.142 A 
ATOM      9  N   LIG    1       24.570 -30.898   6.937  0.00  0.00    -0.346 N 
ATOM     10  H   LIG    1       24.593 -31.846   7.281  0.00  0.00    +0.167 HD
ATOM     11  C   LIG    1       23.884 -30.442   5.841  0.00  0.00    +0.085 A 
ATOM     12  N   LIG    1       25.997 -29.976   8.625  0.00  0.00    -0.218 NA
ATOM     13  C   LIG    1       26.529 -28.797   8.988  0.00  0.00    +0.224 A 
ATOM     14  C   LIG    1       24.121 -29.088   5.729  0.00  0.00    +0.031 A 
ATOM     15  N   LIG    1       26.376 -27.603   8.387  0.00  0.00    -0.235 NA
ENDBRANCH   4   6
BRANCH   1  18
ATOM     16  N   LIG    1       23.750 -21.779   5.640  0.00  0.00    -0.176 NA
ATOM     17  C   LIG    1       25.202 -21.829   5.316  0.00  0.00    +0.141 C 
ATOM     18  C   LIG    1       25.453 -22.640   6.633  0.00  0.00    +0.105 C 
ATOM     19  C   LIG    1       24.089 -22.026   7.069  0.00  0.00    +0.141 C 
BRANCH  16  20
ATOM     20  S   LIG    1       22.623 -20.690   5.036  0.00  0.00    +0.032 S 
ATOM     21  O   LIG    1       21.429 -21.443   4.722  0.00  0.00    -0.158 OA
ATOM     22  O   LIG    1       22.595 -19.558   5.935  0.00  0.00    -0.158 OA
BRANCH  20  24
ATOM     23  C   LIG    1       24.057 -18.835   3.615  0.00  0.00    +0.030 C 
ATOM     24  C   LIG    1       23.435 -20.211   3.516  0.00  0.00    +0.182 C 
ENDBRANCH  20  24
ENDBRANCH  16  20
BRANCH  18  25
ATOM     25  C   LIG    1       26.692 -22.216   7.410  0.00  0.00    +0.151 C 
BRANCH  25  26
ATOM     26  C   LIG    1       26.361 -21.246   8.472  0.00  0.00    +0.065 C 
ATOM     27  N   LIG    1       26.142 -20.510   9.336  0.00  0.00    -0.197 NA
ENDBRANCH  25  26
ENDBRANCH  18  25
ENDBRANCH   1  18
TORSDOF 6
ENDMDL
