MODEL 1
REMARK VINA RESULT:      -8.2      0.000      0.000
REMARK  Name = *****
REMARK                            x       y       z     vdW  Elec       q    Type
REMARK                         _______ _______ _______ _____ _____    ______ ____
ROOT
ATOM      1  C   LIG    1       25.519 -23.723   5.913  0.00  0.00    +0.241 C 
ATOM      2  N   LIG    1       24.617 -23.249   4.991  0.00  0.00    -0.281 N 
ATOM      3  H   LIG    1       24.175 -23.926   4.367  0.00  0.00    +0.155 HD
ATOM      4  O   LIG    1       26.097 -23.083   6.781  0.00  0.00    -0.271 OA
ENDROOT
BRANCH   2   5
ATOM      5  C   LIG    1       24.187 -21.911   4.832  0.00  0.00    +0.048 A 
ATOM      6  C   LIG    1       23.262 -21.369   5.749  0.00  0.00    +0.080 A 
ATOM      7  C   LIG    1       22.777 -20.061   5.574  0.00  0.00    +0.017 A 
ATOM      8  C   LIG    1       23.234 -19.282   4.513  0.00  0.00    +0.001 A 
ATOM      9  C   LIG    1       24.164 -19.805   3.619  0.00  0.00    +0.002 A 
ATOM     10  C   LIG    1       24.637 -21.110   3.778  0.00  0.00    +0.024 A 
BRANCH   6  11
ATOM     11  C   LIG    1       22.810 -22.170   6.911  0.00  0.00    +0.339 C 
ATOM     12  O   LIG    1       22.985 -21.804   8.075  0.00  0.00    -0.245 OA
BRANCH  11  13
ATOM     13  O   LIG    1       22.121 -23.280   6.593  0.00  0.00    -0.477 OA
ATOM     14  H   LIG    1       21.153 -23.163   6.537  0.00  0.00    +0.295 HD
ENDBRANCH  11  13
ENDBRANCH   6  11
ENDBRANCH   2   5
BRANCH   1  16
ATOM     15  C   LIG    1       24.910 -25.998   6.471  0.00  0.00    +0.013 C 
ATOM     16  C   LIG    1       25.717 -25.187   5.778  0.00  0.00    +0.068 C 
BRANCH  15  20
ATOM     17  C   LIG    1       25.255 -30.252   6.174  0.00  0.00    +0.162 A 
ATOM     18  C   LIG    1       25.216 -29.659   7.448  0.00  0.00    +0.162 A 
ATOM     19  C   LIG    1       25.079 -28.264   7.558  0.00  0.00    +0.057 A 
ATOM     20  C   LIG    1       24.957 -27.459   6.419  0.00  0.00    -0.021 A 
ATOM     21  C   LIG    1       24.970 -28.063   5.164  0.00  0.00    +0.012 A 
ATOM     22  C   LIG    1       25.121 -29.438   5.046  0.00  0.00    +0.050 A 
BRANCH  17  24
ATOM     23  C   LIG    1       25.886 -32.012   4.741  0.00  0.00    +0.277 C 
ATOM     24  O   LIG    1       25.490 -31.599   6.048  0.00  0.00    -0.491 OA
ENDBRANCH  17  24
BRANCH  18  25
ATOM     25  O   LIG    1       25.307 -30.301   8.657  0.00  0.00    -0.491 OA
ATOM     26  C   LIG    1       26.609 -30.351   9.230  0.00  0.00    +0.277 C 
ENDBRANCH  18  25
ENDBRANCH  15  20
ENDBRANCH   1  16
TORSDOF 7
ENDMDL
MODEL 2
REMARK VINA RESULT:      -8.2      5.970      9.386
REMARK  Name = *****
REMARK                            x       y       z     vdW  Elec       q    Type
REMARK                         _______ _______ _______ _____ _____    ______ ____
ROOT
ATOM      1  C   LIG    1       26.800 -20.729   5.900  0.00  0.00    +0.241 C 
ATOM      2  N   LIG    1       26.576 -21.801   6.731  0.00  0.00    -0.281 N 
ATOM      3  H   LIG    1       27.195 -21.915   7.535  0.00  0.00    +0.155 HD
ATOM      4  O   LIG    1       26.132 -20.390   4.934  0.00  0.00    -0.271 OA
ENDROOT
BRANCH   2   5
ATOM      5  C   LIG    1       25.540 -22.757   6.625  0.00  0.00    +0.048 A 
ATOM      6  C   LIG    1       24.210 -22.368   6.890  0.00  0.00    +0.080 A 
ATOM      7  C   LIG    1       23.174 -23.317   6.848  0.00  0.00    +0.017 A 
ATOM      8  C   LIG    1       23.452 -24.641   6.511  0.00  0.00    +0.001 A 
ATOM      9  C   LIG    1       24.759 -25.024   6.226  0.00  0.00    +0.002 A 
ATOM     10  C   LIG    1       25.795 -24.089   6.283  0.00  0.00    +0.024 A 
BRANCH   6  11
ATOM     11  C   LIG    1       23.897 -20.953   7.198  0.00  0.00    +0.339 C 
ATOM     12  O   LIG    1       24.299 -20.394   8.221  0.00  0.00    -0.245 OA
BRANCH  11  13
ATOM     13  O   LIG    1       23.217 -20.306   6.234  0.00  0.00    -0.477 OA
ATOM     14  H   LIG    1       23.599 -19.448   5.965  0.00  0.00    +0.295 HD
ENDBRANCH  11  13
ENDBRANCH   6  11
ENDBRANCH   2   5
BRANCH   1  16
ATOM     15  C   LIG    1       28.340 -20.000   7.619  0.00  0.00    +0.013 C 
ATOM     16  C   LIG    1       27.983 -19.944   6.331  0.00  0.00    +0.068 C 
BRANCH  15  20
ATOM     17  C   LIG    1       31.755 -17.868   9.067  0.00  0.00    +0.162 A 
ATOM     18  C   LIG    1       30.543 -17.771   9.771  0.00  0.00    +0.162 A 
ATOM     19  C   LIG    1       29.420 -18.485   9.318  0.00  0.00    +0.057 A 
ATOM     20  C   LIG    1       29.498 -19.312   8.190  0.00  0.00    -0.021 A 
ATOM     21  C   LIG    1       30.713 -19.420   7.518  0.00  0.00    +0.012 A 
ATOM     22  C   LIG    1       31.822 -18.705   7.950  0.00  0.00    +0.050 A 
BRANCH  17  24
ATOM     23  C   LIG    1       32.623 -15.692   9.321  0.00  0.00    +0.277 C 
ATOM     24  O   LIG    1       32.831 -17.099   9.437  0.00  0.00    -0.491 OA
ENDBRANCH  17  24
BRANCH  18  25
ATOM     25  O   LIG    1       30.303 -17.022  10.896  0.00  0.00    -0.491 OA
ATOM     26  C   LIG    1       31.104 -17.342  12.028  0.00  0.00    +0.277 C 
ENDBRANCH  18  25
ENDBRANCH  15  20
ENDBRANCH   1  16
TORSDOF 7
ENDMDL
MODEL 3
REMARK VINA RESULT:      -8.2      5.393      8.604
REMARK  Name = *****
REMARK                            x       y       z     vdW  Elec       q    Type
REMARK                         _______ _______ _______ _____ _____    ______ ____
ROOT
ATOM      1  C   LIG    1       26.431 -20.160   5.248  0.00  0.00    +0.241 C 
ATOM      2  N   LIG    1       25.663 -20.704   6.249  0.00  0.00    -0.281 N 
ATOM      3  H   LIG    1       26.032 -20.675   7.201  0.00  0.00    +0.155 HD
ATOM      4  O   LIG    1       26.135 -20.042   4.068  0.00  0.00    -0.271 OA
ENDROOT
BRANCH   2   5
ATOM      5  C   LIG    1       24.373 -21.270   6.118  0.00  0.00    +0.048 A 
ATOM      6  C   LIG    1       24.132 -22.565   6.622  0.00  0.00    +0.080 A 
ATOM      7  C   LIG    1       22.874 -23.169   6.450  0.00  0.00    +0.017 A 
ATOM      8  C   LIG    1       21.849 -22.476   5.808  0.00  0.00    +0.001 A 
ATOM      9  C   LIG    1       22.075 -21.189   5.329  0.00  0.00    +0.002 A 
ATOM     10  C   LIG    1       23.328 -20.590   5.483  0.00  0.00    +0.024 A 
BRANCH   6  11
ATOM     11  C   LIG    1       25.200 -23.289   7.352  0.00  0.00    +0.339 C 
ATOM     12  O   LIG    1       25.588 -24.410   7.015  0.00  0.00    -0.245 OA
BRANCH  11  13
ATOM     13  O   LIG    1       25.768 -22.592   8.352  0.00  0.00    -0.477 OA
ATOM     14  H   LIG    1       26.647 -22.219   8.148  0.00  0.00    +0.295 HD
ENDBRANCH  11  13
ENDBRANCH   6  11
ENDBRANCH   2   5
BRANCH   1  16
ATOM     15  C   LIG    1       28.020 -19.887   7.054  0.00  0.00    +0.013 C 
ATOM     16  C   LIG    1       27.728 -19.661   5.768  0.00  0.00    +0.068 C 
BRANCH  15  20
ATOM     17  C   LIG    1       31.531 -18.598   9.131  0.00  0.00    +0.162 A 
ATOM     18  C   LIG    1       31.333 -19.973   8.916  0.00  0.00    +0.162 A 
ATOM     19  C   LIG    1       30.195 -20.407   8.214  0.00  0.00    +0.057 A 
ATOM     20  C   LIG    1       29.268 -19.489   7.705  0.00  0.00    -0.021 A 
ATOM     21  C   LIG    1       29.490 -18.128   7.902  0.00  0.00    +0.012 A 
ATOM     22  C   LIG    1       30.605 -17.693   8.608  0.00  0.00    +0.050 A 
BRANCH  17  24
ATOM     23  C   LIG    1       32.631 -16.752  10.098  0.00  0.00    +0.277 C 
ATOM     24  O   LIG    1       32.583 -18.165   9.900  0.00  0.00    -0.491 OA
ENDBRANCH  17  24
BRANCH  18  25
ATOM     25  O   LIG    1       32.147 -20.996   9.332  0.00  0.00    -0.491 OA
ATOM     26  C   LIG    1       31.624 -22.308   9.155  0.00  0.00    +0.277 C 
ENDBRANCH  18  25
ENDBRANCH  15  20
ENDBRANCH   1  16
TORSDOF 7
ENDMDL
MODEL 4
REMARK VINA RESULT:      -8.2      5.474      8.505
REMARK  Name = *****
REMARK                            x       y       z     vdW  Elec       q    Type
REMARK                         _______ _______ _______ _____ _____    ______ ____
ROOT
ATOM      1  C   LIG    1       26.112 -21.802   6.666  0.00  0.00    +0.241 C 
ATOM      2  N   LIG    1       25.436 -20.670   6.278  0.00  0.00    -0.281 N 
ATOM      3  H   LIG    1       25.868 -19.767   6.476  0.00  0.00    +0.155 HD
ATOM      4  O   LIG    1       25.791 -22.964   6.460  0.00  0.00    -0.271 OA
ENDROOT
BRANCH   2   5
ATOM      5  C   LIG    1       24.206 -20.612   5.583  0.00  0.00    +0.048 A 
ATOM      6  C   LIG    1       24.122 -19.864   4.389  0.00  0.00    +0.080 A 
ATOM      7  C   LIG    1       22.894 -19.744   3.714  0.00  0.00    +0.017 A 
ATOM      8  C   LIG    1       21.761 -20.392   4.205  0.00  0.00    +0.001 A 
ATOM      9  C   LIG    1       21.845 -21.150   5.369  0.00  0.00    +0.002 A 
ATOM     10  C   LIG    1       23.058 -21.258   6.053  0.00  0.00    +0.024 A 
BRANCH   6  11
ATOM     11  C   LIG    1       25.332 -19.215   3.832  0.00  0.00    +0.339 C 
ATOM     12  O   LIG    1       25.338 -18.041   3.455  0.00  0.00    -0.245 OA
BRANCH  11  13
ATOM     13  O   LIG    1       26.438 -19.979   3.851  0.00  0.00    -0.477 OA
ATOM     14  H   LIG    1       26.966 -19.920   4.671  0.00  0.00    +0.295 HD
ENDBRANCH  11  13
ENDBRANCH   6  11
ENDBRANCH   2   5
BRANCH   1  16
ATOM     15  C   LIG    1       27.959 -20.296   7.095  0.00  0.00    +0.013 C 
ATOM     16  C   LIG    1       27.373 -21.467   7.373  0.00  0.00    +0.068 C 
BRANCH  15  20
ATOM     17  C   LIG    1       31.393 -18.749   9.123  0.00  0.00    +0.162 A 
ATOM     18  C   LIG    1       31.272 -20.139   8.951  0.00  0.00    +0.162 A 
ATOM     19  C   LIG    1       30.160 -20.657   8.266  0.00  0.00    +0.057 A 
ATOM     20  C   LIG    1       29.182 -19.809   7.731  0.00  0.00    -0.021 A 
ATOM     21  C   LIG    1       29.329 -18.432   7.885  0.00  0.00    +0.012 A 
ATOM     22  C   LIG    1       30.417 -17.913   8.574  0.00  0.00    +0.050 A 
BRANCH  17  24
ATOM     23  C   LIG    1       32.385 -16.816  10.035  0.00  0.00    +0.277 C 
ATOM     24  O   LIG    1       32.419 -18.234   9.876  0.00  0.00    -0.491 OA
ENDBRANCH  17  24
BRANCH  18  25
ATOM     25  O   LIG    1       32.142 -21.101   9.397  0.00  0.00    -0.491 OA
ATOM     26  C   LIG    1       31.745 -22.447   9.158  0.00  0.00    +0.277 C 
ENDBRANCH  18  25
ENDBRANCH  15  20
ENDBRANCH   1  16
TORSDOF 7
ENDMDL
MODEL 5
REMARK VINA RESULT:      -7.9      6.187      9.488
REMARK  Name = *****
REMARK                            x       y       z     vdW  Elec       q    Type
REMARK                         _______ _______ _______ _____ _____    ______ ____
ROOT
ATOM      1  C   LIG    1       26.870 -21.604   7.296  0.00  0.00    +0.241 C 
ATOM      2  N   LIG    1       25.993 -20.603   6.951  0.00  0.00    -0.281 N 
ATOM      3  H   LIG    1       26.263 -19.641   7.164  0.00  0.00    +0.155 HD
ATOM      4  O   LIG    1       26.756 -22.800   7.067  0.00  0.00    -0.271 OA
ENDROOT
BRANCH   2   5
ATOM      5  C   LIG    1       24.756 -20.750   6.282  0.00  0.00    +0.048 A 
ATOM      6  C   LIG    1       24.608 -20.225   4.981  0.00  0.00    +0.080 A 
ATOM      7  C   LIG    1       23.368 -20.308   4.322  0.00  0.00    +0.017 A 
ATOM      8  C   LIG    1       22.290 -20.939   4.939  0.00  0.00    +0.001 A 
ATOM      9  C   LIG    1       22.438 -21.478   6.214  0.00  0.00    +0.002 A 
ATOM     10  C   LIG    1       23.662 -21.384   6.880  0.00  0.00    +0.024 A 
BRANCH   6  11
ATOM     11  C   LIG    1       25.763 -19.600   4.295  0.00  0.00    +0.339 C 
ATOM     12  O   LIG    1       25.667 -18.541   3.671  0.00  0.00    -0.245 OA
BRANCH  11  13
ATOM     13  O   LIG    1       26.935 -20.231   4.482  0.00  0.00    -0.477 OA
ATOM     14  H   LIG    1       27.202 -20.829   3.757  0.00  0.00    +0.295 HD
ENDBRANCH  11  13
ENDBRANCH   6  11
ENDBRANCH   2   5
BRANCH   1  16
ATOM     15  C   LIG    1       28.507 -19.852   7.630  0.00  0.00    +0.013 C 
ATOM     16  C   LIG    1       28.068 -21.064   7.986  0.00  0.00    +0.068 C 
BRANCH  15  20
ATOM     17  C   LIG    1       31.875 -17.727   9.192  0.00  0.00    +0.162 A 
ATOM     18  C   LIG    1       30.665 -17.706   9.906  0.00  0.00    +0.162 A 
ATOM     19  C   LIG    1       29.558 -18.419   9.415  0.00  0.00    +0.057 A 
ATOM     20  C   LIG    1       29.650 -19.171   8.237  0.00  0.00    -0.021 A 
ATOM     21  C   LIG    1       30.863 -19.205   7.553  0.00  0.00    +0.012 A 
ATOM     22  C   LIG    1       31.956 -18.490   8.024  0.00  0.00    +0.050 A 
BRANCH  17  24
ATOM     23  C   LIG    1       32.721 -15.548   9.490  0.00  0.00    +0.277 C 
ATOM     24  O   LIG    1       32.933 -16.955   9.604  0.00  0.00    -0.491 OA
ENDBRANCH  17  24
BRANCH  18  25
ATOM     25  O   LIG    1       30.413 -17.036  11.078  0.00  0.00    -0.491 OA
ATOM     26  C   LIG    1       31.264 -17.368  12.170  0.00  0.00    +0.277 C 
ENDBRANCH  18  25
ENDBRANCH  15  20
ENDBRANCH   1  16
TORSDOF 7
ENDMDL
MODEL 6
REMARK VINA RESULT:      -7.9      2.191      8.731
REMARK  Name = *****
REMARK                            x       y       z     vdW  Elec       q    Type
REMARK                         _______ _______ _______ _____ _____    ______ ____
ROOT
ATOM      1  C   LIG    1       24.927 -28.290   6.091  0.00  0.00    +0.241 C 
ATOM      2  N   LIG    1       24.516 -28.950   7.224  0.00  0.00    -0.281 N 
ATOM      3  H   LIG    1       23.867 -28.466   7.847  0.00  0.00    +0.155 HD
ATOM      4  O   LIG    1       25.642 -28.725   5.199  0.00  0.00    -0.271 OA
ENDROOT
BRANCH   2   5
ATOM      5  C   LIG    1       24.859 -30.265   7.614  0.00  0.00    +0.048 A 
ATOM      6  C   LIG    1       25.705 -30.458   8.726  0.00  0.00    +0.080 A 
ATOM      7  C   LIG    1       26.106 -31.755   9.093  0.00  0.00    +0.017 A 
ATOM      8  C   LIG    1       25.642 -32.858   8.379  0.00  0.00    +0.001 A 
ATOM      9  C   LIG    1       24.789 -32.674   7.294  0.00  0.00    +0.002 A 
ATOM     10  C   LIG    1       24.401 -31.387   6.915  0.00  0.00    +0.024 A 
BRANCH   6  11
ATOM     11  C   LIG    1       26.161 -29.296   9.524  0.00  0.00    +0.339 C 
ATOM     12  O   LIG    1       25.811 -29.118  10.693  0.00  0.00    -0.245 OA
BRANCH  11  13
ATOM     13  O   LIG    1       27.051 -28.503   8.903  0.00  0.00    -0.477 OA
ATOM     14  H   LIG    1       27.958 -28.861   8.853  0.00  0.00    +0.295 HD
ENDBRANCH  11  13
ENDBRANCH   6  11
ENDBRANCH   2   5
BRANCH   1  16
ATOM     15  C   LIG    1       25.062 -25.917   6.552  0.00  0.00    +0.013 C 
ATOM     16  C   LIG    1       24.356 -26.922   6.021  0.00  0.00    +0.068 C 
BRANCH  15  20
ATOM     17  C   LIG    1       23.750 -21.849   6.719  0.00  0.00    +0.162 A 
ATOM     18  C   LIG    1       25.121 -22.117   6.564  0.00  0.00    +0.162 A 
ATOM     19  C   LIG    1       25.561 -23.449   6.484  0.00  0.00    +0.057 A 
ATOM     20  C   LIG    1       24.652 -24.514   6.532  0.00  0.00    -0.021 A 
ATOM     21  C   LIG    1       23.294 -24.233   6.659  0.00  0.00    +0.012 A 
ATOM     22  C   LIG    1       22.853 -22.919   6.755  0.00  0.00    +0.050 A 
BRANCH  17  24
ATOM     23  C   LIG    1       22.785 -19.941   5.728  0.00  0.00    +0.277 C 
ATOM     24  O   LIG    1       23.316 -20.559   6.900  0.00  0.00    -0.491 OA
ENDBRANCH  17  24
BRANCH  18  25
ATOM     25  O   LIG    1       26.135 -21.196   6.485  0.00  0.00    -0.491 OA
ATOM     26  C   LIG    1       26.624 -20.712   7.731  0.00  0.00    +0.277 C 
ENDBRANCH  18  25
ENDBRANCH  15  20
ENDBRANCH   1  16
TORSDOF 7
ENDMDL
MODEL 7
REMARK VINA RESULT:      -7.9      2.182      8.693
REMARK  Name = *****
REMARK                            x       y       z     vdW  Elec       q    Type
REMARK                         _______ _______ _______ _____ _____    ______ ____
ROOT
ATOM      1  C   LIG    1       26.159 -26.332   6.045  0.00  0.00    +0.241 C 
ATOM      2  N   LIG    1       25.337 -27.011   6.911  0.00  0.00    -0.281 N 
ATOM      3  H   LIG    1       24.405 -26.629   7.080  0.00  0.00    +0.155 HD
ATOM      4  O   LIG    1       27.274 -26.664   5.668  0.00  0.00    -0.271 OA
ENDROOT
BRANCH   2   5
ATOM      5  C   LIG    1       25.620 -28.228   7.573  0.00  0.00    +0.048 A 
ATOM      6  C   LIG    1       25.100 -29.434   7.056  0.00  0.00    +0.080 A 
ATOM      7  C   LIG    1       25.320 -30.647   7.733  0.00  0.00    +0.017 A 
ATOM      8  C   LIG    1       26.081 -30.667   8.901  0.00  0.00    +0.001 A 
ATOM      9  C   LIG    1       26.615 -29.483   9.402  0.00  0.00    +0.002 A 
ATOM     10  C   LIG    1       26.386 -28.273   8.743  0.00  0.00    +0.024 A 
BRANCH   6  11
ATOM     11  C   LIG    1       24.335 -29.430   5.788  0.00  0.00    +0.339 C 
ATOM     12  O   LIG    1       24.707 -28.805   4.792  0.00  0.00    -0.245 OA
BRANCH  11  13
ATOM     13  O   LIG    1       23.253 -30.228   5.783  0.00  0.00    -0.477 OA
ATOM     14  H   LIG    1       23.400 -31.120   5.413  0.00  0.00    +0.295 HD
ENDBRANCH  11  13
ENDBRANCH   6  11
ENDBRANCH   2   5
BRANCH   1  16
ATOM     15  C   LIG    1       24.990 -24.249   6.439  0.00  0.00    +0.013 C 
ATOM     16  C   LIG    1       25.516 -25.092   5.543  0.00  0.00    +0.068 C 
BRANCH  15  20
ATOM     17  C   LIG    1       23.224 -20.427   5.683  0.00  0.00    +0.162 A 
ATOM     18  C   LIG    1       24.084 -20.982   4.720  0.00  0.00    +0.162 A 
ATOM     19  C   LIG    1       24.652 -22.248   4.947  0.00  0.00    +0.057 A 
ATOM     20  C   LIG    1       24.354 -22.975   6.107  0.00  0.00    -0.021 A 
ATOM     21  C   LIG    1       23.479 -22.424   7.040  0.00  0.00    +0.012 A 
ATOM     22  C   LIG    1       22.926 -21.167   6.830  0.00  0.00    +0.050 A 
BRANCH  17  24
ATOM     23  C   LIG    1       21.870 -18.981   4.406  0.00  0.00    +0.277 C 
ATOM     24  O   LIG    1       22.742 -19.151   5.523  0.00  0.00    -0.491 OA
ENDBRANCH  17  24
BRANCH  18  25
ATOM     25  O   LIG    1       24.466 -20.412   3.532  0.00  0.00    -0.491 OA
ATOM     26  C   LIG    1       25.488 -19.427   3.623  0.00  0.00    +0.277 C 
ENDBRANCH  18  25
ENDBRANCH  15  20
ENDBRANCH   1  16
TORSDOF 7
ENDMDL
MODEL 8
REMARK VINA RESULT:      -7.7      2.321      8.854
REMARK  Name = *****
REMARK                            x       y       z     vdW  Elec       q    Type
REMARK                         _______ _______ _______ _____ _____    ______ ____
ROOT
ATOM      1  C   LIG    1       24.791 -28.288   5.992  0.00  0.00    +0.241 C 
ATOM      2  N   LIG    1       25.427 -29.266   6.718  0.00  0.00    -0.281 N 
ATOM      3  H   LIG    1       26.054 -28.970   7.468  0.00  0.00    +0.155 HD
ATOM      4  O   LIG    1       23.962 -28.443   5.107  0.00  0.00    -0.271 OA
ENDROOT
BRANCH   2   5
ATOM      5  C   LIG    1       25.278 -30.665   6.573  0.00  0.00    +0.048 A 
ATOM      6  C   LIG    1       24.610 -31.397   7.577  0.00  0.00    +0.080 A 
ATOM      7  C   LIG    1       24.503 -32.796   7.481  0.00  0.00    +0.017 A 
ATOM      8  C   LIG    1       25.028 -33.462   6.374  0.00  0.00    +0.001 A 
ATOM      9  C   LIG    1       25.667 -32.741   5.370  0.00  0.00    +0.002 A 
ATOM     10  C   LIG    1       25.791 -31.353   5.468  0.00  0.00    +0.024 A 
BRANCH   6  11
ATOM     11  C   LIG    1       24.004 -30.692   8.731  0.00  0.00    +0.339 C 
ATOM     12  O   LIG    1       22.802 -30.772   8.997  0.00  0.00    -0.245 OA
BRANCH  11  13
ATOM     13  O   LIG    1       24.879 -30.033   9.510  0.00  0.00    -0.477 OA
ATOM     14  H   LIG    1       25.801 -30.351   9.455  0.00  0.00    +0.295 HD
ENDBRANCH  11  13
ENDBRANCH   6  11
ENDBRANCH   2   5
BRANCH   1  16
ATOM     15  C   LIG    1       24.345 -25.921   6.235  0.00  0.00    +0.013 C 
ATOM     16  C   LIG    1       25.200 -26.931   6.433  0.00  0.00    +0.068 C 
BRANCH  15  20
ATOM     17  C   LIG    1       25.237 -21.863   7.253  0.00  0.00    +0.162 A 
ATOM     18  C   LIG    1       23.925 -22.197   6.874  0.00  0.00    +0.162 A 
ATOM     19  C   LIG    1       23.615 -23.532   6.560  0.00  0.00    +0.057 A 
ATOM     20  C   LIG    1       24.587 -24.537   6.643  0.00  0.00    -0.021 A 
ATOM     21  C   LIG    1       25.875 -24.196   7.046  0.00  0.00    +0.012 A 
ATOM     22  C   LIG    1       26.193 -22.877   7.343  0.00  0.00    +0.050 A 
BRANCH  17  24
ATOM     23  C   LIG    1       26.922 -20.351   7.907  0.00  0.00    +0.277 C 
ATOM     24  O   LIG    1       25.579 -20.550   7.464  0.00  0.00    -0.491 OA
ENDBRANCH  17  24
BRANCH  18  25
ATOM     25  O   LIG    1       22.859 -21.342   6.758  0.00  0.00    -0.491 OA
ATOM     26  C   LIG    1       22.674 -20.762   5.471  0.00  0.00    +0.277 C 
ENDBRANCH  18  25
ENDBRANCH  15  20
ENDBRANCH   1  16
TORSDOF 7
ENDMDL
MODEL 9
REMARK VINA RESULT:      -7.7      2.004      2.646
REMARK  Name = *****
REMARK                            x       y       z     vdW  Elec       q    Type
REMARK                         _______ _______ _______ _____ _____    ______ ____
ROOT
ATOM      1  C   LIG    1       24.800 -25.247   5.534  0.00  0.00    +0.241 C 
ATOM      2  N   LIG    1       24.782 -24.665   6.778  0.00  0.00    -0.281 N 
ATOM      3  H   LIG    1       24.562 -25.260   7.579  0.00  0.00    +0.155 HD
ATOM      4  O   LIG    1       25.103 -24.719   4.474  0.00  0.00    -0.271 OA
ENDROOT
BRANCH   2   5
ATOM      5  C   LIG    1       25.082 -23.319   7.092  0.00  0.00    +0.048 A 
ATOM      6  C   LIG    1       24.106 -22.324   6.874  0.00  0.00    +0.080 A 
ATOM      7  C   LIG    1       24.405 -20.973   7.122  0.00  0.00    +0.017 A 
ATOM      8  C   LIG    1       25.658 -20.614   7.617  0.00  0.00    +0.001 A 
ATOM      9  C   LIG    1       26.616 -21.595   7.855  0.00  0.00    +0.002 A 
ATOM     10  C   LIG    1       26.330 -22.937   7.594  0.00  0.00    +0.024 A 
BRANCH   6  11
ATOM     11  C   LIG    1       22.754 -22.701   6.398  0.00  0.00    +0.339 C 
ATOM     12  O   LIG    1       22.144 -23.675   6.843  0.00  0.00    -0.245 OA
BRANCH  11  13
ATOM     13  O   LIG    1       22.214 -21.849   5.509  0.00  0.00    -0.477 OA
ATOM     14  H   LIG    1       21.238 -21.820   5.505  0.00  0.00    +0.295 HD
ENDBRANCH  11  13
ENDBRANCH   6  11
ENDBRANCH   2   5
BRANCH   1  16
ATOM     15  C   LIG    1       25.047 -27.451   6.506  0.00  0.00    +0.013 C 
ATOM     16  C   LIG    1       24.431 -26.683   5.600  0.00  0.00    +0.068 C 
BRANCH  15  20
ATOM     17  C   LIG    1       24.470 -31.657   7.033  0.00  0.00    +0.162 A 
ATOM     18  C   LIG    1       24.301 -30.803   8.136  0.00  0.00    +0.162 A 
ATOM     19  C   LIG    1       24.465 -29.417   7.970  0.00  0.00    +0.057 A 
ATOM     20  C   LIG    1       24.770 -28.871   6.717  0.00  0.00    -0.021 A 
ATOM     21  C   LIG    1       24.908 -29.727   5.626  0.00  0.00    +0.012 A 
ATOM     22  C   LIG    1       24.762 -31.099   5.786  0.00  0.00    +0.050 A 
BRANCH  17  24
ATOM     23  C   LIG    1       23.148 -33.602   6.888  0.00  0.00    +0.277 C 
ATOM     24  O   LIG    1       24.413 -33.019   7.200  0.00  0.00    -0.491 OA
ENDBRANCH  17  24
BRANCH  18  25
ATOM     25  O   LIG    1       23.989 -31.171   9.421  0.00  0.00    -0.491 OA
ATOM     26  C   LIG    1       22.844 -30.537   9.980  0.00  0.00    +0.277 C 
ENDBRANCH  18  25
ENDBRANCH  15  20
ENDBRANCH   1  16
TORSDOF 7
ENDMDL
