MODEL 1
REMARK VINA RESULT:      -8.8      0.000      0.000
REMARK  Name = *****
REMARK                            x       y       z     vdW  Elec       q    Type
REMARK                         _______ _______ _______ _____ _____    ______ ____
ROOT
ATOM      1  C   LIG    1       25.762 -25.523   6.320  0.00  0.00    +0.215 C 
ATOM      2  C   LIG    1       27.086 -26.018   5.764  0.00  0.00    +0.074 C 
ATOM      3  C   LIG    1       25.079 -24.585   5.310  0.00  0.00    +0.271 C 
ATOM      4  O   LIG    1       24.887 -24.791   4.134  0.00  0.00    -0.270 OA
ATOM      5  N   LIG    1       24.731 -23.456   6.036  0.00  0.00    -0.233 N 
ATOM      6  C   LIG    1       25.547 -23.400   7.206  0.00  0.00    +0.269 C 
ATOM      7  C   LIG    1       26.747 -22.453   6.988  0.00  0.00    +0.156 C 
ATOM      8  N   LIG    1       26.479 -21.298   6.142  0.00  0.00    -0.290 N 
ATOM      9  C   LIG    1       25.517 -21.260   5.154  0.00  0.00    +0.237 C 
ATOM     10  O   LIG    1       25.511 -20.383   4.291  0.00  0.00    -0.274 OA
ATOM     11  C   LIG    1       27.458 -20.254   6.358  0.00  0.00    +0.108 C 
ATOM     12  C   LIG    1       28.235 -20.703   7.599  0.00  0.00    +0.021 C 
ATOM     13  C   LIG    1       27.369 -21.804   8.222  0.00  0.00    +0.031 C 
ATOM     14  C   LIG    1       24.313 -22.221   5.355  0.00  0.00    +0.171 C 
ATOM     15  O   LIG    1       26.054 -24.712   7.454  0.00  0.00    -0.299 OA
ENDROOT
BRANCH   1  17
ATOM     16  C   LIG    1       25.049 -27.915   6.167  0.00  0.00    +0.220 C 
ATOM     17  N   LIG    1       24.949 -26.661   6.720  0.00  0.00    -0.280 N 
ATOM     18  H   LIG    1       24.322 -26.517   7.499  0.00  0.00    +0.152 HD
ATOM     19  O   LIG    1       25.780 -28.163   5.210  0.00  0.00    -0.275 OA
BRANCH  16  35
ATOM     20  C   LIG    1       23.455 -32.538   5.683  0.00  0.00    +0.105 C 
ATOM     21  N   LIG    1       23.405 -31.346   6.528  0.00  0.00    -0.301 NA
ATOM     22  C   LIG    1       23.699 -31.641   7.949  0.00  0.00    +0.068 C 
ATOM     23  C   LIG    1       23.469 -30.328   8.801  0.00  0.00    +0.038 C 
ATOM     24  C   LIG    1       23.742 -30.584  10.267  0.00  0.00    -0.033 C 
ATOM     25  C   LIG    1       24.648 -31.601  10.585  0.00  0.00    +0.006 C 
ATOM     26  C   LIG    1       24.976 -31.924  11.886  0.00  0.00    +0.047 C 
ATOM     27  N   LIG    1       25.880 -32.961  11.797  0.00  0.00    -0.360 NA
ATOM     28  H   LIG    1       26.311 -33.415  12.589  0.00  0.00    +0.165 HD
ATOM     29  C   LIG    1       26.096 -33.298  10.474  0.00  0.00    +0.087 C 
ATOM     30  C   LIG    1       24.412 -31.243  12.966  0.00  0.00    +0.026 C 
ATOM     31  C   LIG    1       23.501 -30.216  12.659  0.00  0.00    +0.002 C 
ATOM     32  C   LIG    1       25.323 -32.465   9.701  0.00  0.00    -0.021 C 
ATOM     33  C   LIG    1       23.173 -29.883  11.336  0.00  0.00    +0.005 C 
ATOM     34  C   LIG    1       24.342 -29.179   8.269  0.00  0.00    +0.023 C 
ATOM     35  C   LIG    1       24.104 -28.960   6.768  0.00  0.00    +0.090 C 
ATOM     36  C   LIG    1       25.092 -32.339   8.230  0.00  0.00    +0.056 C 
ATOM     37  C   LIG    1       24.256 -30.278   5.987  0.00  0.00    +0.097 C 
ENDBRANCH  16  35
ENDBRANCH   1  17
BRANCH   6  38
ATOM     38  O   LIG    1       24.754 -23.026   8.292  0.00  0.00    -0.348 OA
ATOM     39  H   LIG    1       24.306 -23.876   8.496  0.00  0.00    +0.214 HD
ENDBRANCH   6  38
BRANCH  14  40
ATOM     40  C   LIG    1       23.205 -21.440   6.105  0.00  0.00    +0.067 C 
BRANCH  40  41
ATOM     41  C   LIG    1       22.433 -20.441   5.264  0.00  0.00    -0.045 A 
ATOM     42  C   LIG    1       22.818 -19.095   5.225  0.00  0.00    +0.003 A 
ATOM     43  C   LIG    1       22.095 -18.150   4.498  0.00  0.00    +0.000 A 
ATOM     44  C   LIG    1       21.007 -18.552   3.737  0.00  0.00    +0.000 A 
ATOM     45  C   LIG    1       20.635 -19.896   3.724  0.00  0.00    +0.000 A 
ATOM     46  C   LIG    1       21.333 -20.835   4.494  0.00  0.00    +0.003 A 
ENDBRANCH  40  41
ENDBRANCH  14  40
TORSDOF 5
ENDMDL
MODEL 2
REMARK VINA RESULT:      -8.8      2.082     10.500
REMARK  Name = *****
REMARK                            x       y       z     vdW  Elec       q    Type
REMARK                         _______ _______ _______ _____ _____    ______ ____
ROOT
ATOM      1  C   LIG    1       26.260 -27.158   6.690  0.00  0.00    +0.215 C 
ATOM      2  C   LIG    1       27.629 -27.088   6.037  0.00  0.00    +0.074 C 
ATOM      3  C   LIG    1       26.292 -28.121   7.890  0.00  0.00    +0.271 C 
ATOM      4  O   LIG    1       27.091 -28.132   8.797  0.00  0.00    -0.270 OA
ATOM      5  N   LIG    1       25.210 -28.968   7.709  0.00  0.00    -0.233 N 
ATOM      6  C   LIG    1       24.844 -28.948   6.329  0.00  0.00    +0.269 C 
ATOM      7  C   LIG    1       25.457 -30.154   5.585  0.00  0.00    +0.156 C 
ATOM      8  N   LIG    1       25.560 -31.378   6.369  0.00  0.00    -0.290 N 
ATOM      9  C   LIG    1       25.676 -31.418   7.743  0.00  0.00    +0.237 C 
ATOM     10  O   LIG    1       26.036 -32.436   8.332  0.00  0.00    -0.274 OA
ATOM     11  C   LIG    1       25.692 -32.537   5.512  0.00  0.00    +0.108 C 
ATOM     12  C   LIG    1       25.403 -32.012   4.103  0.00  0.00    +0.021 C 
ATOM     13  C   LIG    1       24.747 -30.644   4.326  0.00  0.00    +0.031 C 
ATOM     14  C   LIG    1       25.076 -30.200   8.501  0.00  0.00    +0.171 C 
ATOM     15  O   LIG    1       25.370 -27.753   5.750  0.00  0.00    -0.299 OA
ENDROOT
BRANCH   1  17
ATOM     16  C   LIG    1       24.660 -25.243   6.524  0.00  0.00    +0.220 C 
ATOM     17  N   LIG    1       25.809 -25.814   7.017  0.00  0.00    -0.280 N 
ATOM     18  H   LIG    1       26.354 -25.307   7.701  0.00  0.00    +0.152 HD
ATOM     19  O   LIG    1       23.953 -25.793   5.682  0.00  0.00    -0.275 OA
BRANCH  16  35
ATOM     20  C   LIG    1       26.685 -21.397   8.817  0.00  0.00    +0.105 C 
ATOM     21  N   LIG    1       25.493 -21.869   8.114  0.00  0.00    -0.301 NA
ATOM     22  C   LIG    1       25.062 -20.947   7.037  0.00  0.00    +0.068 C 
ATOM     23  C   LIG    1       23.688 -21.461   6.445  0.00  0.00    +0.038 C 
ATOM     24  C   LIG    1       23.198 -20.539   5.349  0.00  0.00    -0.033 C 
ATOM     25  C   LIG    1       24.160 -19.815   4.638  0.00  0.00    +0.006 C 
ATOM     26  C   LIG    1       23.833 -18.946   3.618  0.00  0.00    +0.047 C 
ATOM     27  N   LIG    1       25.030 -18.426   3.171  0.00  0.00    -0.360 NA
ATOM     28  H   LIG    1       25.119 -17.758   2.420  0.00  0.00    +0.165 HD
ATOM     29  C   LIG    1       26.081 -18.937   3.909  0.00  0.00    +0.087 C 
ATOM     30  C   LIG    1       22.505 -18.741   3.239  0.00  0.00    +0.026 C 
ATOM     31  C   LIG    1       21.528 -19.465   3.945  0.00  0.00    +0.002 C 
ATOM     32  C   LIG    1       25.555 -19.800   4.841  0.00  0.00    -0.021 C 
ATOM     33  C   LIG    1       21.862 -20.355   4.977  0.00  0.00    +0.005 C 
ATOM     34  C   LIG    1       23.828 -22.904   5.931  0.00  0.00    +0.023 C 
ATOM     35  C   LIG    1       24.379 -23.824   7.029  0.00  0.00    +0.090 C 
ATOM     36  C   LIG    1       26.149 -20.632   5.930  0.00  0.00    +0.056 C 
ATOM     37  C   LIG    1       25.671 -23.247   7.637  0.00  0.00    +0.097 C 
ENDBRANCH  16  35
ENDBRANCH   1  17
BRANCH   6  38
ATOM     38  O   LIG    1       23.452 -28.903   6.231  0.00  0.00    -0.348 OA
ATOM     39  H   LIG    1       23.332 -28.972   5.259  0.00  0.00    +0.214 HD
ENDBRANCH   6  38
BRANCH  14  40
ATOM     40  C   LIG    1       23.613 -30.549   8.870  0.00  0.00    +0.067 C 
BRANCH  40  41
ATOM     41  C   LIG    1       23.191 -30.170  10.277  0.00  0.00    -0.045 A 
ATOM     42  C   LIG    1       21.876 -30.387  10.709  0.00  0.00    +0.003 A 
ATOM     43  C   LIG    1       21.453 -30.003  11.981  0.00  0.00    +0.000 A 
ATOM     44  C   LIG    1       22.362 -29.453  12.872  0.00  0.00    +0.000 A 
ATOM     45  C   LIG    1       23.688 -29.272  12.479  0.00  0.00    +0.000 A 
ATOM     46  C   LIG    1       24.099 -29.613  11.184  0.00  0.00    +0.003 A 
ENDBRANCH  40  41
ENDBRANCH  14  40
TORSDOF 5
ENDMDL
MODEL 3
REMARK VINA RESULT:      -8.7      3.509      9.786
REMARK  Name = *****
REMARK                            x       y       z     vdW  Elec       q    Type
REMARK                         _______ _______ _______ _____ _____    ______ ____
ROOT
ATOM      1  C   LIG    1       26.574 -28.914  11.158  0.00  0.00    +0.215 C 
ATOM      2  C   LIG    1       27.962 -28.998  11.769  0.00  0.00    +0.074 C 
ATOM      3  C   LIG    1       25.576 -28.345  12.181  0.00  0.00    +0.271 C 
ATOM      4  O   LIG    1       25.703 -27.346  12.850  0.00  0.00    -0.270 OA
ATOM      5  N   LIG    1       24.502 -29.222  12.172  0.00  0.00    -0.233 N 
ATOM      6  C   LIG    1       24.944 -30.476  11.651  0.00  0.00    +0.269 C 
ATOM      7  C   LIG    1       25.274 -31.456  12.798  0.00  0.00    +0.156 C 
ATOM      8  N   LIG    1       24.432 -31.331  13.981  0.00  0.00    -0.290 N 
ATOM      9  C   LIG    1       23.797 -30.169  14.368  0.00  0.00    +0.237 C 
ATOM     10  O   LIG    1       23.334 -30.032  15.500  0.00  0.00    -0.274 OA
ATOM     11  C   LIG    1       24.480 -32.533  14.785  0.00  0.00    +0.108 C 
ATOM     12  C   LIG    1       25.208 -33.557  13.909  0.00  0.00    +0.021 C 
ATOM     13  C   LIG    1       25.182 -32.950  12.501  0.00  0.00    +0.031 C 
ATOM     14  C   LIG    1       23.475 -29.168  13.223  0.00  0.00    +0.171 C 
ATOM     15  O   LIG    1       26.139 -30.246  10.904  0.00  0.00    -0.299 OA
ENDROOT
BRANCH   1  17
ATOM     16  C   LIG    1       26.058 -28.578   8.733  0.00  0.00    +0.220 C 
ATOM     17  N   LIG    1       26.638 -28.167   9.910  0.00  0.00    -0.280 N 
ATOM     18  H   LIG    1       27.085 -27.262   9.947  0.00  0.00    +0.152 HD
ATOM     19  O   LIG    1       25.507 -29.670   8.610  0.00  0.00    -0.275 OA
BRANCH  16  35
ATOM     20  C   LIG    1       24.507 -27.571   4.181  0.00  0.00    +0.105 C 
ATOM     21  N   LIG    1       25.341 -27.097   5.284  0.00  0.00    -0.301 NA
ATOM     22  C   LIG    1       25.064 -25.688   5.645  0.00  0.00    +0.068 C 
ATOM     23  C   LIG    1       26.113 -25.224   6.734  0.00  0.00    +0.038 C 
ATOM     24  C   LIG    1       25.880 -23.780   7.124  0.00  0.00    -0.033 C 
ATOM     25  C   LIG    1       24.580 -23.281   6.995  0.00  0.00    +0.006 C 
ATOM     26  C   LIG    1       24.247 -21.982   7.321  0.00  0.00    +0.047 C 
ATOM     27  N   LIG    1       22.898 -21.865   7.060  0.00  0.00    -0.360 NA
ATOM     28  H   LIG    1       22.357 -21.025   7.204  0.00  0.00    +0.165 HD
ATOM     29  C   LIG    1       22.400 -23.053   6.559  0.00  0.00    +0.087 C 
ATOM     30  C   LIG    1       25.205 -21.087   7.801  0.00  0.00    +0.026 C 
ATOM     31  C   LIG    1       26.516 -21.578   7.937  0.00  0.00    +0.002 C 
ATOM     32  C   LIG    1       23.442 -23.948   6.500  0.00  0.00    -0.021 C 
ATOM     33  C   LIG    1       26.852 -22.901   7.613  0.00  0.00    +0.005 C 
ATOM     34  C   LIG    1       26.058 -26.144   7.965  0.00  0.00    +0.023 C 
ATOM     35  C   LIG    1       26.238 -27.613   7.557  0.00  0.00    +0.090 C 
ATOM     36  C   LIG    1       23.564 -25.363   6.036  0.00  0.00    +0.056 C 
ATOM     37  C   LIG    1       25.254 -28.001   6.438  0.00  0.00    +0.097 C 
ENDBRANCH  16  35
ENDBRANCH   1  17
BRANCH   6  38
ATOM     38  O   LIG    1       23.974 -30.972  10.780  0.00  0.00    -0.348 OA
ATOM     39  H   LIG    1       24.426 -31.771  10.432  0.00  0.00    +0.214 HD
ENDBRANCH   6  38
BRANCH  14  40
ATOM     40  C   LIG    1       22.045 -29.477  12.715  0.00  0.00    +0.067 C 
BRANCH  40  41
ATOM     41  C   LIG    1       20.963 -28.536  13.210  0.00  0.00    -0.045 A 
ATOM     42  C   LIG    1       19.913 -29.014  14.005  0.00  0.00    +0.003 A 
ATOM     43  C   LIG    1       18.882 -28.178  14.431  0.00  0.00    +0.000 A 
ATOM     44  C   LIG    1       18.921 -26.826  14.125  0.00  0.00    +0.000 A 
ATOM     45  C   LIG    1       19.982 -26.320  13.376  0.00  0.00    +0.000 A 
ATOM     46  C   LIG    1       20.991 -27.171  12.907  0.00  0.00    +0.003 A 
ENDBRANCH  40  41
ENDBRANCH  14  40
TORSDOF 5
ENDMDL
MODEL 4
REMARK VINA RESULT:      -8.6      3.392      9.853
REMARK  Name = *****
REMARK                            x       y       z     vdW  Elec       q    Type
REMARK                         _______ _______ _______ _____ _____    ______ ____
ROOT
ATOM      1  C   LIG    1       26.029 -30.627   9.344  0.00  0.00    +0.215 C 
ATOM      2  C   LIG    1       26.657 -31.886   8.772  0.00  0.00    +0.074 C 
ATOM      3  C   LIG    1       26.678 -30.274  10.694  0.00  0.00    +0.271 C 
ATOM      4  O   LIG    1       27.860 -30.194  10.938  0.00  0.00    -0.270 OA
ATOM      5  N   LIG    1       25.621 -30.069  11.567  0.00  0.00    -0.233 N 
ATOM      6  C   LIG    1       24.466 -30.727  11.044  0.00  0.00    +0.269 C 
ATOM      7  C   LIG    1       24.280 -32.108  11.708  0.00  0.00    +0.156 C 
ATOM      8  N   LIG    1       24.680 -32.182  13.107  0.00  0.00    -0.290 N 
ATOM      9  C   LIG    1       25.638 -31.378  13.689  0.00  0.00    +0.237 C 
ATOM     10  O   LIG    1       26.138 -31.654  14.779  0.00  0.00    -0.274 OA
ATOM     11  C   LIG    1       24.064 -33.313  13.767  0.00  0.00    +0.108 C 
ATOM     12  C   LIG    1       23.022 -33.825  12.768  0.00  0.00    +0.021 C 
ATOM     13  C   LIG    1       22.868 -32.687  11.752  0.00  0.00    +0.031 C 
ATOM     14  C   LIG    1       25.846 -29.992  13.018  0.00  0.00    +0.171 C 
ATOM     15  O   LIG    1       24.670 -30.929   9.645  0.00  0.00    -0.299 OA
ENDROOT
BRANCH   1  17
ATOM     16  C   LIG    1       26.391 -28.251   8.650  0.00  0.00    +0.220 C 
ATOM     17  N   LIG    1       26.092 -29.561   8.356  0.00  0.00    -0.280 N 
ATOM     18  H   LIG    1       25.970 -29.831   7.391  0.00  0.00    +0.152 HD
ATOM     19  O   LIG    1       26.541 -27.847   9.801  0.00  0.00    -0.275 OA
BRANCH  16  35
ATOM     20  C   LIG    1       24.348 -27.393   4.264  0.00  0.00    +0.105 C 
ATOM     21  N   LIG    1       25.280 -26.873   5.263  0.00  0.00    -0.301 NA
ATOM     22  C   LIG    1       25.006 -25.462   5.620  0.00  0.00    +0.068 C 
ATOM     23  C   LIG    1       26.152 -24.947   6.582  0.00  0.00    +0.038 C 
ATOM     24  C   LIG    1       25.924 -23.500   6.962  0.00  0.00    -0.033 C 
ATOM     25  C   LIG    1       24.606 -23.034   6.959  0.00  0.00    +0.006 C 
ATOM     26  C   LIG    1       24.276 -21.735   7.289  0.00  0.00    +0.047 C 
ATOM     27  N   LIG    1       22.904 -21.656   7.169  0.00  0.00    -0.360 NA
ATOM     28  H   LIG    1       22.360 -20.825   7.350  0.00  0.00    +0.165 HD
ATOM     29  C   LIG    1       22.387 -22.867   6.750  0.00  0.00    +0.087 C 
ATOM     30  C   LIG    1       25.255 -20.807   7.646  0.00  0.00    +0.026 C 
ATOM     31  C   LIG    1       26.585 -21.265   7.654  0.00  0.00    +0.002 C 
ATOM     32  C   LIG    1       23.439 -23.740   6.601  0.00  0.00    -0.021 C 
ATOM     33  C   LIG    1       26.919 -22.587   7.326  0.00  0.00    +0.005 C 
ATOM     34  C   LIG    1       26.249 -25.838   7.831  0.00  0.00    +0.023 C 
ATOM     35  C   LIG    1       26.423 -27.312   7.440  0.00  0.00    +0.090 C 
ATOM     36  C   LIG    1       23.548 -25.163   6.159  0.00  0.00    +0.056 C 
ATOM     37  C   LIG    1       25.338 -27.751   6.440  0.00  0.00    +0.097 C 
ENDBRANCH  16  35
ENDBRANCH   1  17
BRANCH   6  38
ATOM     38  O   LIG    1       23.359 -29.894  11.208  0.00  0.00    -0.348 OA
ATOM     39  H   LIG    1       23.175 -29.643  10.277  0.00  0.00    +0.214 HD
ENDBRANCH   6  38
BRANCH  14  40
ATOM     40  C   LIG    1       24.925 -28.976  13.739  0.00  0.00    +0.067 C 
BRANCH  40  41
ATOM     41  C   LIG    1       25.351 -27.525  13.634  0.00  0.00    -0.045 A 
ATOM     42  C   LIG    1       26.681 -27.193  13.342  0.00  0.00    +0.003 A 
ATOM     43  C   LIG    1       27.107 -25.866  13.288  0.00  0.00    +0.000 A 
ATOM     44  C   LIG    1       26.189 -24.841  13.458  0.00  0.00    +0.000 A 
ATOM     45  C   LIG    1       24.851 -25.148  13.701  0.00  0.00    +0.000 A 
ATOM     46  C   LIG    1       24.434 -26.482  13.804  0.00  0.00    +0.003 A 
ENDBRANCH  40  41
ENDBRANCH  14  40
TORSDOF 5
ENDMDL
MODEL 5
REMARK VINA RESULT:      -8.5      2.060     10.542
REMARK  Name = *****
REMARK                            x       y       z     vdW  Elec       q    Type
REMARK                         _______ _______ _______ _____ _____    ______ ____
ROOT
ATOM      1  C   LIG    1       25.732 -27.641   6.870  0.00  0.00    +0.215 C 
ATOM      2  C   LIG    1       26.720 -27.639   5.716  0.00  0.00    +0.074 C 
ATOM      3  C   LIG    1       26.306 -28.429   8.060  0.00  0.00    +0.271 C 
ATOM      4  O   LIG    1       27.399 -28.304   8.562  0.00  0.00    -0.270 OA
ATOM      5  N   LIG    1       25.303 -29.310   8.433  0.00  0.00    -0.233 N 
ATOM      6  C   LIG    1       24.418 -29.485   7.327  0.00  0.00    +0.269 C 
ATOM      7  C   LIG    1       24.767 -30.772   6.548  0.00  0.00    +0.156 C 
ATOM      8  N   LIG    1       25.258 -31.875   7.364  0.00  0.00    -0.290 N 
ATOM      9  C   LIG    1       25.914 -31.724   8.569  0.00  0.00    +0.237 C 
ATOM     10  O   LIG    1       26.549 -32.646   9.079  0.00  0.00    -0.274 OA
ATOM     11  C   LIG    1       25.119 -33.138   6.671  0.00  0.00    +0.108 C 
ATOM     12  C   LIG    1       24.257 -32.816   5.447  0.00  0.00    +0.021 C 
ATOM     13  C   LIG    1       23.650 -31.441   5.751  0.00  0.00    +0.031 C 
ATOM     14  C   LIG    1       25.582 -30.424   9.352  0.00  0.00    +0.171 C 
ATOM     15  O   LIG    1       24.586 -28.373   6.448  0.00  0.00    -0.299 OA
ENDROOT
BRANCH   1  17
ATOM     16  C   LIG    1       24.741 -25.414   6.307  0.00  0.00    +0.220 C 
ATOM     17  N   LIG    1       25.357 -26.271   7.188  0.00  0.00    -0.280 N 
ATOM     18  H   LIG    1       25.507 -25.971   8.141  0.00  0.00    +0.152 HD
ATOM     19  O   LIG    1       24.536 -25.706   5.131  0.00  0.00    -0.275 OA
BRANCH  16  35
ATOM     20  C   LIG    1       26.664 -21.609   8.750  0.00  0.00    +0.105 C 
ATOM     21  N   LIG    1       25.481 -22.088   8.037  0.00  0.00    -0.301 NA
ATOM     22  C   LIG    1       25.011 -21.134   7.005  0.00  0.00    +0.068 C 
ATOM     23  C   LIG    1       23.649 -21.666   6.401  0.00  0.00    +0.038 C 
ATOM     24  C   LIG    1       23.119 -20.714   5.351  0.00  0.00    -0.033 C 
ATOM     25  C   LIG    1       24.052 -19.929   4.665  0.00  0.00    +0.006 C 
ATOM     26  C   LIG    1       23.687 -19.027   3.686  0.00  0.00    +0.047 C 
ATOM     27  N   LIG    1       24.862 -18.449   3.254  0.00  0.00    -0.360 NA
ATOM     28  H   LIG    1       24.924 -17.746   2.532  0.00  0.00    +0.165 HD
ATOM     29  C   LIG    1       25.937 -18.958   3.960  0.00  0.00    +0.087 C 
ATOM     30  C   LIG    1       22.350 -18.848   3.328  0.00  0.00    +0.026 C 
ATOM     31  C   LIG    1       21.403 -19.634   4.009  0.00  0.00    +0.002 C 
ATOM     32  C   LIG    1       25.447 -19.877   4.857  0.00  0.00    -0.021 C 
ATOM     33  C   LIG    1       21.775 -20.556   4.998  0.00  0.00    +0.005 C 
ATOM     34  C   LIG    1       23.829 -23.080   5.824  0.00  0.00    +0.023 C 
ATOM     35  C   LIG    1       24.420 -24.029   6.876  0.00  0.00    +0.090 C 
ATOM     36  C   LIG    1       26.077 -20.737   5.904  0.00  0.00    +0.056 C 
ATOM     37  C   LIG    1       25.698 -23.437   7.499  0.00  0.00    +0.097 C 
ENDBRANCH  16  35
ENDBRANCH   1  17
BRANCH   6  38
ATOM     38  O   LIG    1       23.103 -29.476   7.795  0.00  0.00    -0.348 OA
ATOM     39  H   LIG    1       23.250 -29.420   8.763  0.00  0.00    +0.214 HD
ENDBRANCH   6  38
BRANCH  14  40
ATOM     40  C   LIG    1       24.414 -30.742  10.320  0.00  0.00    +0.067 C 
BRANCH  40  41
ATOM     41  C   LIG    1       24.119 -29.672  11.354  0.00  0.00    -0.045 A 
ATOM     42  C   LIG    1       22.801 -29.407  11.748  0.00  0.00    +0.003 A 
ATOM     43  C   LIG    1       22.501 -28.396  12.660  0.00  0.00    +0.000 A 
ATOM     44  C   LIG    1       23.528 -27.673  13.249  0.00  0.00    +0.000 A 
ATOM     45  C   LIG    1       24.851 -27.952  12.906  0.00  0.00    +0.000 A 
ATOM     46  C   LIG    1       25.146 -28.935  11.953  0.00  0.00    +0.003 A 
ENDBRANCH  40  41
ENDBRANCH  14  40
TORSDOF 5
ENDMDL
MODEL 6
REMARK VINA RESULT:      -7.7      6.397     10.122
REMARK  Name = *****
REMARK                            x       y       z     vdW  Elec       q    Type
REMARK                         _______ _______ _______ _____ _____    ______ ____
ROOT
ATOM      1  C   LIG    1       25.345 -29.633  10.553  0.00  0.00    +0.215 C 
ATOM      2  C   LIG    1       26.572 -28.738  10.486  0.00  0.00    +0.074 C 
ATOM      3  C   LIG    1       25.752 -31.107  10.382  0.00  0.00    +0.271 C 
ATOM      4  O   LIG    1       26.625 -31.698  10.974  0.00  0.00    -0.270 OA
ATOM      5  N   LIG    1       24.905 -31.609   9.406  0.00  0.00    -0.233 N 
ATOM      6  C   LIG    1       24.394 -30.516   8.642  0.00  0.00    +0.269 C 
ATOM      7  C   LIG    1       25.204 -30.337   7.340  0.00  0.00    +0.156 C 
ATOM      8  N   LIG    1       25.699 -31.571   6.744  0.00  0.00    -0.290 N 
ATOM      9  C   LIG    1       25.973 -32.725   7.449  0.00  0.00    +0.237 C 
ATOM     10  O   LIG    1       26.641 -33.636   6.963  0.00  0.00    -0.274 OA
ATOM     11  C   LIG    1       26.022 -31.381   5.345  0.00  0.00    +0.108 C 
ATOM     12  C   LIG    1       25.454 -30.002   5.000  0.00  0.00    +0.021 C 
ATOM     13  C   LIG    1       24.505 -29.672   6.158  0.00  0.00    +0.031 C 
ATOM     14  C   LIG    1       25.175 -32.907   8.770  0.00  0.00    +0.171 C 
ATOM     15  O   LIG    1       24.535 -29.329   9.422  0.00  0.00    -0.299 OA
ENDROOT
BRANCH   1  17
ATOM     16  C   LIG    1       23.318 -29.762  12.012  0.00  0.00    +0.220 C 
ATOM     17  N   LIG    1       24.610 -29.356  11.778  0.00  0.00    -0.280 N 
ATOM     18  H   LIG    1       25.120 -28.892  12.517  0.00  0.00    +0.152 HD
ATOM     19  O   LIG    1       22.632 -30.321  11.159  0.00  0.00    -0.275 OA
BRANCH  16  35
ATOM     20  C   LIG    1       23.106 -26.115  15.299  0.00  0.00    +0.105 C 
ATOM     21  N   LIG    1       22.610 -27.451  14.973  0.00  0.00    -0.301 NA
ATOM     22  C   LIG    1       21.134 -27.546  15.046  0.00  0.00    +0.068 C 
ATOM     23  C   LIG    1       20.709 -29.055  14.831  0.00  0.00    +0.038 C 
ATOM     24  C   LIG    1       19.205 -29.206  14.914  0.00  0.00    -0.033 C 
ATOM     25  C   LIG    1       18.427 -28.094  14.575  0.00  0.00    +0.006 C 
ATOM     26  C   LIG    1       17.048 -28.113  14.610  0.00  0.00    +0.047 C 
ATOM     27  N   LIG    1       16.646 -26.852  14.221  0.00  0.00    -0.360 NA
ATOM     28  H   LIG    1       15.685 -26.556  14.143  0.00  0.00    +0.165 HD
ATOM     29  C   LIG    1       17.746 -26.054  13.969  0.00  0.00    +0.087 C 
ATOM     30  C   LIG    1       16.349 -29.258  14.994  0.00  0.00    +0.026 C 
ATOM     31  C   LIG    1       17.120 -30.384  15.335  0.00  0.00    +0.002 C 
ATOM     32  C   LIG    1       18.871 -26.810  14.198  0.00  0.00    -0.021 C 
ATOM     33  C   LIG    1       18.522 -30.366  15.291  0.00  0.00    +0.005 C 
ATOM     34  C   LIG    1       21.244 -29.581  13.489  0.00  0.00    +0.023 C 
ATOM     35  C   LIG    1       22.761 -29.374  13.386  0.00  0.00    +0.090 C 
ATOM     36  C   LIG    1       20.337 -26.529  14.132  0.00  0.00    +0.056 C 
ATOM     37  C   LIG    1       23.141 -27.912  13.683  0.00  0.00    +0.097 C 
ENDBRANCH  16  35
ENDBRANCH   1  17
BRANCH   6  38
ATOM     38  O   LIG    1       23.034 -30.725   8.408  0.00  0.00    -0.348 OA
ATOM     39  H   LIG    1       22.830 -29.972   7.813  0.00  0.00    +0.214 HD
ENDBRANCH   6  38
BRANCH  14  40
ATOM     40  C   LIG    1       23.897 -33.718   8.440  0.00  0.00    +0.067 C 
BRANCH  40  41
ATOM     41  C   LIG    1       22.832 -33.718   9.520  0.00  0.00    -0.045 A 
ATOM     42  C   LIG    1       21.475 -33.628   9.182  0.00  0.00    +0.003 A 
ATOM     43  C   LIG    1       20.481 -33.578  10.159  0.00  0.00    +0.000 A 
ATOM     44  C   LIG    1       20.826 -33.685  11.498  0.00  0.00    +0.000 A 
ATOM     45  C   LIG    1       22.167 -33.823  11.854  0.00  0.00    +0.000 A 
ATOM     46  C   LIG    1       23.168 -33.824  10.874  0.00  0.00    +0.003 A 
ENDBRANCH  40  41
ENDBRANCH  14  40
TORSDOF 5
ENDMDL
MODEL 7
REMARK VINA RESULT:      -6.2      2.963     10.322
REMARK  Name = *****
REMARK                            x       y       z     vdW  Elec       q    Type
REMARK                         _______ _______ _______ _____ _____    ______ ____
ROOT
ATOM      1  C   LIG    1       24.725 -30.571   7.429  0.00  0.00    +0.215 C 
ATOM      2  C   LIG    1       24.557 -31.600   6.324  0.00  0.00    +0.074 C 
ATOM      3  C   LIG    1       25.635 -31.126   8.538  0.00  0.00    +0.271 C 
ATOM      4  O   LIG    1       26.718 -31.647   8.404  0.00  0.00    -0.270 OA
ATOM      5  N   LIG    1       24.948 -30.902   9.722  0.00  0.00    -0.233 N 
ATOM      6  C   LIG    1       23.563 -30.740   9.418  0.00  0.00    +0.269 C 
ATOM      7  C   LIG    1       22.798 -32.062   9.643  0.00  0.00    +0.156 C 
ATOM      8  N   LIG    1       23.288 -32.881  10.745  0.00  0.00    -0.290 N 
ATOM      9  C   LIG    1       24.587 -32.870  11.209  0.00  0.00    +0.237 C 
ATOM     10  O   LIG    1       25.020 -33.761  11.939  0.00  0.00    -0.274 OA
ATOM     11  C   LIG    1       22.281 -33.825  11.181  0.00  0.00    +0.108 C 
ATOM     12  C   LIG    1       21.002 -33.388  10.461  0.00  0.00    +0.021 C 
ATOM     13  C   LIG    1       21.307 -31.973   9.954  0.00  0.00    +0.031 C 
ATOM     14  C   LIG    1       25.371 -31.549  10.972  0.00  0.00    +0.171 C 
ATOM     15  O   LIG    1       23.451 -30.390   8.039  0.00  0.00    -0.299 OA
ENDROOT
BRANCH   1  17
ATOM     16  C   LIG    1       25.633 -28.246   7.594  0.00  0.00    +0.220 C 
ATOM     17  N   LIG    1       25.184 -29.315   6.855  0.00  0.00    -0.280 N 
ATOM     18  H   LIG    1       25.229 -29.267   5.847  0.00  0.00    +0.152 HD
ATOM     19  O   LIG    1       25.599 -28.227   8.823  0.00  0.00    -0.275 OA
BRANCH  16  35
ATOM     20  C   LIG    1       25.073 -25.991   3.265  0.00  0.00    +0.105 C 
ATOM     21  N   LIG    1       25.688 -25.888   4.587  0.00  0.00    -0.301 NA
ATOM     22  C   LIG    1       25.404 -24.595   5.251  0.00  0.00    +0.068 C 
ATOM     23  C   LIG    1       26.232 -24.519   6.596  0.00  0.00    +0.038 C 
ATOM     24  C   LIG    1       25.988 -23.203   7.304  0.00  0.00    -0.033 C 
ATOM     25  C   LIG    1       24.763 -22.569   7.076  0.00  0.00    +0.006 C 
ATOM     26  C   LIG    1       24.427 -21.368   7.667  0.00  0.00    +0.047 C 
ATOM     27  N   LIG    1       23.164 -21.063   7.203  0.00  0.00    -0.360 NA
ATOM     28  H   LIG    1       22.641 -20.239   7.462  0.00  0.00    +0.165 HD
ATOM     29  C   LIG    1       22.727 -22.036   6.324  0.00  0.00    +0.087 C 
ATOM     30  C   LIG    1       25.306 -20.715   8.532  0.00  0.00    +0.026 C 
ATOM     31  C   LIG    1       26.541 -21.345   8.771  0.00  0.00    +0.002 C 
ATOM     32  C   LIG    1       23.720 -22.981   6.222  0.00  0.00    -0.021 C 
ATOM     33  C   LIG    1       26.878 -22.570   8.176  0.00  0.00    +0.005 C 
ATOM     34  C   LIG    1       25.892 -25.709   7.508  0.00  0.00    +0.023 C 
ATOM     35  C   LIG    1       26.088 -27.039   6.768  0.00  0.00    +0.090 C 
ATOM     36  C   LIG    1       23.872 -24.240   5.432  0.00  0.00    +0.056 C 
ATOM     37  C   LIG    1       25.333 -27.041   5.426  0.00  0.00    +0.097 C 
ENDBRANCH  16  35
ENDBRANCH   1  17
BRANCH   6  38
ATOM     38  O   LIG    1       23.054 -29.686  10.178  0.00  0.00    -0.348 OA
ATOM     39  H   LIG    1       23.609 -28.941   9.860  0.00  0.00    +0.214 HD
ENDBRANCH   6  38
BRANCH  14  40
ATOM     40  C   LIG    1       25.187 -30.661  12.228  0.00  0.00    +0.067 C 
BRANCH  40  41
ATOM     41  C   LIG    1       26.447 -29.990  12.739  0.00  0.00    -0.045 A 
ATOM     42  C   LIG    1       26.447 -29.312  13.965  0.00  0.00    +0.003 A 
ATOM     43  C   LIG    1       27.580 -28.647  14.432  0.00  0.00    +0.000 A 
ATOM     44  C   LIG    1       28.761 -28.707  13.707  0.00  0.00    +0.000 A 
ATOM     45  C   LIG    1       28.797 -29.417  12.507  0.00  0.00    +0.000 A 
ATOM     46  C   LIG    1       27.644 -30.042  12.016  0.00  0.00    +0.003 A 
ENDBRANCH  40  41
ENDBRANCH  14  40
TORSDOF 5
ENDMDL
MODEL 8
REMARK VINA RESULT:      -6.1      3.644     10.213
REMARK  Name = *****
REMARK                            x       y       z     vdW  Elec       q    Type
REMARK                         _______ _______ _______ _____ _____    ______ ____
ROOT
ATOM      1  C   LIG    1       25.975 -28.464  11.784  0.00  0.00    +0.215 C 
ATOM      2  C   LIG    1       26.637 -27.561  12.812  0.00  0.00    +0.074 C 
ATOM      3  C   LIG    1       24.507 -28.720  12.168  0.00  0.00    +0.271 C 
ATOM      4  O   LIG    1       23.675 -27.895  12.467  0.00  0.00    -0.270 OA
ATOM      5  N   LIG    1       24.345 -30.095  12.095  0.00  0.00    -0.233 N 
ATOM      6  C   LIG    1       25.629 -30.710  12.199  0.00  0.00    +0.269 C 
ATOM      7  C   LIG    1       25.892 -31.177  13.647  0.00  0.00    +0.156 C 
ATOM      8  N   LIG    1       24.717 -31.646  14.370  0.00  0.00    -0.290 N 
ATOM      9  C   LIG    1       23.426 -31.232  14.115  0.00  0.00    +0.237 C 
ATOM     10  O   LIG    1       22.513 -31.432  14.915  0.00  0.00    -0.274 OA
ATOM     11  C   LIG    1       25.093 -32.474  15.496  0.00  0.00    +0.108 C 
ATOM     12  C   LIG    1       26.591 -32.731  15.305  0.00  0.00    +0.021 C 
ATOM     13  C   LIG    1       26.870 -32.331  13.852  0.00  0.00    +0.031 C 
ATOM     14  C   LIG    1       23.155 -30.744  12.664  0.00  0.00    +0.171 C 
ATOM     15  O   LIG    1       26.614 -29.734  11.860  0.00  0.00    -0.299 OA
ENDROOT
BRANCH   1  17
ATOM     16  C   LIG    1       26.125 -28.629   9.293  0.00  0.00    +0.220 C 
ATOM     17  N   LIG    1       26.154 -27.897  10.456  0.00  0.00    -0.280 N 
ATOM     18  H   LIG    1       26.239 -26.892  10.400  0.00  0.00    +0.152 HD
ATOM     19  O   LIG    1       26.036 -29.855   9.282  0.00  0.00    -0.275 OA
BRANCH  16  35
ATOM     20  C   LIG    1       24.640 -28.199   4.629  0.00  0.00    +0.105 C 
ATOM     21  N   LIG    1       25.448 -27.583   5.680  0.00  0.00    -0.301 NA
ATOM     22  C   LIG    1       25.146 -26.145   5.865  0.00  0.00    +0.068 C 
ATOM     23  C   LIG    1       26.171 -25.538   6.906  0.00  0.00    +0.038 C 
ATOM     24  C   LIG    1       25.912 -24.062   7.117  0.00  0.00    -0.033 C 
ATOM     25  C   LIG    1       24.608 -23.602   6.909  0.00  0.00    +0.006 C 
ATOM     26  C   LIG    1       24.253 -22.278   7.071  0.00  0.00    +0.047 C 
ATOM     27  N   LIG    1       22.907 -22.214   6.777  0.00  0.00    -0.360 NA
ATOM     28  H   LIG    1       22.353 -21.371   6.810  0.00  0.00    +0.165 HD
ATOM     29  C   LIG    1       22.433 -23.461   6.415  0.00  0.00    +0.087 C 
ATOM     30  C   LIG    1       25.190 -21.318   7.455  0.00  0.00    +0.026 C 
ATOM     31  C   LIG    1       26.505 -21.770   7.669  0.00  0.00    +0.002 C 
ATOM     32  C   LIG    1       23.487 -24.341   6.479  0.00  0.00    -0.021 C 
ATOM     33  C   LIG    1       26.864 -23.117   7.512  0.00  0.00    +0.005 C 
ATOM     34  C   LIG    1       26.106 -26.305   8.238  0.00  0.00    +0.023 C 
ATOM     35  C   LIG    1       26.313 -27.810   8.013  0.00  0.00    +0.090 C 
ATOM     36  C   LIG    1       23.636 -25.799   6.190  0.00  0.00    +0.056 C 
ATOM     37  C   LIG    1       25.354 -28.344   6.933  0.00  0.00    +0.097 C 
ENDBRANCH  16  35
ENDBRANCH   1  17
BRANCH   6  38
ATOM     38  O   LIG    1       25.708 -31.751  11.273  0.00  0.00    -0.348 OA
ATOM     39  H   LIG    1       25.046 -31.460  10.610  0.00  0.00    +0.214 HD
ENDBRANCH   6  38
BRANCH  14  40
ATOM     40  C   LIG    1       22.654 -31.959  11.844  0.00  0.00    +0.067 C 
BRANCH  40  41
ATOM     41  C   LIG    1       21.178 -31.943  11.496  0.00  0.00    -0.045 A 
ATOM     42  C   LIG    1       20.667 -30.991  10.604  0.00  0.00    +0.003 A 
ATOM     43  C   LIG    1       19.306 -30.926  10.306  0.00  0.00    +0.000 A 
ATOM     44  C   LIG    1       18.438 -31.862  10.847  0.00  0.00    +0.000 A 
ATOM     45  C   LIG    1       18.933 -32.848  11.700  0.00  0.00    +0.000 A 
ATOM     46  C   LIG    1       20.292 -32.881  12.037  0.00  0.00    +0.003 A 
ENDBRANCH  40  41
ENDBRANCH  14  40
TORSDOF 5
ENDMDL
MODEL 9
REMARK VINA RESULT:      -6.1      3.305     10.140
REMARK  Name = *****
REMARK                            x       y       z     vdW  Elec       q    Type
REMARK                         _______ _______ _______ _____ _____    ______ ____
ROOT
ATOM      1  C   LIG    1       26.375 -27.758  11.510  0.00  0.00    +0.215 C 
ATOM      2  C   LIG    1       26.213 -26.621  12.506  0.00  0.00    +0.074 C 
ATOM      3  C   LIG    1       25.304 -28.835  11.755  0.00  0.00    +0.271 C 
ATOM      4  O   LIG    1       24.113 -28.669  11.875  0.00  0.00    -0.270 OA
ATOM      5  N   LIG    1       25.998 -30.035  11.808  0.00  0.00    -0.233 N 
ATOM      6  C   LIG    1       27.364 -29.756  12.115  0.00  0.00    +0.269 C 
ATOM      7  C   LIG    1       27.632 -29.947  13.624  0.00  0.00    +0.156 C 
ATOM      8  N   LIG    1       26.869 -31.013  14.258  0.00  0.00    -0.290 N 
ATOM      9  C   LIG    1       25.639 -31.460  13.822  0.00  0.00    +0.237 C 
ATOM     10  O   LIG    1       24.913 -32.154  14.534  0.00  0.00    -0.274 OA
ATOM     11  C   LIG    1       27.488 -31.431  15.498  0.00  0.00    +0.108 C 
ATOM     12  C   LIG    1       28.856 -30.744  15.499  0.00  0.00    +0.021 C 
ATOM     13  C   LIG    1       29.059 -30.281  14.052  0.00  0.00    +0.031 C 
ATOM     14  C   LIG    1       25.352 -31.257  12.308  0.00  0.00    +0.171 C 
ATOM     15  O   LIG    1       27.621 -28.391  11.786  0.00  0.00    -0.299 OA
ENDROOT
BRANCH   1  17
ATOM     16  C   LIG    1       26.546 -27.981   9.025  0.00  0.00    +0.220 C 
ATOM     17  N   LIG    1       26.380 -27.220  10.158  0.00  0.00    -0.280 N 
ATOM     18  H   LIG    1       26.184 -26.234  10.062  0.00  0.00    +0.152 HD
ATOM     19  O   LIG    1       26.799 -29.183   9.063  0.00  0.00    -0.275 OA
BRANCH  16  35
ATOM     20  C   LIG    1       24.289 -27.732   4.667  0.00  0.00    +0.105 C 
ATOM     21  N   LIG    1       25.242 -27.063   5.552  0.00  0.00    -0.301 NA
ATOM     22  C   LIG    1       24.930 -25.629   5.748  0.00  0.00    +0.068 C 
ATOM     23  C   LIG    1       26.095 -24.964   6.586  0.00  0.00    +0.038 C 
ATOM     24  C   LIG    1       25.829 -23.489   6.799  0.00  0.00    -0.033 C 
ATOM     25  C   LIG    1       24.495 -23.070   6.802  0.00  0.00    +0.006 C 
ATOM     26  C   LIG    1       24.130 -21.752   6.988  0.00  0.00    +0.047 C 
ATOM     27  N   LIG    1       22.753 -21.732   6.923  0.00  0.00    -0.360 NA
ATOM     28  H   LIG    1       22.186 -20.904   7.027  0.00  0.00    +0.165 HD
ATOM     29  C   LIG    1       22.265 -23.002   6.677  0.00  0.00    +0.087 C 
ATOM     30  C   LIG    1       25.088 -20.756   7.184  0.00  0.00    +0.026 C 
ATOM     31  C   LIG    1       26.434 -21.166   7.186  0.00  0.00    +0.002 C 
ATOM     32  C   LIG    1       23.342 -23.851   6.586  0.00  0.00    -0.021 C 
ATOM     33  C   LIG    1       26.803 -22.507   7.005  0.00  0.00    +0.005 C 
ATOM     34  C   LIG    1       26.278 -25.691   7.929  0.00  0.00    +0.023 C 
ATOM     35  C   LIG    1       26.492 -27.196   7.711  0.00  0.00    +0.090 C 
ATOM     36  C   LIG    1       23.486 -25.314   6.314  0.00  0.00    +0.056 C 
ATOM     37  C   LIG    1       25.382 -27.788   6.822  0.00  0.00    +0.097 C 
ENDBRANCH  16  35
ENDBRANCH   1  17
BRANCH   6  38
ATOM     38  O   LIG    1       28.180 -30.558  11.316  0.00  0.00    -0.348 OA
ATOM     39  H   LIG    1       28.291 -31.344  11.893  0.00  0.00    +0.214 HD
ENDBRANCH   6  38
BRANCH  14  40
ATOM     40  C   LIG    1       25.795 -32.545  11.568  0.00  0.00    +0.067 C 
BRANCH  40  41
ATOM     41  C   LIG    1       25.607 -32.525  10.063  0.00  0.00    -0.045 A 
ATOM     42  C   LIG    1       26.666 -32.860   9.209  0.00  0.00    +0.003 A 
ATOM     43  C   LIG    1       26.532 -32.802   7.822  0.00  0.00    +0.000 A 
ATOM     44  C   LIG    1       25.307 -32.472   7.263  0.00  0.00    +0.000 A 
ATOM     45  C   LIG    1       24.226 -32.182   8.095  0.00  0.00    +0.000 A 
ATOM     46  C   LIG    1       24.376 -32.192   9.487  0.00  0.00    +0.003 A 
ENDBRANCH  40  41
ENDBRANCH  14  40
TORSDOF 5
ENDMDL
