MODEL 1
REMARK VINA RESULT:      -3.8      0.000      0.000
REMARK  Name = *****
REMARK                            x       y       z     vdW  Elec       q    Type
REMARK                         _______ _______ _______ _____ _____    ______ ____
ROOT
ATOM      1  C   LIG    1       26.354 -16.441   3.317  0.00  0.00    +0.228 C 
ENDROOT
BRANCH   1   2
ATOM      2  C   LIG    1       27.382 -16.657   4.448  0.00  0.00    +0.275 C 
BRANCH   2   3
ATOM      3  O   LIG    1       28.145 -17.835   4.179  0.00  0.00    -0.488 OA
BRANCH   3  12
ATOM      4  C   LIG    1       23.971 -21.572   4.917  0.00  0.00    +0.063 C 
ATOM      5  C   LIG    1       25.270 -20.929   5.233  0.00  0.00    +0.014 C 
ATOM      6  N   LIG    1       26.112 -21.450   6.181  0.00  0.00    -0.358 NA
ATOM      7  H   LIG    1       25.921 -22.269   6.741  0.00  0.00    +0.166 HD
ATOM      8  C   LIG    1       27.283 -20.729   6.239  0.00  0.00    +0.050 C 
ATOM      9  C   LIG    1       28.420 -20.940   7.021  0.00  0.00    +0.026 C 
ATOM     10  C   LIG    1       29.472 -20.040   6.872  0.00  0.00    +0.006 C 
ATOM     11  C   LIG    1       29.394 -18.977   5.968  0.00  0.00    +0.046 C 
ATOM     12  C   LIG    1       28.266 -18.788   5.155  0.00  0.00    +0.130 C 
ATOM     13  C   LIG    1       27.178 -19.684   5.320  0.00  0.00    +0.042 C 
ATOM     14  C   LIG    1       25.888 -19.810   4.713  0.00  0.00    +0.034 C 
ENDBRANCH   3  12
ENDBRANCH   2   3
ENDBRANCH   1   2
BRANCH   1  15
ATOM     15  O   LIG    1       26.681 -15.267   2.538  0.00  0.00    -0.453 OA
BRANCH  15  16
ATOM     16  C   LIG    1       27.107 -14.147   3.177  0.00  0.00    +0.340 C 
ATOM     17  O   LIG    1       28.240 -13.827   3.428  0.00  0.00    -0.245 OA
BRANCH  16  18
ATOM     18  C   LIG    1       25.918 -13.298   3.473  0.00  0.00    +0.059 C 
ATOM     19  C   LIG    1       25.572 -13.063   4.811  0.00  0.00    +0.015 C 
ATOM     20  C   LIG    1       24.496 -12.232   5.122  0.00  0.00    +0.001 C 
ATOM     21  C   LIG    1       23.767 -11.619   4.102  0.00  0.00    +0.000 C 
ATOM     22  C   LIG    1       24.112 -11.834   2.768  0.00  0.00    +0.001 C 
ATOM     23  C   LIG    1       25.182 -12.671   2.451  0.00  0.00    +0.015 C 
ENDBRANCH  16  18
ENDBRANCH  15  16
ENDBRANCH   1  15
BRANCH   1  24
ATOM     24  C   LIG    1       24.915 -16.455   3.868  0.00  0.00    +0.129 C 
BRANCH  24  25
ATOM     25  N   LIG    1       24.183 -17.726   3.690  0.00  0.00    -0.308 NA
ATOM     26  H   LIG    1       24.698 -18.476   4.153  0.00  0.00    +0.123 HD
BRANCH  25  27
ATOM     27  C   LIG    1       22.796 -17.684   4.213  0.00  0.00    +0.011 C 
ATOM     28  C   LIG    1       22.726 -18.590   5.458  0.00  0.00    +0.027 C 
ATOM     29  C   LIG    1       21.791 -18.226   3.180  0.00  0.00    +0.027 C 
ATOM     30  C   LIG    1       22.393 -16.261   4.643  0.00  0.00    +0.027 C 
ENDBRANCH  25  27
ENDBRANCH  24  25
ENDBRANCH   1  24
TORSDOF 9
ENDMDL
MODEL 2
REMARK VINA RESULT:      -2.4      1.479      2.201
REMARK  Name = *****
REMARK                            x       y       z     vdW  Elec       q    Type
REMARK                         _______ _______ _______ _____ _____    ______ ____
ROOT
ATOM      1  C   LIG    1       25.553 -16.798   3.195  0.00  0.00    +0.228 C 
ENDROOT
BRANCH   1   2
ATOM      2  C   LIG    1       26.925 -16.997   3.874  0.00  0.00    +0.275 C 
BRANCH   2   3
ATOM      3  O   LIG    1       27.333 -18.359   3.732  0.00  0.00    -0.488 OA
BRANCH   3  12
ATOM      4  C   LIG    1       23.617 -21.572   6.525  0.00  0.00    +0.063 C 
ATOM      5  C   LIG    1       24.940 -20.943   6.292  0.00  0.00    +0.014 C 
ATOM      6  N   LIG    1       26.028 -21.261   7.062  0.00  0.00    -0.358 NA
ATOM      7  H   LIG    1       26.021 -21.907   7.839  0.00  0.00    +0.166 HD
ATOM      8  C   LIG    1       27.153 -20.612   6.605  0.00  0.00    +0.050 C 
ATOM      9  C   LIG    1       28.470 -20.687   7.062  0.00  0.00    +0.026 C 
ATOM     10  C   LIG    1       29.419 -19.908   6.402  0.00  0.00    +0.006 C 
ATOM     11  C   LIG    1       29.065 -19.096   5.321  0.00  0.00    +0.046 C 
ATOM     12  C   LIG    1       27.747 -19.050   4.839  0.00  0.00    +0.130 C 
ATOM     13  C   LIG    1       26.769 -19.819   5.523  0.00  0.00    +0.042 C 
ATOM     14  C   LIG    1       25.362 -20.019   5.356  0.00  0.00    +0.034 C 
ENDBRANCH   3  12
ENDBRANCH   2   3
ENDBRANCH   1   2
BRANCH   1  15
ATOM     15  O   LIG    1       25.400 -15.438   2.728  0.00  0.00    -0.453 OA
BRANCH  15  16
ATOM     16  C   LIG    1       25.051 -14.470   3.615  0.00  0.00    +0.340 C 
ATOM     17  O   LIG    1       23.951 -14.208   4.026  0.00  0.00    -0.245 OA
BRANCH  16  18
ATOM     18  C   LIG    1       26.296 -13.795   4.083  0.00  0.00    +0.059 C 
ATOM     19  C   LIG    1       27.181 -13.274   3.128  0.00  0.00    +0.015 C 
ATOM     20  C   LIG    1       28.328 -12.593   3.532  0.00  0.00    +0.001 C 
ATOM     21  C   LIG    1       28.594 -12.415   4.891  0.00  0.00    +0.000 C 
ATOM     22  C   LIG    1       27.714 -12.916   5.849  0.00  0.00    +0.001 C 
ATOM     23  C   LIG    1       26.568 -13.605   5.449  0.00  0.00    +0.015 C 
ENDBRANCH  16  18
ENDBRANCH  15  16
ENDBRANCH   1  15
BRANCH   1  24
ATOM     24  C   LIG    1       24.410 -17.290   4.104  0.00  0.00    +0.129 C 
BRANCH  24  25
ATOM     25  N   LIG    1       23.482 -18.258   3.485  0.00  0.00    -0.308 NA
ATOM     26  H   LIG    1       23.885 -19.194   3.546  0.00  0.00    +0.123 HD
BRANCH  25  27
ATOM     27  C   LIG    1       22.135 -18.260   4.103  0.00  0.00    +0.011 C 
ATOM     28  C   LIG    1       22.081 -17.120   5.140  0.00  0.00    +0.027 C 
ATOM     29  C   LIG    1       21.860 -19.582   4.844  0.00  0.00    +0.027 C 
ATOM     30  C   LIG    1       21.030 -18.001   3.062  0.00  0.00    +0.027 C 
ENDBRANCH  25  27
ENDBRANCH  24  25
ENDBRANCH   1  24
TORSDOF 9
ENDMDL
MODEL 3
REMARK VINA RESULT:      -2.4      2.028      3.940
REMARK  Name = *****
REMARK                            x       y       z     vdW  Elec       q    Type
REMARK                         _______ _______ _______ _____ _____    ______ ____
ROOT
ATOM      1  C   LIG    1       25.695 -16.921   3.787  0.00  0.00    +0.228 C 
ENDROOT
BRANCH   1   2
ATOM      2  C   LIG    1       25.866 -18.351   3.230  0.00  0.00    +0.275 C 
BRANCH   2   3
ATOM      3  O   LIG    1       26.652 -19.124   4.139  0.00  0.00    -0.488 OA
BRANCH   3  12
ATOM      4  C   LIG    1       21.029 -19.661   3.992  0.00  0.00    +0.063 C 
ATOM      5  C   LIG    1       22.381 -19.845   4.574  0.00  0.00    +0.014 C 
ATOM      6  N   LIG    1       22.581 -20.629   5.681  0.00  0.00    -0.358 NA
ATOM      7  H   LIG    1       21.855 -21.110   6.191  0.00  0.00    +0.166 HD
ATOM      8  C   LIG    1       23.922 -20.708   5.982  0.00  0.00    +0.050 C 
ATOM      9  C   LIG    1       24.566 -21.432   6.988  0.00  0.00    +0.026 C 
ATOM     10  C   LIG    1       25.953 -21.326   7.062  0.00  0.00    +0.006 C 
ATOM     11  C   LIG    1       26.668 -20.536   6.157  0.00  0.00    +0.046 C 
ATOM     12  C   LIG    1       26.024 -19.840   5.122  0.00  0.00    +0.130 C 
ATOM     13  C   LIG    1       24.608 -19.920   5.057  0.00  0.00    +0.042 C 
ATOM     14  C   LIG    1       23.616 -19.360   4.192  0.00  0.00    +0.034 C 
ENDBRANCH   3  12
ENDBRANCH   2   3
ENDBRANCH   1   2
BRANCH   1  15
ATOM     15  O   LIG    1       24.519 -16.288   3.233  0.00  0.00    -0.453 OA
BRANCH  15  16
ATOM     16  C   LIG    1       23.626 -15.700   4.071  0.00  0.00    +0.340 C 
ATOM     17  O   LIG    1       22.891 -16.237   4.858  0.00  0.00    -0.245 OA
BRANCH  16  18
ATOM     18  C   LIG    1       23.748 -14.222   3.920  0.00  0.00    +0.059 C 
ATOM     19  C   LIG    1       23.816 -13.679   2.629  0.00  0.00    +0.015 C 
ATOM     20  C   LIG    1       23.879 -12.297   2.452  0.00  0.00    +0.001 C 
ATOM     21  C   LIG    1       23.860 -11.447   3.560  0.00  0.00    +0.000 C 
ATOM     22  C   LIG    1       23.778 -11.976   4.847  0.00  0.00    +0.001 C 
ATOM     23  C   LIG    1       23.723 -13.358   5.030  0.00  0.00    +0.015 C 
ENDBRANCH  16  18
ENDBRANCH  15  16
ENDBRANCH   1  15
BRANCH   1  24
ATOM     24  C   LIG    1       26.992 -16.105   3.621  0.00  0.00    +0.129 C 
BRANCH  24  25
ATOM     25  N   LIG    1       26.835 -14.800   2.948  0.00  0.00    -0.308 NA
ATOM     26  H   LIG    1       25.840 -14.593   2.847  0.00  0.00    +0.123 HD
BRANCH  25  27
ATOM     27  C   LIG    1       27.499 -13.685   3.665  0.00  0.00    +0.011 C 
ATOM     28  C   LIG    1       27.184 -12.376   2.913  0.00  0.00    +0.027 C 
ATOM     29  C   LIG    1       29.029 -13.861   3.682  0.00  0.00    +0.027 C 
ATOM     30  C   LIG    1       26.970 -13.539   5.104  0.00  0.00    +0.027 C 
ENDBRANCH  25  27
ENDBRANCH  24  25
ENDBRANCH   1  24
TORSDOF 9
ENDMDL
MODEL 4
REMARK VINA RESULT:      -1.8      2.183      6.909
REMARK  Name = *****
REMARK                            x       y       z     vdW  Elec       q    Type
REMARK                         _______ _______ _______ _____ _____    ______ ____
ROOT
ATOM      1  C   LIG    1       24.709 -18.651   3.961  0.00  0.00    +0.228 C 
ENDROOT
BRANCH   1   2
ATOM      2  C   LIG    1       25.931 -17.911   3.375  0.00  0.00    +0.275 C 
BRANCH   2   3
ATOM      3  O   LIG    1       25.496 -16.715   2.725  0.00  0.00    -0.488 OA
BRANCH   3  12
ATOM      4  C   LIG    1       29.351 -12.726   3.800  0.00  0.00    +0.063 C 
ATOM      5  C   LIG    1       28.020 -13.372   3.910  0.00  0.00    +0.014 C 
ATOM      6  N   LIG    1       26.977 -12.753   4.548  0.00  0.00    -0.358 NA
ATOM      7  H   LIG    1       27.025 -11.852   5.002  0.00  0.00    +0.166 HD
ATOM      8  C   LIG    1       25.831 -13.509   4.449  0.00  0.00    +0.050 C 
ATOM      9  C   LIG    1       24.542 -13.234   4.910  0.00  0.00    +0.026 C 
ATOM     10  C   LIG    1       23.561 -14.193   4.668  0.00  0.00    +0.006 C 
ATOM     11  C   LIG    1       23.855 -15.375   3.983  0.00  0.00    +0.046 C 
ATOM     12  C   LIG    1       25.143 -15.633   3.487  0.00  0.00    +0.130 C 
ATOM     13  C   LIG    1       26.156 -14.675   3.753  0.00  0.00    +0.042 C 
ATOM     14  C   LIG    1       27.549 -14.583   3.444  0.00  0.00    +0.034 C 
ENDBRANCH   3  12
ENDBRANCH   2   3
ENDBRANCH   1   2
BRANCH   1  15
ATOM     15  O   LIG    1       25.034 -19.256   5.234  0.00  0.00    -0.453 OA
BRANCH  15  16
ATOM     16  C   LIG    1       25.519 -20.525   5.259  0.00  0.00    +0.340 C 
ATOM     17  O   LIG    1       24.982 -21.527   4.865  0.00  0.00    -0.245 OA
BRANCH  16  18
ATOM     18  C   LIG    1       26.907 -20.483   5.803  0.00  0.00    +0.059 C 
ATOM     19  C   LIG    1       27.652 -19.304   5.662  0.00  0.00    +0.015 C 
ATOM     20  C   LIG    1       28.934 -19.215   6.204  0.00  0.00    +0.001 C 
ATOM     21  C   LIG    1       29.475 -20.296   6.903  0.00  0.00    +0.000 C 
ATOM     22  C   LIG    1       28.736 -21.467   7.062  0.00  0.00    +0.001 C 
ATOM     23  C   LIG    1       27.457 -21.564   6.514  0.00  0.00    +0.015 C 
ENDBRANCH  16  18
ENDBRANCH  15  16
ENDBRANCH   1  15
BRANCH   1  24
ATOM     24  C   LIG    1       24.107 -19.626   2.931  0.00  0.00    +0.129 C 
BRANCH  24  25
ATOM     25  N   LIG    1       23.122 -20.585   3.470  0.00  0.00    -0.308 NA
ATOM     26  H   LIG    1       23.614 -21.314   3.988  0.00  0.00    +0.123 HD
BRANCH  25  27
ATOM     27  C   LIG    1       22.107 -19.955   4.348  0.00  0.00    +0.011 C 
ATOM     28  C   LIG    1       20.795 -20.754   4.215  0.00  0.00    +0.027 C 
ATOM     29  C   LIG    1       21.820 -18.503   3.922  0.00  0.00    +0.027 C 
ATOM     30  C   LIG    1       22.533 -19.994   5.828  0.00  0.00    +0.027 C 
ENDBRANCH  25  27
ENDBRANCH  24  25
ENDBRANCH   1  24
TORSDOF 9
ENDMDL
MODEL 5
REMARK VINA RESULT:      -1.7      1.857      4.440
REMARK  Name = *****
REMARK                            x       y       z     vdW  Elec       q    Type
REMARK                         _______ _______ _______ _____ _____    ______ ____
ROOT
ATOM      1  C   LIG    1       26.538 -16.069   3.774  0.00  0.00    +0.228 C 
ENDROOT
BRANCH   1   2
ATOM      2  C   LIG    1       26.836 -17.577   3.629  0.00  0.00    +0.275 C 
BRANCH   2   3
ATOM      3  O   LIG    1       25.676 -18.243   3.125  0.00  0.00    -0.488 OA
BRANCH   3  12
ATOM      4  C   LIG    1       28.741 -20.895   7.062  0.00  0.00    +0.063 C 
ATOM      5  C   LIG    1       27.524 -20.641   6.253  0.00  0.00    +0.014 C 
ATOM      6  N   LIG    1       26.343 -21.283   6.520  0.00  0.00    -0.358 NA
ATOM      7  H   LIG    1       26.208 -21.974   7.245  0.00  0.00    +0.166 HD
ATOM      8  C   LIG    1       25.344 -20.825   5.690  0.00  0.00    +0.050 C 
ATOM      9  C   LIG    1       23.991 -21.169   5.654  0.00  0.00    +0.026 C 
ATOM     10  C   LIG    1       23.200 -20.540   4.696  0.00  0.00    +0.006 C 
ATOM     11  C   LIG    1       23.738 -19.596   3.817  0.00  0.00    +0.046 C 
ATOM     12  C   LIG    1       25.090 -19.223   3.880  0.00  0.00    +0.130 C 
ATOM     13  C   LIG    1       25.910 -19.880   4.834  0.00  0.00    +0.042 C 
ATOM     14  C   LIG    1       27.294 -19.796   5.185  0.00  0.00    +0.034 C 
ENDBRANCH   3  12
ENDBRANCH   2   3
ENDBRANCH   1   2
BRANCH   1  15
ATOM     15  O   LIG    1       26.054 -15.516   2.529  0.00  0.00    -0.453 OA
BRANCH  15  16
ATOM     16  C   LIG    1       25.198 -14.461   2.562  0.00  0.00    +0.340 C 
ATOM     17  O   LIG    1       25.171 -13.511   1.824  0.00  0.00    -0.245 OA
BRANCH  16  18
ATOM     18  C   LIG    1       24.206 -14.699   3.650  0.00  0.00    +0.059 C 
ATOM     19  C   LIG    1       23.493 -15.906   3.661  0.00  0.00    +0.015 C 
ATOM     20  C   LIG    1       22.596 -16.180   4.692  0.00  0.00    +0.001 C 
ATOM     21  C   LIG    1       22.414 -15.260   5.727  0.00  0.00    +0.000 C 
ATOM     22  C   LIG    1       23.129 -14.064   5.733  0.00  0.00    +0.001 C 
ATOM     23  C   LIG    1       24.023 -13.780   4.699  0.00  0.00    +0.015 C 
ENDBRANCH  16  18
ENDBRANCH  15  16
ENDBRANCH   1  15
BRANCH   1  24
ATOM     24  C   LIG    1       27.747 -15.322   4.371  0.00  0.00    +0.129 C 
BRANCH  24  25
ATOM     25  N   LIG    1       28.307 -14.249   3.525  0.00  0.00    -0.308 NA
ATOM     26  H   LIG    1       27.891 -14.305   2.595  0.00  0.00    +0.123 HD
BRANCH  25  27
ATOM     27  C   LIG    1       28.092 -12.891   4.079  0.00  0.00    +0.011 C 
ATOM     28  C   LIG    1       27.255 -12.086   3.064  0.00  0.00    +0.027 C 
ATOM     29  C   LIG    1       29.426 -12.149   4.282  0.00  0.00    +0.027 C 
ATOM     30  C   LIG    1       27.308 -12.934   5.404  0.00  0.00    +0.027 C 
ENDBRANCH  25  27
ENDBRANCH  24  25
ENDBRANCH   1  24
TORSDOF 9
ENDMDL
MODEL 6
REMARK VINA RESULT:      -1.6      2.002      4.052
REMARK  Name = *****
REMARK                            x       y       z     vdW  Elec       q    Type
REMARK                         _______ _______ _______ _____ _____    ______ ____
ROOT
ATOM      1  C   LIG    1       26.379 -16.114   3.735  0.00  0.00    +0.228 C 
ENDROOT
BRANCH   1   2
ATOM      2  C   LIG    1       26.826 -17.531   3.315  0.00  0.00    +0.275 C 
BRANCH   2   3
ATOM      3  O   LIG    1       25.745 -18.446   3.504  0.00  0.00    -0.488 OA
BRANCH   3  12
ATOM      4  C   LIG    1       21.132 -21.419   4.851  0.00  0.00    +0.063 C 
ATOM      5  C   LIG    1       22.539 -20.975   5.013  0.00  0.00    +0.014 C 
ATOM      6  N   LIG    1       23.375 -21.568   5.922  0.00  0.00    -0.358 NA
ATOM      7  H   LIG    1       23.113 -22.312   6.554  0.00  0.00    +0.166 HD
ATOM      8  C   LIG    1       24.643 -21.041   5.831  0.00  0.00    +0.050 C 
ATOM      9  C   LIG    1       25.802 -21.386   6.530  0.00  0.00    +0.026 C 
ATOM     10  C   LIG    1       26.962 -20.675   6.230  0.00  0.00    +0.006 C 
ATOM     11  C   LIG    1       26.965 -19.668   5.262  0.00  0.00    +0.046 C 
ATOM     12  C   LIG    1       25.808 -19.348   4.533  0.00  0.00    +0.130 C 
ATOM     13  C   LIG    1       24.615 -20.048   4.851  0.00  0.00    +0.042 C 
ATOM     14  C   LIG    1       23.271 -20.001   4.364  0.00  0.00    +0.034 C 
ENDBRANCH   3  12
ENDBRANCH   2   3
ENDBRANCH   1   2
BRANCH   1  15
ATOM     15  O   LIG    1       25.780 -15.410   2.623  0.00  0.00    -0.453 OA
BRANCH  15  16
ATOM     16  C   LIG    1       24.851 -14.451   2.870  0.00  0.00    +0.340 C 
ATOM     17  O   LIG    1       24.735 -13.381   2.331  0.00  0.00    -0.245 OA
BRANCH  16  18
ATOM     18  C   LIG    1       23.908 -14.969   3.903  0.00  0.00    +0.059 C 
ATOM     19  C   LIG    1       23.601 -14.158   5.004  0.00  0.00    +0.015 C 
ATOM     20  C   LIG    1       22.685 -14.592   5.961  0.00  0.00    +0.001 C 
ATOM     21  C   LIG    1       22.058 -15.832   5.819  0.00  0.00    +0.000 C 
ATOM     22  C   LIG    1       22.345 -16.640   4.720  0.00  0.00    +0.001 C 
ATOM     23  C   LIG    1       23.267 -16.213   3.763  0.00  0.00    +0.015 C 
ENDBRANCH  16  18
ENDBRANCH  15  16
ENDBRANCH   1  15
BRANCH   1  24
ATOM     24  C   LIG    1       27.529 -15.353   4.423  0.00  0.00    +0.129 C 
BRANCH  24  25
ATOM     25  N   LIG    1       28.217 -14.354   3.580  0.00  0.00    -0.308 NA
ATOM     26  H   LIG    1       27.924 -14.476   2.610  0.00  0.00    +0.123 HD
BRANCH  25  27
ATOM     27  C   LIG    1       27.964 -12.955   3.999  0.00  0.00    +0.011 C 
ATOM     28  C   LIG    1       27.104 -12.986   5.279  0.00  0.00    +0.027 C 
ATOM     29  C   LIG    1       27.179 -12.181   2.924  0.00  0.00    +0.027 C 
ATOM     30  C   LIG    1       29.273 -12.215   4.331  0.00  0.00    +0.027 C 
ENDBRANCH  25  27
ENDBRANCH  24  25
ENDBRANCH   1  24
TORSDOF 9
ENDMDL
MODEL 7
REMARK VINA RESULT:      -1.1      2.067      3.638
REMARK  Name = *****
REMARK                            x       y       z     vdW  Elec       q    Type
REMARK                         _______ _______ _______ _____ _____    ______ ____
ROOT
ATOM      1  C   LIG    1       23.533 -16.896   4.043  0.00  0.00    +0.228 C 
ENDROOT
BRANCH   1   2
ATOM      2  C   LIG    1       24.821 -17.720   3.836  0.00  0.00    +0.275 C 
BRANCH   2   3
ATOM      3  O   LIG    1       24.480 -19.095   3.644  0.00  0.00    -0.488 OA
BRANCH   3  12
ATOM      4  C   LIG    1       29.368 -19.874   6.369  0.00  0.00    +0.063 C 
ATOM      5  C   LIG    1       27.931 -20.117   6.092  0.00  0.00    +0.014 C 
ATOM      6  N   LIG    1       27.171 -20.912   6.910  0.00  0.00    -0.358 NA
ATOM      7  H   LIG    1       27.512 -21.401   7.725  0.00  0.00    +0.166 HD
ATOM      8  C   LIG    1       25.859 -20.921   6.494  0.00  0.00    +0.050 C 
ATOM      9  C   LIG    1       24.751 -21.553   7.061  0.00  0.00    +0.026 C 
ATOM     10  C   LIG    1       23.525 -21.389   6.419  0.00  0.00    +0.006 C 
ATOM     11  C   LIG    1       23.412 -20.614   5.262  0.00  0.00    +0.046 C 
ATOM     12  C   LIG    1       24.520 -19.948   4.714  0.00  0.00    +0.130 C 
ATOM     13  C   LIG    1       25.777 -20.132   5.345  0.00  0.00    +0.042 C 
ATOM     14  C   LIG    1       27.101 -19.654   5.090  0.00  0.00    +0.034 C 
ENDBRANCH   3  12
ENDBRANCH   2   3
ENDBRANCH   1   2
BRANCH   1  15
ATOM     15  O   LIG    1       23.829 -15.620   4.657  0.00  0.00    -0.453 OA
BRANCH  15  16
ATOM     16  C   LIG    1       24.045 -14.538   3.864  0.00  0.00    +0.340 C 
ATOM     17  O   LIG    1       23.234 -13.918   3.228  0.00  0.00    -0.245 OA
BRANCH  16  18
ATOM     18  C   LIG    1       25.487 -14.172   3.957  0.00  0.00    +0.059 C 
ATOM     19  C   LIG    1       26.290 -14.295   2.815  0.00  0.00    +0.015 C 
ATOM     20  C   LIG    1       27.631 -13.913   2.855  0.00  0.00    +0.001 C 
ATOM     21  C   LIG    1       28.175 -13.391   4.030  0.00  0.00    +0.000 C 
ATOM     22  C   LIG    1       27.382 -13.250   5.167  0.00  0.00    +0.001 C 
ATOM     23  C   LIG    1       26.042 -13.639   5.135  0.00  0.00    +0.015 C 
ENDBRANCH  16  18
ENDBRANCH  15  16
ENDBRANCH   1  15
BRANCH   1  24
ATOM     24  C   LIG    1       22.461 -17.721   4.782  0.00  0.00    +0.129 C 
BRANCH  24  25
ATOM     25  N   LIG    1       21.077 -17.533   4.302  0.00  0.00    -0.308 NA
ATOM     26  H   LIG    1       21.005 -16.628   3.836  0.00  0.00    +0.123 HD
BRANCH  25  27
ATOM     27  C   LIG    1       20.626 -18.601   3.378  0.00  0.00    +0.011 C 
ATOM     28  C   LIG    1       21.737 -18.835   2.336  0.00  0.00    +0.027 C 
ATOM     29  C   LIG    1       19.351 -18.185   2.621  0.00  0.00    +0.027 C 
ATOM     30  C   LIG    1       20.388 -19.930   4.118  0.00  0.00    +0.027 C 
ENDBRANCH  25  27
ENDBRANCH  24  25
ENDBRANCH   1  24
TORSDOF 9
ENDMDL
