MODEL 1
REMARK VINA RESULT:       7.1      0.000      0.000
REMARK  Name = *****
REMARK                            x       y       z     vdW  Elec       q    Type
REMARK                         _______ _______ _______ _____ _____    ______ ____
ROOT
ATOM      1  C   ALA A  1       23.602 -19.421   4.977  0.00  0.00    +0.233 C 
ATOM      2  N   UNK A  2       23.102 -18.358   4.241  0.00  0.00    -0.282 N 
ATOM      3  C   UNK A  2       21.808 -17.771   4.672  0.00  0.00    +0.189 C 
ATOM      4  C   UNK A  2       22.012 -16.386   5.273  0.00  0.00    +0.069 C 
ATOM      5  C   UNK A  2       22.945 -15.539   4.455  0.00  0.00    -0.037 A 
ATOM      6  C   UNK A  2       23.814 -16.097   3.516  0.00  0.00    -0.023 A 
ATOM      7  C   UNK A  2       24.599 -15.233   2.748  0.00  0.00    +0.054 A 
ATOM      8  C   UNK A  2       24.493 -13.836   2.877  0.00  0.00    +0.162 A 
ATOM      9  C   UNK A  2       23.720 -13.291   3.919  0.00  0.00    +0.162 A 
ATOM     10  C   UNK A  2       22.938 -14.160   4.680  0.00  0.00    +0.053 A 
ATOM     11  C   UNK A  2       23.837 -17.580   3.232  0.00  0.00    +0.144 C 
ATOM     12  O   ALA A  1       22.921 -19.927   5.876  0.00  0.00    -0.274 OA
ENDROOT
BRANCH   1  13
ATOM     13  CA  ALA A  1       24.993 -20.036   4.695  0.00  0.00    +0.138 C 
ATOM     14  CB  ALA A  1       24.983 -21.553   4.858  0.00  0.00    +0.034 C 
BRANCH  13  15
ATOM     15  N   ALA A  1       26.041 -19.325   5.470  0.00  0.00    -0.294 NA
ATOM     16  H   ALA A  1       25.857 -18.321   5.389  0.00  0.00    +0.123 HD
BRANCH  15  17
ATOM     17  C   UNK A  0       27.410 -19.551   4.923  0.00  0.00    +0.164 C 
BRANCH  17  18
ATOM     18  C   UNK A  0       28.342 -20.298   5.883  0.00  0.00    +0.324 C 
ATOM     19  O   UNK A  0       28.080 -21.359   6.445  0.00  0.00    -0.249 OA
BRANCH  18  20
ATOM     20  O   UNK A  0       29.468 -19.554   6.079  0.00  0.00    -0.464 OA
BRANCH  20  22
ATOM     21  C   UNK A  0       29.470 -17.141   6.434  0.00  0.00    +0.048 C 
ATOM     22  C   UNK A  0       29.364 -18.516   7.058  0.00  0.00    +0.229 C 
ENDBRANCH  20  22
ENDBRANCH  18  20
ENDBRANCH  17  18
BRANCH  17  23
ATOM     23  C   UNK A  0       28.067 -18.193   4.634  0.00  0.00    +0.035 C 
BRANCH  23  24
ATOM     24  C   UNK A  0       27.192 -17.307   3.729  0.00  0.00    +0.037 C 
BRANCH  24  25
ATOM     25  C   UNK A  0       27.331 -15.844   4.059  0.00  0.00    -0.047 A 
ATOM     26  C   UNK A  0       27.909 -14.960   3.137  0.00  0.00    +0.003 A 
ATOM     27  C   UNK A  0       28.040 -13.606   3.445  0.00  0.00    +0.000 A 
ATOM     28  C   UNK A  0       27.595 -13.124   4.675  0.00  0.00    +0.000 A 
ATOM     29  C   UNK A  0       27.014 -13.993   5.595  0.00  0.00    +0.000 A 
ATOM     30  C   UNK A  0       26.877 -15.345   5.286  0.00  0.00    +0.003 A 
ENDBRANCH  24  25
ENDBRANCH  23  24
ENDBRANCH  17  23
ENDBRANCH  15  17
ENDBRANCH  13  15
ENDBRANCH   1  13
BRANCH   3  31
ATOM     31  C   UNK A  2       20.727 -17.760   3.566  0.00  0.00    +0.326 C 
ATOM     32  O   UNK A  2       20.473 -16.824   2.859  0.00  0.00    -0.249 OA
BRANCH  31  33
ATOM     33  O   UNK A  2       19.989 -18.903   3.546  0.00  0.00    -0.479 OA
ATOM     34  H   UNK A  2       19.044 -18.721   3.698  0.00  0.00    +0.295 HD
ENDBRANCH  31  33
ENDBRANCH   3  31
BRANCH   9  35
ATOM     35  O   UNK A  2       23.674 -11.930   4.111  0.00  0.00    -0.491 OA
ATOM     36  C   UNK A  2       23.864 -11.490   5.463  0.00  0.00    +0.277 C 
ENDBRANCH   9  35
BRANCH   8  37
ATOM     37  O   UNK A  2       25.135 -13.000   1.996  0.00  0.00    -0.491 OA
ATOM     38  C   UNK A  2       24.997 -11.601   2.287  0.00  0.00    +0.277 C 
ENDBRANCH   8  37
TORSDOF 13
ENDMDL
