MODEL 1
REMARK VINA RESULT:      -9.3      0.000      0.000
REMARK  Name = *****
REMARK                            x       y       z     vdW  Elec       q    Type
REMARK                         _______ _______ _______ _____ _____    ______ ____
ROOT
ATOM      1  N   LIG    1       26.347 -22.994   6.739  0.00  0.00    -0.309 NA
ATOM      2  H   LIG    1       27.060 -23.640   6.410  0.00  0.00    +0.122 HD
ENDROOT
BRANCH   1   4
ATOM      3  C   LIG    1       25.869 -21.491   8.652  0.00  0.00    +0.029 C 
ATOM      4  C   LIG    1       26.946 -22.045   7.702  0.00  0.00    +0.081 C 
BRANCH   4   5
ATOM      5  C   LIG    1       27.696 -20.899   7.019  0.00  0.00    -0.023 A 
ATOM      6  C   LIG    1       29.028 -20.527   7.385  0.00  0.00    -0.013 A 
ATOM      7  C   LIG    1       29.675 -19.505   6.635  0.00  0.00    -0.018 A 
ATOM      8  C   LIG    1       30.988 -19.118   6.948  0.00  0.00    +0.008 A 
ATOM      9  C   LIG    1       31.686 -19.710   7.997  0.00  0.00    +0.001 A 
ATOM     10  C   LIG    1       31.076 -20.704   8.748  0.00  0.00    +0.001 A 
ATOM     11  C   LIG    1       29.008 -18.877   5.577  0.00  0.00    +0.008 A 
ATOM     12  C   LIG    1       27.710 -19.235   5.233  0.00  0.00    +0.001 A 
ATOM     13  C   LIG    1       29.771 -21.102   8.446  0.00  0.00    +0.009 A 
ATOM     14  C   LIG    1       27.065 -20.241   5.942  0.00  0.00    +0.006 A 
ENDBRANCH   4   5
ENDBRANCH   1   4
BRANCH   1  15
ATOM     15  C   LIG    1       25.227 -23.748   7.321  0.00  0.00    +0.082 C 
BRANCH  15  16
ATOM     16  C   LIG    1       24.011 -23.741   6.390  0.00  0.00    +0.020 C 
BRANCH  16  17
ATOM     17  C   LIG    1       23.198 -22.452   6.572  0.00  0.00    +0.036 C 
BRANCH  17  18
ATOM     18  C   LIG    1       23.448 -21.445   5.473  0.00  0.00    -0.047 A 
ATOM     19  C   LIG    1       22.786 -20.208   5.481  0.00  0.00    +0.016 A 
ATOM     20  C   LIG    1       23.008 -19.260   4.466  0.00  0.00    +0.055 A 
ATOM     21  C   LIG    1       23.913 -19.564   3.440  0.00  0.00    +0.012 A 
ATOM     22  C   LIG    1       24.577 -20.791   3.426  0.00  0.00    +0.001 A 
ATOM     23  C   LIG    1       24.346 -21.727   4.436  0.00  0.00    +0.003 A 
BRANCH  20  24
ATOM     24  C   LIG    1       22.272 -17.944   4.493  0.00  0.00    +0.417 C 
ATOM     25  F   LIG    1       21.092 -17.992   3.814  0.00  0.00    -0.166 F 
ATOM     26  F   LIG    1       22.988 -16.934   3.925  0.00  0.00    -0.166 F 
ATOM     27  F   LIG    1       21.960 -17.516   5.749  0.00  0.00    -0.166 F 
ENDBRANCH  20  24
ENDBRANCH  17  18
ENDBRANCH  16  17
ENDBRANCH  15  16
ENDBRANCH   1  15
TORSDOF 7
ENDMDL
MODEL 2
REMARK VINA RESULT:      -9.0      1.380      2.085
REMARK  Name = *****
REMARK                            x       y       z     vdW  Elec       q    Type
REMARK                         _______ _______ _______ _____ _____    ______ ____
ROOT
ATOM      1  N   LIG    1       26.529 -23.062   6.550  0.00  0.00    -0.309 NA
ATOM      2  H   LIG    1       27.225 -23.318   5.853  0.00  0.00    +0.122 HD
ENDROOT
BRANCH   1   4
ATOM      3  C   LIG    1       26.116 -21.789   8.637  0.00  0.00    +0.029 C 
ATOM      4  C   LIG    1       27.161 -22.225   7.594  0.00  0.00    +0.081 C 
BRANCH   4   5
ATOM      5  C   LIG    1       27.886 -21.005   7.020  0.00  0.00    -0.023 A 
ATOM      6  C   LIG    1       29.186 -20.607   7.463  0.00  0.00    -0.013 A 
ATOM      7  C   LIG    1       29.816 -19.510   6.811  0.00  0.00    -0.018 A 
ATOM      8  C   LIG    1       31.099 -19.094   7.201  0.00  0.00    +0.008 A 
ATOM      9  C   LIG    1       31.783 -19.729   8.234  0.00  0.00    +0.001 A 
ATOM     10  C   LIG    1       31.188 -20.796   8.891  0.00  0.00    +0.001 A 
ATOM     11  C   LIG    1       29.161 -18.837   5.773  0.00  0.00    +0.008 A 
ATOM     12  C   LIG    1       27.893 -19.221   5.355  0.00  0.00    +0.001 A 
ATOM     13  C   LIG    1       29.913 -21.224   8.511  0.00  0.00    +0.009 A 
ATOM     14  C   LIG    1       27.267 -20.299   5.967  0.00  0.00    +0.006 A 
ENDBRANCH   4   5
ENDBRANCH   1   4
BRANCH   1  15
ATOM     15  C   LIG    1       25.913 -24.275   7.104  0.00  0.00    +0.082 C 
BRANCH  15  16
ATOM     16  C   LIG    1       24.792 -24.791   6.196  0.00  0.00    +0.020 C 
BRANCH  16  17
ATOM     17  C   LIG    1       23.450 -24.155   6.580  0.00  0.00    +0.036 C 
BRANCH  17  18
ATOM     18  C   LIG    1       23.429 -22.660   6.360  0.00  0.00    -0.047 A 
ATOM     19  C   LIG    1       23.738 -22.124   5.101  0.00  0.00    +0.016 A 
ATOM     20  C   LIG    1       23.722 -20.736   4.880  0.00  0.00    +0.055 A 
ATOM     21  C   LIG    1       23.382 -19.884   5.939  0.00  0.00    +0.012 A 
ATOM     22  C   LIG    1       23.070 -20.408   7.194  0.00  0.00    +0.001 A 
ATOM     23  C   LIG    1       23.095 -21.789   7.403  0.00  0.00    +0.003 A 
BRANCH  20  24
ATOM     24  C   LIG    1       24.072 -20.187   3.519  0.00  0.00    +0.417 C 
ATOM     25  F   LIG    1       25.363 -19.758   3.445  0.00  0.00    -0.166 F 
ATOM     26  F   LIG    1       23.304 -19.116   3.174  0.00  0.00    -0.166 F 
ATOM     27  F   LIG    1       23.923 -21.090   2.509  0.00  0.00    -0.166 F 
ENDBRANCH  20  24
ENDBRANCH  17  18
ENDBRANCH  16  17
ENDBRANCH  15  16
ENDBRANCH   1  15
TORSDOF 7
ENDMDL
MODEL 3
REMARK VINA RESULT:      -8.9      5.305      7.131
REMARK  Name = *****
REMARK                            x       y       z     vdW  Elec       q    Type
REMARK                         _______ _______ _______ _____ _____    ______ ____
ROOT
ATOM      1  N   LIG    1       23.507 -23.226   6.078  0.00  0.00    -0.309 NA
ATOM      2  H   LIG    1       23.680 -23.050   5.091  0.00  0.00    +0.122 HD
ENDROOT
BRANCH   1   4
ATOM      3  C   LIG    1       23.170 -21.452   7.776  0.00  0.00    +0.029 C 
ATOM      4  C   LIG    1       24.187 -22.194   6.891  0.00  0.00    +0.081 C 
BRANCH   4   5
ATOM      5  C   LIG    1       24.983 -21.199   6.042  0.00  0.00    -0.023 A 
ATOM      6  C   LIG    1       26.343 -20.863   6.328  0.00  0.00    -0.013 A 
ATOM      7  C   LIG    1       27.028 -19.993   5.433  0.00  0.00    -0.018 A 
ATOM      8  C   LIG    1       28.368 -19.648   5.665  0.00  0.00    +0.008 A 
ATOM      9  C   LIG    1       29.060 -20.134   6.771  0.00  0.00    +0.001 A 
ATOM     10  C   LIG    1       28.414 -20.978   7.663  0.00  0.00    +0.001 A 
ATOM     11  C   LIG    1       26.368 -19.475   4.312  0.00  0.00    +0.008 A 
ATOM     12  C   LIG    1       25.043 -19.796   4.046  0.00  0.00    +0.001 A 
ATOM     13  C   LIG    1       27.080 -21.333   7.443  0.00  0.00    +0.009 A 
ATOM     14  C   LIG    1       24.361 -20.655   4.898  0.00  0.00    +0.006 A 
ENDBRANCH   4   5
ENDBRANCH   1   4
BRANCH   1  15
ATOM     15  C   LIG    1       23.946 -24.586   6.422  0.00  0.00    +0.082 C 
BRANCH  15  16
ATOM     16  C   LIG    1       25.453 -24.754   6.204  0.00  0.00    +0.020 C 
BRANCH  16  17
ATOM     17  C   LIG    1       25.743 -26.013   5.378  0.00  0.00    +0.036 C 
BRANCH  17  18
ATOM     18  C   LIG    1       25.377 -27.285   6.108  0.00  0.00    -0.047 A 
ATOM     19  C   LIG    1       25.922 -27.561   7.371  0.00  0.00    +0.016 A 
ATOM     20  C   LIG    1       25.591 -28.739   8.062  0.00  0.00    +0.055 A 
ATOM     21  C   LIG    1       24.695 -29.642   7.474  0.00  0.00    +0.012 A 
ATOM     22  C   LIG    1       24.146 -29.375   6.220  0.00  0.00    +0.001 A 
ATOM     23  C   LIG    1       24.486 -28.204   5.540  0.00  0.00    +0.003 A 
BRANCH  20  24
ATOM     24  C   LIG    1       26.204 -29.016   9.413  0.00  0.00    +0.417 C 
ATOM     25  F   LIG    1       27.144 -30.001   9.369  0.00  0.00    -0.166 F 
ATOM     26  F   LIG    1       25.282 -29.421  10.331  0.00  0.00    -0.166 F 
ATOM     27  F   LIG    1       26.825 -27.935   9.964  0.00  0.00    -0.166 F 
ENDBRANCH  20  24
ENDBRANCH  17  18
ENDBRANCH  16  17
ENDBRANCH  15  16
ENDBRANCH   1  15
TORSDOF 7
ENDMDL
MODEL 4
REMARK VINA RESULT:      -8.8      5.450      8.488
REMARK  Name = *****
REMARK                            x       y       z     vdW  Elec       q    Type
REMARK                         _______ _______ _______ _____ _____    ______ ____
ROOT
ATOM      1  N   LIG    1       24.095 -29.060   5.478  0.00  0.00    -0.309 NA
ATOM      2  H   LIG    1       23.271 -29.014   6.073  0.00  0.00    +0.122 HD
ENDROOT
BRANCH   1   4
ATOM      3  C   LIG    1       25.536 -31.064   5.253  0.00  0.00    +0.029 C 
ATOM      4  C   LIG    1       25.139 -29.871   6.140  0.00  0.00    +0.081 C 
BRANCH   4   5
ATOM      5  C   LIG    1       24.722 -30.355   7.531  0.00  0.00    -0.023 A 
ATOM      6  C   LIG    1       25.221 -29.760   8.732  0.00  0.00    -0.013 A 
ATOM      7  C   LIG    1       24.711 -30.221   9.978  0.00  0.00    -0.018 A 
ATOM      8  C   LIG    1       25.160 -29.655  11.182  0.00  0.00    +0.008 A 
ATOM      9  C   LIG    1       26.115 -28.643  11.194  0.00  0.00    +0.001 A 
ATOM     10  C   LIG    1       26.634 -28.180   9.994  0.00  0.00    +0.001 A 
ATOM     11  C   LIG    1       23.755 -31.242  10.014  0.00  0.00    +0.008 A 
ATOM     12  C   LIG    1       23.282 -31.825   8.844  0.00  0.00    +0.001 A 
ATOM     13  C   LIG    1       26.194 -28.731   8.787  0.00  0.00    +0.009 A 
ATOM     14  C   LIG    1       23.755 -31.379   7.616  0.00  0.00    +0.006 A 
ENDBRANCH   4   5
ENDBRANCH   1   4
BRANCH   1  15
ATOM     15  C   LIG    1       24.556 -27.699   5.167  0.00  0.00    +0.082 C 
BRANCH  15  16
ATOM     16  C   LIG    1       24.335 -26.755   6.353  0.00  0.00    +0.020 C 
BRANCH  16  17
ATOM     17  C   LIG    1       25.454 -25.709   6.428  0.00  0.00    +0.036 C 
BRANCH  17  18
ATOM     18  C   LIG    1       24.944 -24.333   6.787  0.00  0.00    -0.047 A 
ATOM     19  C   LIG    1       25.826 -23.350   7.258  0.00  0.00    +0.016 A 
ATOM     20  C   LIG    1       25.367 -22.064   7.595  0.00  0.00    +0.055 A 
ATOM     21  C   LIG    1       24.005 -21.770   7.447  0.00  0.00    +0.012 A 
ATOM     22  C   LIG    1       23.120 -22.741   6.978  0.00  0.00    +0.001 A 
ATOM     23  C   LIG    1       23.587 -24.016   6.650  0.00  0.00    +0.003 A 
BRANCH  20  24
ATOM     24  C   LIG    1       26.337 -21.031   8.112  0.00  0.00    +0.417 C 
ATOM     25  F   LIG    1       27.542 -21.569   8.452  0.00  0.00    -0.166 F 
ATOM     26  F   LIG    1       25.881 -20.401   9.232  0.00  0.00    -0.166 F 
ATOM     27  F   LIG    1       26.611 -20.041   7.217  0.00  0.00    -0.166 F 
ENDBRANCH  20  24
ENDBRANCH  17  18
ENDBRANCH  16  17
ENDBRANCH  15  16
ENDBRANCH   1  15
TORSDOF 7
ENDMDL
MODEL 5
REMARK VINA RESULT:      -8.5      6.551      9.384
REMARK  Name = *****
REMARK                            x       y       z     vdW  Elec       q    Type
REMARK                         _______ _______ _______ _____ _____    ______ ____
ROOT
ATOM      1  N   LIG    1       25.522 -28.781   6.920  0.00  0.00    -0.309 NA
ATOM      2  H   LIG    1       26.527 -28.940   6.899  0.00  0.00    +0.122 HD
ENDROOT
BRANCH   1   4
ATOM      3  C   LIG    1       23.966 -29.960   8.448  0.00  0.00    +0.029 C 
ATOM      4  C   LIG    1       24.825 -30.061   7.174  0.00  0.00    +0.081 C 
BRANCH   4   5
ATOM      5  C   LIG    1       25.782 -31.251   7.268  0.00  0.00    -0.023 A 
ATOM      6  C   LIG    1       26.221 -31.976   6.115  0.00  0.00    -0.013 A 
ATOM      7  C   LIG    1       27.178 -33.014   6.293  0.00  0.00    -0.018 A 
ATOM      8  C   LIG    1       27.649 -33.741   5.188  0.00  0.00    +0.008 A 
ATOM      9  C   LIG    1       27.192 -33.478   3.900  0.00  0.00    +0.001 A 
ATOM     10  C   LIG    1       26.254 -32.476   3.701  0.00  0.00    +0.001 A 
ATOM     11  C   LIG    1       27.659 -33.318   7.572  0.00  0.00    +0.008 A 
ATOM     12  C   LIG    1       27.221 -32.618   8.689  0.00  0.00    +0.001 A 
ATOM     13  C   LIG    1       25.778 -31.741   4.790  0.00  0.00    +0.009 A 
ATOM     14  C   LIG    1       26.298 -31.590   8.537  0.00  0.00    +0.006 A 
ENDBRANCH   4   5
ENDBRANCH   1   4
BRANCH   1  15
ATOM     15  C   LIG    1       25.096 -28.153   5.662  0.00  0.00    +0.082 C 
BRANCH  15  16
ATOM     16  C   LIG    1       24.476 -26.775   5.913  0.00  0.00    +0.020 C 
BRANCH  16  17
ATOM     17  C   LIG    1       25.553 -25.767   6.337  0.00  0.00    +0.036 C 
BRANCH  17  18
ATOM     18  C   LIG    1       24.975 -24.425   6.723  0.00  0.00    -0.047 A 
ATOM     19  C   LIG    1       25.816 -23.390   7.157  0.00  0.00    +0.016 A 
ATOM     20  C   LIG    1       25.295 -22.135   7.519  0.00  0.00    +0.055 A 
ATOM     21  C   LIG    1       23.912 -21.925   7.433  0.00  0.00    +0.012 A 
ATOM     22  C   LIG    1       23.069 -22.948   7.000  0.00  0.00    +0.001 A 
ATOM     23  C   LIG    1       23.597 -24.191   6.648  0.00  0.00    +0.003 A 
BRANCH  20  24
ATOM     24  C   LIG    1       26.222 -21.045   7.996  0.00  0.00    +0.417 C 
ATOM     25  F   LIG    1       27.421 -21.529   8.426  0.00  0.00    -0.166 F 
ATOM     26  F   LIG    1       25.706 -20.342   9.043  0.00  0.00    -0.166 F 
ATOM     27  F   LIG    1       26.518 -20.120   7.039  0.00  0.00    -0.166 F 
ENDBRANCH  20  24
ENDBRANCH  17  18
ENDBRANCH  16  17
ENDBRANCH  15  16
ENDBRANCH   1  15
TORSDOF 7
ENDMDL
MODEL 6
REMARK VINA RESULT:      -8.4      3.938      5.465
REMARK  Name = *****
REMARK                            x       y       z     vdW  Elec       q    Type
REMARK                         _______ _______ _______ _____ _____    ______ ____
ROOT
ATOM      1  N   LIG    1       27.930 -20.423   5.765  0.00  0.00    -0.309 NA
ATOM      2  H   LIG    1       28.339 -21.292   6.102  0.00  0.00    +0.122 HD
ENDROOT
BRANCH   1   4
ATOM      3  C   LIG    1       29.328 -18.425   5.320  0.00  0.00    +0.029 C 
ATOM      4  C   LIG    1       28.624 -19.276   6.391  0.00  0.00    +0.081 C 
BRANCH   4   5
ATOM      5  C   LIG    1       29.617 -19.702   7.474  0.00  0.00    -0.023 A 
ATOM      6  C   LIG    1       30.130 -18.787   8.448  0.00  0.00    -0.013 A 
ATOM      7  C   LIG    1       30.983 -19.294   9.468  0.00  0.00    -0.018 A 
ATOM      8  C   LIG    1       31.496 -18.436  10.454  0.00  0.00    +0.008 A 
ATOM      9  C   LIG    1       31.197 -17.077  10.458  0.00  0.00    +0.001 A 
ATOM     10  C   LIG    1       30.373 -16.557   9.471  0.00  0.00    +0.001 A 
ATOM     11  C   LIG    1       31.317 -20.653   9.498  0.00  0.00    +0.008 A 
ATOM     12  C   LIG    1       30.826 -21.534   8.543  0.00  0.00    +0.001 A 
ATOM     13  C   LIG    1       29.851 -17.399   8.485  0.00  0.00    +0.009 A 
ATOM     14  C   LIG    1       29.978 -21.064   7.547  0.00  0.00    +0.006 A 
ENDBRANCH   4   5
ENDBRANCH   1   4
BRANCH   1  15
ATOM     15  C   LIG    1       26.486 -20.419   6.036  0.00  0.00    +0.082 C 
BRANCH  15  16
ATOM     16  C   LIG    1       26.205 -20.413   7.542  0.00  0.00    +0.020 C 
BRANCH  16  17
ATOM     17  C   LIG    1       26.339 -21.827   8.123  0.00  0.00    +0.036 C 
BRANCH  17  18
ATOM     18  C   LIG    1       25.355 -22.801   7.517  0.00  0.00    -0.047 A 
ATOM     19  C   LIG    1       25.782 -24.068   7.093  0.00  0.00    +0.016 A 
ATOM     20  C   LIG    1       24.880 -24.987   6.528  0.00  0.00    +0.055 A 
ATOM     21  C   LIG    1       23.533 -24.622   6.400  0.00  0.00    +0.012 A 
ATOM     22  C   LIG    1       23.099 -23.365   6.821  0.00  0.00    +0.001 A 
ATOM     23  C   LIG    1       24.005 -22.459   7.376  0.00  0.00    +0.003 A 
BRANCH  20  24
ATOM     24  C   LIG    1       25.370 -26.337   6.068  0.00  0.00    +0.417 C 
ATOM     25  F   LIG    1       24.395 -27.287   6.103  0.00  0.00    -0.166 F 
ATOM     26  F   LIG    1       26.385 -26.815   6.842  0.00  0.00    -0.166 F 
ATOM     27  F   LIG    1       25.846 -26.341   4.790  0.00  0.00    -0.166 F 
ENDBRANCH  20  24
ENDBRANCH  17  18
ENDBRANCH  16  17
ENDBRANCH  15  16
ENDBRANCH   1  15
TORSDOF 7
ENDMDL
MODEL 7
REMARK VINA RESULT:      -8.4      5.267      6.833
REMARK  Name = *****
REMARK                            x       y       z     vdW  Elec       q    Type
REMARK                         _______ _______ _______ _____ _____    ______ ____
ROOT
ATOM      1  N   LIG    1       25.925 -22.501   6.239  0.00  0.00    -0.309 NA
ATOM      2  H   LIG    1       26.444 -23.135   5.636  0.00  0.00    +0.122 HD
ENDROOT
BRANCH   1   4
ATOM      3  C   LIG    1       26.023 -21.512   8.510  0.00  0.00    +0.029 C 
ATOM      4  C   LIG    1       26.828 -21.952   7.274  0.00  0.00    +0.081 C 
BRANCH   4   5
ATOM      5  C   LIG    1       27.690 -20.797   6.758  0.00  0.00    -0.023 A 
ATOM      6  C   LIG    1       29.006 -20.540   7.256  0.00  0.00    -0.013 A 
ATOM      7  C   LIG    1       29.765 -19.496   6.656  0.00  0.00    -0.018 A 
ATOM      8  C   LIG    1       31.067 -19.219   7.101  0.00  0.00    +0.008 A 
ATOM      9  C   LIG    1       31.646 -19.943   8.139  0.00  0.00    +0.001 A 
ATOM     10  C   LIG    1       30.926 -20.961   8.746  0.00  0.00    +0.001 A 
ATOM     11  C   LIG    1       29.218 -18.737   5.614  0.00  0.00    +0.008 A 
ATOM     12  C   LIG    1       27.934 -18.984   5.143  0.00  0.00    +0.001 A 
ATOM     13  C   LIG    1       29.630 -21.252   8.311  0.00  0.00    +0.009 A 
ATOM     14  C   LIG    1       27.182 -20.008   5.704  0.00  0.00    +0.006 A 
ENDBRANCH   4   5
ENDBRANCH   1   4
BRANCH   1  15
ATOM     15  C   LIG    1       24.772 -23.203   6.819  0.00  0.00    +0.082 C 
BRANCH  15  16
ATOM     16  C   LIG    1       24.494 -24.517   6.081  0.00  0.00    +0.020 C 
BRANCH  16  17
ATOM     17  C   LIG    1       25.721 -25.437   6.136  0.00  0.00    +0.036 C 
BRANCH  17  18
ATOM     18  C   LIG    1       25.367 -26.858   6.508  0.00  0.00    -0.047 A 
ATOM     19  C   LIG    1       25.930 -27.454   7.646  0.00  0.00    +0.016 A 
ATOM     20  C   LIG    1       25.610 -28.775   8.006  0.00  0.00    +0.055 A 
ATOM     21  C   LIG    1       24.707 -29.495   7.212  0.00  0.00    +0.012 A 
ATOM     22  C   LIG    1       24.141 -28.910   6.080  0.00  0.00    +0.001 A 
ATOM     23  C   LIG    1       24.469 -27.598   5.729  0.00  0.00    +0.003 A 
BRANCH  20  24
ATOM     24  C   LIG    1       26.242 -29.395   9.228  0.00  0.00    +0.417 C 
ATOM     25  F   LIG    1       26.868 -30.573   8.952  0.00  0.00    -0.166 F 
ATOM     26  F   LIG    1       25.330 -29.677  10.201  0.00  0.00    -0.166 F 
ATOM     27  F   LIG    1       27.182 -28.605   9.819  0.00  0.00    -0.166 F 
ENDBRANCH  20  24
ENDBRANCH  17  18
ENDBRANCH  16  17
ENDBRANCH  15  16
ENDBRANCH   1  15
TORSDOF 7
ENDMDL
MODEL 8
REMARK VINA RESULT:      -8.4      4.913      7.817
REMARK  Name = *****
REMARK                            x       y       z     vdW  Elec       q    Type
REMARK                         _______ _______ _______ _____ _____    ______ ____
ROOT
ATOM      1  N   LIG    1       24.102 -28.041   6.281  0.00  0.00    -0.309 NA
ATOM      2  H   LIG    1       23.733 -27.661   7.149  0.00  0.00    +0.122 HD
ENDROOT
BRANCH   1   4
ATOM      3  C   LIG    1       25.265 -30.049   5.410  0.00  0.00    +0.029 C 
ATOM      4  C   LIG    1       25.123 -29.068   6.586  0.00  0.00    +0.081 C 
BRANCH   4   5
ATOM      5  C   LIG    1       24.832 -29.827   7.883  0.00  0.00    -0.023 A 
ATOM      6  C   LIG    1       25.436 -29.472   9.131  0.00  0.00    -0.013 A 
ATOM      7  C   LIG    1       25.039 -30.182  10.299  0.00  0.00    -0.018 A 
ATOM      8  C   LIG    1       25.593 -29.858  11.548  0.00  0.00    +0.008 A 
ATOM      9  C   LIG    1       26.543 -28.849  11.679  0.00  0.00    +0.001 A 
ATOM     10  C   LIG    1       26.952 -28.148  10.555  0.00  0.00    +0.001 A 
ATOM     11  C   LIG    1       24.092 -31.209  10.213  0.00  0.00    +0.008 A 
ATOM     12  C   LIG    1       23.518 -31.556   8.996  0.00  0.00    +0.001 A 
ATOM     13  C   LIG    1       26.407 -28.456   9.305  0.00  0.00    +0.009 A 
ATOM     14  C   LIG    1       23.879 -30.867   7.846  0.00  0.00    +0.006 A 
ENDBRANCH   4   5
ENDBRANCH   1   4
BRANCH   1  15
ATOM     15  C   LIG    1       24.636 -26.952   5.452  0.00  0.00    +0.082 C 
BRANCH  15  16
ATOM     16  C   LIG    1       24.196 -25.584   5.983  0.00  0.00    +0.020 C 
BRANCH  16  17
ATOM     17  C   LIG    1       25.370 -24.863   6.658  0.00  0.00    +0.036 C 
BRANCH  17  18
ATOM     18  C   LIG    1       25.092 -23.397   6.899  0.00  0.00    -0.047 A 
ATOM     19  C   LIG    1       24.158 -22.713   6.107  0.00  0.00    +0.016 A 
ATOM     20  C   LIG    1       23.888 -21.349   6.319  0.00  0.00    +0.055 A 
ATOM     21  C   LIG    1       24.563 -20.675   7.345  0.00  0.00    +0.012 A 
ATOM     22  C   LIG    1       25.492 -21.349   8.139  0.00  0.00    +0.001 A 
ATOM     23  C   LIG    1       25.756 -22.702   7.917  0.00  0.00    +0.003 A 
BRANCH  20  24
ATOM     24  C   LIG    1       22.889 -20.636   5.442  0.00  0.00    +0.417 C 
ATOM     25  F   LIG    1       21.761 -21.370   5.231  0.00  0.00    -0.166 F 
ATOM     26  F   LIG    1       23.387 -20.353   4.206  0.00  0.00    -0.166 F 
ATOM     27  F   LIG    1       22.466 -19.444   5.952  0.00  0.00    -0.166 F 
ENDBRANCH  20  24
ENDBRANCH  17  18
ENDBRANCH  16  17
ENDBRANCH  15  16
ENDBRANCH   1  15
TORSDOF 7
ENDMDL
MODEL 9
REMARK VINA RESULT:      -8.3      6.638      8.425
REMARK  Name = *****
REMARK                            x       y       z     vdW  Elec       q    Type
REMARK                         _______ _______ _______ _____ _____    ______ ____
ROOT
ATOM      1  N   LIG    1       24.449 -24.653   5.452  0.00  0.00    -0.309 NA
ATOM      2  H   LIG    1       24.538 -24.303   4.501  0.00  0.00    +0.122 HD
ENDROOT
BRANCH   1   4
ATOM      3  C   LIG    1       22.772 -23.359   6.739  0.00  0.00    +0.029 C 
ATOM      4  C   LIG    1       24.260 -23.518   6.381  0.00  0.00    +0.081 C 
BRANCH   4   5
ATOM      5  C   LIG    1       24.822 -22.203   5.834  0.00  0.00    -0.023 A 
ATOM      6  C   LIG    1       26.038 -21.627   6.319  0.00  0.00    -0.013 A 
ATOM      7  C   LIG    1       26.525 -20.447   5.690  0.00  0.00    -0.018 A 
ATOM      8  C   LIG    1       27.723 -19.856   6.123  0.00  0.00    +0.008 A 
ATOM      9  C   LIG    1       28.458 -20.395   7.174  0.00  0.00    +0.001 A 
ATOM     10  C   LIG    1       28.001 -21.540   7.809  0.00  0.00    +0.001 A 
ATOM     11  C   LIG    1       25.814 -19.866   4.634  0.00  0.00    +0.008 A 
ATOM     12  C   LIG    1       24.627 -20.424   4.174  0.00  0.00    +0.001 A 
ATOM     13  C   LIG    1       26.812 -22.143   7.387  0.00  0.00    +0.009 A 
ATOM     14  C   LIG    1       24.141 -21.585   4.763  0.00  0.00    +0.006 A 
ENDBRANCH   4   5
ENDBRANCH   1   4
BRANCH   1  15
ATOM     15  C   LIG    1       25.627 -25.464   5.793  0.00  0.00    +0.082 C 
BRANCH  15  16
ATOM     16  C   LIG    1       25.635 -26.783   5.015  0.00  0.00    +0.020 C 
BRANCH  16  17
ATOM     17  C   LIG    1       24.464 -27.674   5.448  0.00  0.00    +0.036 C 
BRANCH  17  18
ATOM     18  C   LIG    1       24.919 -28.946   6.126  0.00  0.00    -0.047 A 
ATOM     19  C   LIG    1       25.332 -30.048   5.363  0.00  0.00    +0.016 A 
ATOM     20  C   LIG    1       25.759 -31.238   5.978  0.00  0.00    +0.055 A 
ATOM     21  C   LIG    1       25.775 -31.310   7.378  0.00  0.00    +0.012 A 
ATOM     22  C   LIG    1       25.368 -30.218   8.145  0.00  0.00    +0.001 A 
ATOM     23  C   LIG    1       24.941 -29.043   7.523  0.00  0.00    +0.003 A 
BRANCH  20  24
ATOM     24  C   LIG    1       26.185 -32.411   5.132  0.00  0.00    +0.417 C 
ATOM     25  F   LIG    1       25.329 -33.467   5.233  0.00  0.00    -0.166 F 
ATOM     26  F   LIG    1       27.411 -32.891   5.483  0.00  0.00    -0.166 F 
ATOM     27  F   LIG    1       26.266 -32.126   3.801  0.00  0.00    -0.166 F 
ENDBRANCH  20  24
ENDBRANCH  17  18
ENDBRANCH  16  17
ENDBRANCH  15  16
ENDBRANCH   1  15
TORSDOF 7
ENDMDL
