MODEL 1
REMARK VINA RESULT:      11.4      0.000      0.000
REMARK  Name = *****
REMARK                            x       y       z     vdW  Elec       q    Type
REMARK                         _______ _______ _______ _____ _____    ______ ____
ROOT
ATOM      1  C   LIG    1       26.746 -19.748   6.894  0.00  0.00    +0.073 C 
ATOM      2  C   LIG    1       25.788 -20.109   5.754  0.00  0.00    +0.166 C 
ATOM      3  O   LIG    1       24.623 -19.198   5.835  0.00  0.00    -0.332 OA
ATOM      4  C   LIG    1       24.483 -18.712   4.492  0.00  0.00    +0.164 C 
ATOM      5  C   LIG    1       25.961 -18.640   4.140  0.00  0.00    +0.162 C 
ATOM      6  C   LIG    1       26.028 -17.830   2.857  0.00  0.00    +0.039 C 
ATOM      7  C   LIG    1       25.250 -16.626   3.431  0.00  0.00    +0.004 C 
ATOM      8  C   LIG    1       24.949 -15.329   2.691  0.00  0.00    +0.002 C 
ATOM      9  C   LIG    1       24.436 -14.258   3.733  0.00  0.00    +0.031 C 
ATOM     10  C   LIG    1       23.441 -14.839   4.818  0.00  0.00    +0.119 C 
ATOM     11  C   LIG    1       23.643 -16.311   5.275  0.00  0.00    +0.042 C 
ATOM     12  C   LIG    1       25.540 -13.306   4.378  0.00  0.00    -0.002 C 
ATOM     13  C   LIG    1       26.709 -13.021   3.430  0.00  0.00    -0.027 C 
ATOM     14  C   LIG    1       27.602 -12.054   3.730  0.00  0.00    +0.049 C 
ATOM     15  C   LIG    1       28.255 -12.375   5.057  0.00  0.00    +0.156 C 
ATOM     16  C   LIG    1       27.402 -13.000   6.156  0.00  0.00    +0.080 C 
ATOM     17  O   LIG    1       29.399 -11.976   5.265  0.00  0.00    -0.293 OA
ATOM     18  C   LIG    1       27.222 -14.185   2.622  0.00  0.00    +0.193 C 
ATOM     19  F   LIG    1       27.771 -15.123   3.439  0.00  0.00    -0.241 F 
ATOM     20  C   LIG    1       24.808 -11.975   4.739  0.00  0.00    +0.016 C 
ATOM     21  C   LIG    1       26.218 -13.854   5.665  0.00  0.00    +0.019 C 
ATOM     22  C   LIG    1       26.101 -14.815   1.821  0.00  0.00    +0.045 C 
ATOM     23  C   LIG    1       23.983 -17.258   4.115  0.00  0.00    +0.012 C 
ATOM     24  C   LIG    1       22.788 -17.326   3.118  0.00  0.00    +0.015 C 
ATOM     25  O   LIG    1       26.437 -19.921   4.457  0.00  0.00    -0.343 OA
ATOM     26  C   LIG    1       25.372 -21.571   5.886  0.00  0.00    +0.073 C 
ENDROOT
BRANCH  10  27
ATOM     27  O   LIG    1       22.102 -14.715   4.327  0.00  0.00    -0.392 OA
ATOM     28  H   LIG    1       21.885 -15.525   3.834  0.00  0.00    +0.210 HD
ENDBRANCH  10  27
BRANCH   4  29
ATOM     29  C   LIG    1       23.699 -19.821   3.732  0.00  0.00    +0.193 C 
ATOM     30  O   LIG    1       24.115 -20.372   2.708  0.00  0.00    -0.292 OA
BRANCH  29  31
ATOM     31  C   LIG    1       22.329 -20.205   4.298  0.00  0.00    +0.233 C 
BRANCH  31  32
ATOM     32  O   LIG    1       22.424 -21.334   5.157  0.00  0.00    -0.387 OA
ATOM     33  H   LIG    1       23.187 -21.162   5.746  0.00  0.00    +0.210 HD
ENDBRANCH  31  32
ENDBRANCH  29  31
ENDBRANCH   4  29
TORSDOF 4
ENDMDL
MODEL 2
REMARK VINA RESULT:      14.0      2.121      7.045
REMARK  Name = *****
REMARK                            x       y       z     vdW  Elec       q    Type
REMARK                         _______ _______ _______ _____ _____    ______ ____
ROOT
ATOM      1  C   LIG    1       23.844 -13.335   6.144  0.00  0.00    +0.073 C 
ATOM      2  C   LIG    1       24.789 -13.095   4.961  0.00  0.00    +0.166 C 
ATOM      3  O   LIG    1       26.064 -13.792   5.251  0.00  0.00    -0.332 OA
ATOM      4  C   LIG    1       26.322 -14.532   4.049  0.00  0.00    +0.164 C 
ATOM      5  C   LIG    1       24.884 -14.888   3.709  0.00  0.00    +0.162 C 
ATOM      6  C   LIG    1       24.980 -15.958   2.634  0.00  0.00    +0.039 C 
ATOM      7  C   LIG    1       25.892 -16.886   3.465  0.00  0.00    +0.004 C 
ATOM      8  C   LIG    1       26.397 -18.255   3.031  0.00  0.00    +0.002 C 
ATOM      9  C   LIG    1       27.010 -18.991   4.287  0.00  0.00    +0.031 C 
ATOM     10  C   LIG    1       27.871 -18.054   5.227  0.00  0.00    +0.119 C 
ATOM     11  C   LIG    1       27.451 -16.562   5.348  0.00  0.00    +0.042 C 
ATOM     12  C   LIG    1       26.022 -19.929   5.116  0.00  0.00    -0.002 C 
ATOM     13  C   LIG    1       24.942 -20.576   4.243  0.00  0.00    -0.027 C 
ATOM     14  C   LIG    1       24.179 -21.572   4.740  0.00  0.00    +0.049 C 
ATOM     15  C   LIG    1       23.436 -21.069   5.958  0.00  0.00    +0.156 C 
ATOM     16  C   LIG    1       24.150 -20.106   6.900  0.00  0.00    +0.080 C 
ATOM     17  O   LIG    1       22.350 -21.572   6.237  0.00  0.00    -0.293 OA
ATOM     18  C   LIG    1       24.307 -19.700   3.194  0.00  0.00    +0.193 C 
ATOM     19  F   LIG    1       23.603 -18.694   3.780  0.00  0.00    -0.241 F 
ATOM     20  C   LIG    1       26.915 -21.033   5.767  0.00  0.00    +0.016 C 
ATOM     21  C   LIG    1       25.224 -19.218   6.244  0.00  0.00    +0.019 C 
ATOM     22  C   LIG    1       25.362 -19.104   2.285  0.00  0.00    +0.045 C 
ATOM     23  C   LIG    1       27.032 -15.947   4.006  0.00  0.00    +0.012 C 
ATOM     24  C   LIG    1       28.245 -15.926   3.029  0.00  0.00    +0.015 C 
ATOM     25  O   LIG    1       24.225 -13.650   3.732  0.00  0.00    -0.343 OA
ATOM     26  C   LIG    1       24.995 -11.595   4.773  0.00  0.00    +0.073 C 
ENDROOT
BRANCH  10  27
ATOM     27  O   LIG    1       29.234 -18.088   4.788  0.00  0.00    -0.392 OA
ATOM     28  H   LIG    1       29.270 -18.585   3.952  0.00  0.00    +0.210 HD
ENDBRANCH  10  27
BRANCH   4  29
ATOM     29  C   LIG    1       26.976 -13.513   3.072  0.00  0.00    +0.193 C 
ATOM     30  O   LIG    1       26.471 -13.175   1.996  0.00  0.00    -0.292 OA
BRANCH  29  31
ATOM     31  C   LIG    1       28.336 -12.939   3.484  0.00  0.00    +0.233 C 
BRANCH  31  32
ATOM     32  O   LIG    1       28.355 -12.605   4.866  0.00  0.00    -0.387 OA
ATOM     33  H   LIG    1       29.299 -12.593   5.128  0.00  0.00    +0.210 HD
ENDBRANCH  31  32
ENDBRANCH  29  31
ENDBRANCH   4  29
TORSDOF 4
ENDMDL
