MODEL 1
REMARK VINA RESULT:      -6.5      0.000      0.000
REMARK  Name = *****
REMARK                            x       y       z     vdW  Elec       q    Type
REMARK                         _______ _______ _______ _____ _____    ______ ____
ROOT
ATOM      1  C   LIG    1       25.832 -21.537   7.062  0.00  0.00    +0.001 A 
ATOM      2  C   LIG    1       24.500 -21.214   6.810  0.00  0.00    +0.008 A 
ATOM      3  C   LIG    1       24.152 -20.329   5.775  0.00  0.00    -0.018 A 
ATOM      4  C   LIG    1       22.803 -20.026   5.542  0.00  0.00    +0.008 A 
ATOM      5  C   LIG    1       22.433 -19.158   4.519  0.00  0.00    +0.001 A 
ATOM      6  C   LIG    1       23.409 -18.581   3.715  0.00  0.00    +0.005 A 
ATOM      7  C   LIG    1       24.773 -18.852   3.928  0.00  0.00    -0.028 A 
ATOM      8  C   LIG    1       25.161 -19.745   4.968  0.00  0.00    -0.014 A 
ATOM      9  C   LIG    1       26.504 -20.091   5.253  0.00  0.00    +0.009 A 
ATOM     10  C   LIG    1       26.833 -20.978   6.282  0.00  0.00    +0.001 A 
ENDROOT
BRANCH   7  11
ATOM     11  C   LIG    1       25.768 -18.181   2.999  0.00  0.00    +0.163 C 
BRANCH  11  12
ATOM     12  C   LIG    1       26.081 -16.756   3.396  0.00  0.00    +0.285 C 
ATOM     13  N   LIG    1       27.346 -16.350   3.755  0.00  0.00    -0.234 N 
ATOM     14  H   LIG    1       28.119 -16.817   3.291  0.00  0.00    +0.291 HD
ATOM     15  C   LIG    1       27.354 -14.905   3.738  0.00  0.00    +0.272 C 
ATOM     16  C   LIG    1       25.858 -14.605   3.858  0.00  0.00    +0.333 C 
ATOM     17  N   LIG    1       25.146 -15.836   3.410  0.00  0.00    -0.084 NA
ENDBRANCH  11  12
ENDBRANCH   7  11
TORSDOF 2
ENDMDL
MODEL 2
REMARK VINA RESULT:      -6.1      2.097      4.772
REMARK  Name = *****
REMARK                            x       y       z     vdW  Elec       q    Type
REMARK                         _______ _______ _______ _____ _____    ______ ____
ROOT
ATOM      1  C   LIG    1       25.527 -14.510   3.653  0.00  0.00    +0.001 A 
ATOM      2  C   LIG    1       24.225 -14.816   4.045  0.00  0.00    +0.008 A 
ATOM      3  C   LIG    1       23.781 -16.148   4.106  0.00  0.00    -0.018 A 
ATOM      4  C   LIG    1       22.466 -16.426   4.508  0.00  0.00    +0.008 A 
ATOM      5  C   LIG    1       22.005 -17.737   4.582  0.00  0.00    +0.001 A 
ATOM      6  C   LIG    1       22.853 -18.787   4.254  0.00  0.00    +0.005 A 
ATOM      7  C   LIG    1       24.174 -18.546   3.833  0.00  0.00    -0.028 A 
ATOM      8  C   LIG    1       24.657 -17.208   3.761  0.00  0.00    -0.014 A 
ATOM      9  C   LIG    1       25.971 -16.862   3.363  0.00  0.00    +0.009 A 
ATOM     10  C   LIG    1       26.400 -15.533   3.315  0.00  0.00    +0.001 A 
ENDROOT
BRANCH   7  11
ATOM     11  C   LIG    1       25.029 -19.754   3.499  0.00  0.00    +0.163 C 
BRANCH  11  12
ATOM     12  C   LIG    1       25.770 -20.306   4.696  0.00  0.00    +0.285 C 
ATOM     13  N   LIG    1       27.076 -19.973   4.973  0.00  0.00    -0.234 N 
ATOM     14  H   LIG    1       27.367 -19.035   4.718  0.00  0.00    +0.291 HD
ATOM     15  C   LIG    1       27.346 -20.392   6.329  0.00  0.00    +0.272 C 
ATOM     16  C   LIG    1       26.245 -21.436   6.536  0.00  0.00    +0.333 C 
ATOM     17  N   LIG    1       25.187 -21.132   5.531  0.00  0.00    -0.084 NA
ENDBRANCH  11  12
ENDBRANCH   7  11
TORSDOF 2
ENDMDL
MODEL 3
REMARK VINA RESULT:      -5.9      0.908      2.596
REMARK  Name = *****
REMARK                            x       y       z     vdW  Elec       q    Type
REMARK                         _______ _______ _______ _____ _____    ______ ____
ROOT
ATOM      1  C   LIG    1       22.735 -21.427   6.360  0.00  0.00    +0.001 A 
ATOM      2  C   LIG    1       24.009 -21.484   6.922  0.00  0.00    +0.008 A 
ATOM      3  C   LIG    1       25.100 -20.843   6.311  0.00  0.00    -0.018 A 
ATOM      4  C   LIG    1       26.370 -20.914   6.902  0.00  0.00    +0.008 A 
ATOM      5  C   LIG    1       27.464 -20.282   6.320  0.00  0.00    +0.001 A 
ATOM      6  C   LIG    1       27.303 -19.571   5.137  0.00  0.00    +0.005 A 
ATOM      7  C   LIG    1       26.046 -19.489   4.509  0.00  0.00    -0.028 A 
ATOM      8  C   LIG    1       24.919 -20.127   5.101  0.00  0.00    -0.014 A 
ATOM      9  C   LIG    1       23.613 -20.092   4.555  0.00  0.00    +0.009 A 
ATOM     10  C   LIG    1       22.537 -20.729   5.178  0.00  0.00    +0.001 A 
ENDROOT
BRANCH   7  11
ATOM     11  C   LIG    1       25.963 -18.688   3.223  0.00  0.00    +0.163 C 
BRANCH  11  12
ATOM     12  C   LIG    1       26.115 -17.199   3.441  0.00  0.00    +0.285 C 
ATOM     13  N   LIG    1       27.338 -16.605   3.650  0.00  0.00    -0.234 N 
ATOM     14  H   LIG    1       28.132 -17.025   3.176  0.00  0.00    +0.291 HD
ATOM     15  C   LIG    1       27.158 -15.181   3.481  0.00  0.00    +0.272 C 
ATOM     16  C   LIG    1       25.647 -15.052   3.692  0.00  0.00    +0.333 C 
ATOM     17  N   LIG    1       25.072 -16.404   3.435  0.00  0.00    -0.084 NA
ENDBRANCH  11  12
ENDBRANCH   7  11
TORSDOF 2
ENDMDL
MODEL 4
REMARK VINA RESULT:      -5.4      1.917      2.609
REMARK  Name = *****
REMARK                            x       y       z     vdW  Elec       q    Type
REMARK                         _______ _______ _______ _____ _____    ______ ____
ROOT
ATOM      1  C   LIG    1       23.048 -20.738   4.393  0.00  0.00    +0.001 A 
ATOM      2  C   LIG    1       22.348 -19.562   4.656  0.00  0.00    +0.008 A 
ATOM      3  C   LIG    1       22.934 -18.305   4.435  0.00  0.00    -0.018 A 
ATOM      4  C   LIG    1       22.203 -17.138   4.706  0.00  0.00    +0.008 A 
ATOM      5  C   LIG    1       22.759 -15.882   4.488  0.00  0.00    +0.001 A 
ATOM      6  C   LIG    1       24.055 -15.774   3.998  0.00  0.00    +0.005 A 
ATOM      7  C   LIG    1       24.823 -16.923   3.727  0.00  0.00    -0.028 A 
ATOM      8  C   LIG    1       24.259 -18.214   3.940  0.00  0.00    -0.014 A 
ATOM      9  C   LIG    1       24.944 -19.427   3.686  0.00  0.00    +0.009 A 
ATOM     10  C   LIG    1       24.345 -20.670   3.905  0.00  0.00    +0.001 A 
ENDROOT
BRANCH   7  11
ATOM     11  C   LIG    1       26.226 -16.710   3.191  0.00  0.00    +0.163 C 
BRANCH  11  12
ATOM     12  C   LIG    1       26.677 -15.269   3.264  0.00  0.00    +0.285 C 
ATOM     13  N   LIG    1       27.310 -14.749   4.370  0.00  0.00    -0.234 N 
ATOM     14  H   LIG    1       27.909 -15.384   4.888  0.00  0.00    +0.291 HD
ATOM     15  C   LIG    1       27.888 -13.484   3.978  0.00  0.00    +0.272 C 
ATOM     16  C   LIG    1       27.052 -13.154   2.739  0.00  0.00    +0.333 C 
ATOM     17  N   LIG    1       26.483 -14.447   2.262  0.00  0.00    -0.084 NA
ENDBRANCH  11  12
ENDBRANCH   7  11
TORSDOF 2
ENDMDL
MODEL 5
REMARK VINA RESULT:      -5.1      2.089      5.347
REMARK  Name = *****
REMARK                            x       y       z     vdW  Elec       q    Type
REMARK                         _______ _______ _______ _____ _____    ______ ____
ROOT
ATOM      1  C   LIG    1       26.405 -13.283   3.730  0.00  0.00    +0.001 A 
ATOM      2  C   LIG    1       25.088 -13.565   4.089  0.00  0.00    +0.008 A 
ATOM      3  C   LIG    1       24.591 -14.878   4.047  0.00  0.00    -0.018 A 
ATOM      4  C   LIG    1       23.262 -15.132   4.418  0.00  0.00    +0.008 A 
ATOM      5  C   LIG    1       22.749 -16.424   4.391  0.00  0.00    +0.001 A 
ATOM      6  C   LIG    1       23.557 -17.481   3.990  0.00  0.00    +0.005 A 
ATOM      7  C   LIG    1       24.891 -17.263   3.598  0.00  0.00    -0.028 A 
ATOM      8  C   LIG    1       25.428 -15.944   3.629  0.00  0.00    -0.014 A 
ATOM      9  C   LIG    1       26.758 -15.623   3.268  0.00  0.00    +0.009 A 
ATOM     10  C   LIG    1       27.240 -14.312   3.322  0.00  0.00    +0.001 A 
ENDROOT
BRANCH   7  11
ATOM     11  C   LIG    1       25.700 -18.476   3.180  0.00  0.00    +0.163 C 
BRANCH  11  12
ATOM     12  C   LIG    1       25.344 -19.723   3.957  0.00  0.00    +0.285 C 
ATOM     13  N   LIG    1       26.071 -20.148   5.045  0.00  0.00    -0.234 N 
ATOM     14  H   LIG    1       26.491 -19.423   5.619  0.00  0.00    +0.291 HD
ATOM     15  C   LIG    1       25.277 -21.141   5.730  0.00  0.00    +0.272 C 
ATOM     16  C   LIG    1       24.322 -21.571   4.614  0.00  0.00    +0.333 C 
ATOM     17  N   LIG    1       24.311 -20.458   3.622  0.00  0.00    -0.084 NA
ENDBRANCH  11  12
ENDBRANCH   7  11
TORSDOF 2
ENDMDL
MODEL 6
REMARK VINA RESULT:      -4.2      2.404      3.380
REMARK  Name = *****
REMARK                            x       y       z     vdW  Elec       q    Type
REMARK                         _______ _______ _______ _____ _____    ______ ____
ROOT
ATOM      1  C   LIG    1       24.601 -20.197   3.531  0.00  0.00    +0.001 A 
ATOM      2  C   LIG    1       23.436 -19.599   4.007  0.00  0.00    +0.008 A 
ATOM      3  C   LIG    1       23.349 -18.205   4.162  0.00  0.00    -0.018 A 
ATOM      4  C   LIG    1       22.161 -17.631   4.640  0.00  0.00    +0.008 A 
ATOM      5  C   LIG    1       22.048 -16.253   4.796  0.00  0.00    +0.001 A 
ATOM      6  C   LIG    1       23.122 -15.431   4.478  0.00  0.00    +0.005 A 
ATOM      7  C   LIG    1       24.333 -15.973   4.009  0.00  0.00    -0.028 A 
ATOM      8  C   LIG    1       24.456 -17.382   3.839  0.00  0.00    -0.014 A 
ATOM      9  C   LIG    1       25.626 -18.021   3.362  0.00  0.00    +0.009 A 
ATOM     10  C   LIG    1       25.695 -19.408   3.206  0.00  0.00    +0.001 A 
ENDROOT
BRANCH   7  11
ATOM     11  C   LIG    1       25.450 -14.999   3.683  0.00  0.00    +0.163 C 
BRANCH  11  12
ATOM     12  C   LIG    1       24.945 -13.640   3.252  0.00  0.00    +0.285 C 
ATOM     13  N   LIG    1       25.205 -13.117   2.006  0.00  0.00    -0.234 N 
ATOM     14  H   LIG    1       25.271 -13.782   1.242  0.00  0.00    +0.291 HD
ATOM     15  C   LIG    1       24.314 -11.996   1.817  0.00  0.00    +0.272 C 
ATOM     16  C   LIG    1       23.953 -11.664   3.268  0.00  0.00    +0.333 C 
ATOM     17  N   LIG    1       24.227 -12.897   4.059  0.00  0.00    -0.084 NA
ENDBRANCH  11  12
ENDBRANCH   7  11
TORSDOF 2
ENDMDL
MODEL 7
REMARK VINA RESULT:      -4.2      2.441      5.910
REMARK  Name = *****
REMARK                            x       y       z     vdW  Elec       q    Type
REMARK                         _______ _______ _______ _____ _____    ______ ____
ROOT
ATOM      1  C   LIG    1       24.914 -13.011   4.092  0.00  0.00    +0.001 A 
ATOM      2  C   LIG    1       25.991 -13.858   3.840  0.00  0.00    +0.008 A 
ATOM      3  C   LIG    1       25.812 -15.248   3.737  0.00  0.00    -0.018 A 
ATOM      4  C   LIG    1       26.914 -16.075   3.479  0.00  0.00    +0.008 A 
ATOM      5  C   LIG    1       26.761 -17.453   3.365  0.00  0.00    +0.001 A 
ATOM      6  C   LIG    1       25.502 -18.023   3.511  0.00  0.00    +0.005 A 
ATOM      7  C   LIG    1       24.375 -17.225   3.784  0.00  0.00    -0.028 A 
ATOM      8  C   LIG    1       24.521 -15.813   3.895  0.00  0.00    -0.014 A 
ATOM      9  C   LIG    1       23.449 -14.925   4.154  0.00  0.00    +0.009 A 
ATOM     10  C   LIG    1       23.643 -13.544   4.247  0.00  0.00    +0.001 A 
ENDROOT
BRANCH   7  11
ATOM     11  C   LIG    1       23.040 -17.933   3.923  0.00  0.00    +0.163 C 
BRANCH  11  12
ATOM     12  C   LIG    1       23.166 -19.336   4.472  0.00  0.00    +0.285 C 
ATOM     13  N   LIG    1       23.781 -20.349   3.772  0.00  0.00    -0.234 N 
ATOM     14  H   LIG    1       24.556 -20.080   3.174  0.00  0.00    +0.291 HD
ATOM     15  C   LIG    1       24.022 -21.428   4.702  0.00  0.00    +0.272 C 
ATOM     16  C   LIG    1       23.009 -21.096   5.801  0.00  0.00    +0.333 C 
ATOM     17  N   LIG    1       22.692 -19.647   5.654  0.00  0.00    -0.084 NA
ENDBRANCH  11  12
ENDBRANCH   7  11
TORSDOF 2
ENDMDL
MODEL 8
REMARK VINA RESULT:      -3.9      1.611      3.148
REMARK  Name = *****
REMARK                            x       y       z     vdW  Elec       q    Type
REMARK                         _______ _______ _______ _____ _____    ______ ____
ROOT
ATOM      1  C   LIG    1       22.118 -20.220   4.800  0.00  0.00    +0.001 A 
ATOM      2  C   LIG    1       23.474 -20.534   4.736  0.00  0.00    +0.008 A 
ATOM      3  C   LIG    1       24.425 -19.571   4.358  0.00  0.00    -0.018 A 
ATOM      4  C   LIG    1       25.783 -19.916   4.306  0.00  0.00    +0.008 A 
ATOM      5  C   LIG    1       26.744 -18.978   3.941  0.00  0.00    +0.001 A 
ATOM      6  C   LIG    1       26.358 -17.682   3.621  0.00  0.00    +0.005 A 
ATOM      7  C   LIG    1       25.003 -17.304   3.649  0.00  0.00    -0.028 A 
ATOM      8  C   LIG    1       24.013 -18.255   4.028  0.00  0.00    -0.014 A 
ATOM      9  C   LIG    1       22.628 -17.969   4.100  0.00  0.00    +0.009 A 
ATOM     10  C   LIG    1       21.696 -18.937   4.484  0.00  0.00    +0.001 A 
ENDROOT
BRANCH   7  11
ATOM     11  C   LIG    1       24.674 -15.867   3.289  0.00  0.00    +0.163 C 
BRANCH  11  12
ATOM     12  C   LIG    1       25.823 -14.916   3.538  0.00  0.00    +0.285 C 
ATOM     13  N   LIG    1       25.943 -14.193   4.703  0.00  0.00    -0.234 N 
ATOM     14  H   LIG    1       25.598 -14.637   5.548  0.00  0.00    +0.291 HD
ATOM     15  C   LIG    1       27.289 -13.669   4.746  0.00  0.00    +0.272 C 
ATOM     16  C   LIG    1       27.676 -13.739   3.267  0.00  0.00    +0.333 C 
ATOM     17  N   LIG    1       26.766 -14.743   2.644  0.00  0.00    -0.084 NA
ENDBRANCH  11  12
ENDBRANCH   7  11
TORSDOF 2
ENDMDL
MODEL 9
REMARK VINA RESULT:      -3.6      2.194      5.043
REMARK  Name = *****
REMARK                            x       y       z     vdW  Elec       q    Type
REMARK                         _______ _______ _______ _____ _____    ______ ____
ROOT
ATOM      1  C   LIG    1       21.931 -16.035   4.806  0.00  0.00    +0.001 A 
ATOM      2  C   LIG    1       23.054 -15.268   4.504  0.00  0.00    +0.008 A 
ATOM      3  C   LIG    1       24.249 -15.870   4.075  0.00  0.00    -0.018 A 
ATOM      4  C   LIG    1       25.362 -15.071   3.773  0.00  0.00    +0.008 A 
ATOM      5  C   LIG    1       26.554 -15.644   3.340  0.00  0.00    +0.001 A 
ATOM      6  C   LIG    1       26.649 -17.024   3.203  0.00  0.00    +0.005 A 
ATOM      7  C   LIG    1       25.556 -17.857   3.509  0.00  0.00    -0.028 A 
ATOM      8  C   LIG    1       24.330 -17.280   3.947  0.00  0.00    -0.014 A 
ATOM      9  C   LIG    1       23.172 -18.029   4.266  0.00  0.00    +0.009 A 
ATOM     10  C   LIG    1       21.989 -17.415   4.685  0.00  0.00    +0.001 A 
ENDROOT
BRANCH   7  11
ATOM     11  C   LIG    1       25.749 -19.351   3.327  0.00  0.00    +0.163 C 
BRANCH  11  12
ATOM     12  C   LIG    1       26.072 -20.069   4.619  0.00  0.00    +0.285 C 
ATOM     13  N   LIG    1       27.335 -20.075   5.164  0.00  0.00    -0.234 N 
ATOM     14  H   LIG    1       27.895 -19.241   5.017  0.00  0.00    +0.291 HD
ATOM     15  C   LIG    1       27.213 -20.545   6.524  0.00  0.00    +0.272 C 
ATOM     16  C   LIG    1       25.870 -21.277   6.459  0.00  0.00    +0.333 C 
ATOM     17  N   LIG    1       25.147 -20.720   5.281  0.00  0.00    -0.084 NA
ENDBRANCH  11  12
ENDBRANCH   7  11
TORSDOF 2
ENDMDL
