MODEL 1
REMARK VINA RESULT:      -2.2      0.000      0.000
REMARK  Name = *****
REMARK                            x       y       z     vdW  Elec       q    Type
REMARK                         _______ _______ _______ _____ _____    ______ ____
ROOT
ATOM      1  C   LIG    1       25.045 -14.012   3.652  0.00  0.00    +0.095 C 
ATOM      2  C   LIG    1       25.557 -13.329   4.985  0.00  0.00    +0.039 C 
ATOM      3  C   LIG    1       25.259 -11.812   4.968  0.00  0.00    +0.008 C 
ATOM      4  C   LIG    1       23.816 -11.473   4.621  0.00  0.00    +0.000 C 
ATOM      5  C   LIG    1       23.413 -12.061   3.285  0.00  0.00    +0.003 C 
ATOM      6  C   LIG    1       23.604 -13.573   3.292  0.00  0.00    +0.040 C 
ENDROOT
BRANCH   1   9
ATOM      7  C   LIG    1       23.851 -17.669   3.963  0.00  0.00    +0.120 A 
ATOM      8  C   LIG    1       23.872 -16.271   3.969  0.00  0.00    +0.052 A 
ATOM      9  C   LIG    1       25.037 -15.549   3.663  0.00  0.00    -0.012 A 
ATOM     10  C   LIG    1       26.175 -16.287   3.283  0.00  0.00    +0.007 A 
ATOM     11  C   LIG    1       26.159 -17.682   3.252  0.00  0.00    +0.004 A 
ATOM     12  C   LIG    1       25.000 -18.374   3.599  0.00  0.00    +0.045 A 
BRANCH   7  14
ATOM     13  C   LIG    1       23.048 -19.778   4.692  0.00  0.00    +0.277 C 
ATOM     14  O   LIG    1       22.769 -18.444   4.284  0.00  0.00    -0.495 OA
ENDBRANCH   7  14
ENDBRANCH   1   9
BRANCH   1  15
ATOM     15  O   LIG    1       25.912 -13.599   2.583  0.00  0.00    -0.384 OA
ATOM     16  H   LIG    1       26.817 -13.539   2.921  0.00  0.00    +0.211 HD
ENDBRANCH   1  15
BRANCH   2  17
ATOM     17  C   LIG    1       27.081 -13.620   5.197  0.00  0.00    +0.090 C 
BRANCH  17  18
ATOM     18  N   LIG    1       28.089 -12.755   4.534  0.00  0.00    -0.308 NA
ATOM     19  C   LIG    1       28.967 -13.447   3.593  0.00  0.00    +0.104 C 
ATOM     20  C   LIG    1       28.924 -12.122   5.568  0.00  0.00    +0.104 C 
ENDBRANCH  17  18
ENDBRANCH   2  17
TORSDOF 5
ENDMDL
MODEL 2
REMARK VINA RESULT:      -1.8      1.957      3.525
REMARK  Name = *****
REMARK                            x       y       z     vdW  Elec       q    Type
REMARK                         _______ _______ _______ _____ _____    ______ ____
ROOT
ATOM      1  C   LIG    1       25.367 -15.212   3.921  0.00  0.00    +0.095 C 
ATOM      2  C   LIG    1       25.051 -14.191   2.753  0.00  0.00    +0.039 C 
ATOM      3  C   LIG    1       26.169 -13.129   2.642  0.00  0.00    +0.008 C 
ATOM      4  C   LIG    1       27.572 -13.717   2.579  0.00  0.00    +0.000 C 
ATOM      5  C   LIG    1       27.858 -14.599   3.776  0.00  0.00    +0.003 C 
ATOM      6  C   LIG    1       26.829 -15.719   3.868  0.00  0.00    +0.040 C 
ENDROOT
BRANCH   1   9
ATOM      7  C   LIG    1       24.191 -18.880   3.684  0.00  0.00    +0.120 A 
ATOM      8  C   LIG    1       24.988 -17.733   3.635  0.00  0.00    +0.052 A 
ATOM      9  C   LIG    1       24.477 -16.465   3.958  0.00  0.00    -0.012 A 
ATOM     10  C   LIG    1       23.140 -16.398   4.396  0.00  0.00    +0.007 A 
ATOM     11  C   LIG    1       22.342 -17.541   4.470  0.00  0.00    +0.004 A 
ATOM     12  C   LIG    1       22.864 -18.781   4.106  0.00  0.00    +0.045 A 
BRANCH   7  14
ATOM     13  C   LIG    1       24.495 -21.130   4.370  0.00  0.00    +0.277 C 
ATOM     14  O   LIG    1       24.604 -20.143   3.351  0.00  0.00    -0.495 OA
ENDBRANCH   7  14
ENDBRANCH   1   9
BRANCH   1  15
ATOM     15  O   LIG    1       25.184 -14.525   5.170  0.00  0.00    -0.384 OA
ATOM     16  H   LIG    1       25.037 -13.586   4.991  0.00  0.00    +0.211 HD
ENDBRANCH   1  15
BRANCH   2  17
ATOM     17  C   LIG    1       23.645 -13.536   2.967  0.00  0.00    +0.090 C 
BRANCH  17  18
ATOM     18  N   LIG    1       23.499 -12.063   2.846  0.00  0.00    -0.308 NA
ATOM     19  C   LIG    1       24.334 -11.447   1.818  0.00  0.00    +0.104 C 
ATOM     20  C   LIG    1       23.827 -11.447   4.142  0.00  0.00    +0.104 C 
ENDBRANCH  17  18
ENDBRANCH   2  17
TORSDOF 5
ENDMDL
MODEL 3
REMARK VINA RESULT:      -1.5      2.659      6.717
REMARK  Name = *****
REMARK                            x       y       z     vdW  Elec       q    Type
REMARK                         _______ _______ _______ _____ _____    ______ ____
ROOT
ATOM      1  C   LIG    1       25.900 -17.983   3.812  0.00  0.00    +0.095 C 
ATOM      2  C   LIG    1       24.832 -18.869   4.572  0.00  0.00    +0.039 C 
ATOM      3  C   LIG    1       25.396 -20.282   4.848  0.00  0.00    +0.008 C 
ATOM      4  C   LIG    1       26.770 -20.278   5.506  0.00  0.00    +0.000 C 
ATOM      5  C   LIG    1       27.778 -19.506   4.680  0.00  0.00    +0.003 C 
ATOM      6  C   LIG    1       27.301 -18.075   4.464  0.00  0.00    +0.040 C 
ENDROOT
BRANCH   1   9
ATOM      7  C   LIG    1       26.225 -14.184   3.210  0.00  0.00    +0.120 A 
ATOM      8  C   LIG    1       26.526 -15.545   3.313  0.00  0.00    +0.052 A 
ATOM      9  C   LIG    1       25.565 -16.485   3.721  0.00  0.00    -0.012 A 
ATOM     10  C   LIG    1       24.260 -16.013   3.963  0.00  0.00    +0.007 A 
ATOM     11  C   LIG    1       23.943 -14.659   3.841  0.00  0.00    +0.004 A 
ATOM     12  C   LIG    1       24.927 -13.743   3.473  0.00  0.00    +0.045 A 
BRANCH   7  14
ATOM     13  C   LIG    1       28.317 -13.142   3.610  0.00  0.00    +0.277 C 
ATOM     14  O   LIG    1       27.113 -13.203   2.855  0.00  0.00    -0.495 OA
ENDBRANCH   7  14
ENDBRANCH   1   9
BRANCH   1  15
ATOM     15  O   LIG    1       26.006 -18.476   2.466  0.00  0.00    -0.384 OA
ATOM     16  H   LIG    1       26.889 -18.850   2.340  0.00  0.00    +0.211 HD
ENDBRANCH   1  15
BRANCH   2  17
ATOM     17  C   LIG    1       23.493 -18.925   3.763  0.00  0.00    +0.090 C 
BRANCH  17  18
ATOM     18  N   LIG    1       22.212 -19.139   4.484  0.00  0.00    -0.308 NA
ATOM     19  C   LIG    1       21.889 -20.537   4.758  0.00  0.00    +0.104 C 
ATOM     20  C   LIG    1       21.118 -18.556   3.689  0.00  0.00    +0.104 C 
ENDBRANCH  17  18
ENDBRANCH   2  17
TORSDOF 5
ENDMDL
MODEL 4
REMARK VINA RESULT:      -1.1      2.680      6.376
REMARK  Name = *****
REMARK                            x       y       z     vdW  Elec       q    Type
REMARK                         _______ _______ _______ _____ _____    ______ ____
ROOT
ATOM      1  C   LIG    1       26.134 -18.193   3.810  0.00  0.00    +0.095 C 
ATOM      2  C   LIG    1       24.837 -18.833   4.452  0.00  0.00    +0.039 C 
ATOM      3  C   LIG    1       25.099 -20.301   4.858  0.00  0.00    +0.008 C 
ATOM      4  C   LIG    1       26.356 -20.493   5.695  0.00  0.00    +0.000 C 
ATOM      5  C   LIG    1       27.583 -19.960   4.985  0.00  0.00    +0.003 C 
ATOM      6  C   LIG    1       27.402 -18.485   4.650  0.00  0.00    +0.040 C 
ENDROOT
BRANCH   1   9
ATOM      7  C   LIG    1       24.824 -14.576   3.493  0.00  0.00    +0.120 A 
ATOM      8  C   LIG    1       24.873 -15.965   3.650  0.00  0.00    +0.052 A 
ATOM      9  C   LIG    1       26.088 -16.668   3.616  0.00  0.00    -0.012 A 
ATOM     10  C   LIG    1       27.270 -15.915   3.479  0.00  0.00    +0.007 A 
ATOM     11  C   LIG    1       27.233 -14.526   3.344  0.00  0.00    +0.004 A 
ATOM     12  C   LIG    1       26.011 -13.857   3.343  0.00  0.00    +0.045 A 
BRANCH   7  14
ATOM     13  C   LIG    1       23.853 -12.417   3.355  0.00  0.00    +0.277 C 
ATOM     14  O   LIG    1       23.680 -13.823   3.479  0.00  0.00    -0.495 OA
ENDBRANCH   7  14
ENDBRANCH   1   9
BRANCH   1  15
ATOM     15  O   LIG    1       26.320 -18.780   2.512  0.00  0.00    -0.384 OA
ATOM     16  H   LIG    1       26.602 -18.091   1.894  0.00  0.00    +0.211 HD
ENDBRANCH   1  15
BRANCH   2  17
ATOM     17  C   LIG    1       23.623 -18.708   3.472  0.00  0.00    +0.090 C 
BRANCH  17  18
ATOM     18  N   LIG    1       22.245 -18.633   4.020  0.00  0.00    -0.308 NA
ATOM     19  C   LIG    1       21.962 -17.434   4.805  0.00  0.00    +0.104 C 
ATOM     20  C   LIG    1       22.009 -19.811   4.870  0.00  0.00    +0.104 C 
ENDBRANCH  17  18
ENDBRANCH   2  17
TORSDOF 5
ENDMDL
MODEL 5
REMARK VINA RESULT:      -1.0      1.948      2.489
REMARK  Name = *****
REMARK                            x       y       z     vdW  Elec       q    Type
REMARK                         _______ _______ _______ _____ _____    ______ ____
ROOT
ATOM      1  C   LIG    1       25.823 -14.706   3.500  0.00  0.00    +0.095 C 
ATOM      2  C   LIG    1       26.103 -13.793   4.762  0.00  0.00    +0.039 C 
ATOM      3  C   LIG    1       25.455 -12.401   4.580  0.00  0.00    +0.008 C 
ATOM      4  C   LIG    1       23.989 -12.453   4.173  0.00  0.00    +0.000 C 
ATOM      5  C   LIG    1       23.794 -13.249   2.899  0.00  0.00    +0.003 C 
ATOM      6  C   LIG    1       24.336 -14.663   3.070  0.00  0.00    +0.040 C 
ENDROOT
BRANCH   1   9
ATOM      7  C   LIG    1       27.721 -17.939   4.421  0.00  0.00    +0.120 A 
ATOM      8  C   LIG    1       27.398 -16.590   4.244  0.00  0.00    +0.052 A 
ATOM      9  C   LIG    1       26.178 -16.192   3.673  0.00  0.00    -0.012 A 
ATOM     10  C   LIG    1       25.257 -17.205   3.342  0.00  0.00    +0.007 A 
ATOM     11  C   LIG    1       25.560 -18.554   3.536  0.00  0.00    +0.004 A 
ATOM     12  C   LIG    1       26.795 -18.921   4.068  0.00  0.00    +0.045 A 
BRANCH   7  14
ATOM     13  C   LIG    1       28.797 -19.433   5.915  0.00  0.00    +0.277 C 
ATOM     14  O   LIG    1       28.901 -18.407   4.936  0.00  0.00    -0.495 OA
ENDBRANCH   7  14
ENDBRANCH   1   9
BRANCH   1  15
ATOM     15  O   LIG    1       26.613 -14.206   2.409  0.00  0.00    -0.384 OA
ATOM     16  H   LIG    1       27.224 -13.536   2.747  0.00  0.00    +0.211 HD
ENDBRANCH   1  15
BRANCH   2  17
ATOM     17  C   LIG    1       27.641 -13.688   5.031  0.00  0.00    +0.090 C 
BRANCH  17  18
ATOM     18  N   LIG    1       28.427 -12.613   4.373  0.00  0.00    -0.308 NA
ATOM     19  C   LIG    1       29.428 -13.081   3.419  0.00  0.00    +0.104 C 
ATOM     20  C   LIG    1       29.108 -11.822   5.412  0.00  0.00    +0.104 C 
ENDBRANCH  17  18
ENDBRANCH   2  17
TORSDOF 5
ENDMDL
MODEL 6
REMARK VINA RESULT:      -0.9      3.450      7.221
REMARK  Name = *****
REMARK                            x       y       z     vdW  Elec       q    Type
REMARK                         _______ _______ _______ _____ _____    ______ ____
ROOT
ATOM      1  C   LIG    1       27.129 -19.245   4.802  0.00  0.00    +0.095 C 
ATOM      2  C   LIG    1       26.179 -19.895   5.889  0.00  0.00    +0.039 C 
ATOM      3  C   LIG    1       26.866 -21.112   6.553  0.00  0.00    +0.008 C 
ATOM      4  C   LIG    1       28.272 -20.824   7.060  0.00  0.00    +0.000 C 
ATOM      5  C   LIG    1       29.167 -20.306   5.953  0.00  0.00    +0.003 C 
ATOM      6  C   LIG    1       28.570 -19.048   5.334  0.00  0.00    +0.040 C 
ENDROOT
BRANCH   1   9
ATOM      7  C   LIG    1       27.164 -15.548   3.695  0.00  0.00    +0.120 A 
ATOM      8  C   LIG    1       27.564 -16.791   4.197  0.00  0.00    +0.052 A 
ATOM      9  C   LIG    1       26.676 -17.876   4.268  0.00  0.00    -0.012 A 
ATOM     10  C   LIG    1       25.378 -17.687   3.755  0.00  0.00    +0.007 A 
ATOM     11  C   LIG    1       24.976 -16.457   3.232  0.00  0.00    +0.004 A 
ATOM     12  C   LIG    1       25.866 -15.385   3.209  0.00  0.00    +0.045 A 
BRANCH   7  14
ATOM     13  C   LIG    1       27.704 -13.419   4.590  0.00  0.00    +0.277 C 
ATOM     14  O   LIG    1       27.958 -14.433   3.626  0.00  0.00    -0.495 OA
ENDBRANCH   7  14
ENDBRANCH   1   9
BRANCH   1  15
ATOM     15  O   LIG    1       27.191 -20.139   3.679  0.00  0.00    -0.384 OA
ATOM     16  H   LIG    1       27.411 -19.629   2.886  0.00  0.00    +0.211 HD
ENDBRANCH   1  15
BRANCH   2  17
ATOM     17  C   LIG    1       24.803 -20.280   5.252  0.00  0.00    +0.090 C 
BRANCH  17  18
ATOM     18  N   LIG    1       23.566 -20.187   6.070  0.00  0.00    -0.308 NA
ATOM     19  C   LIG    1       23.263 -21.377   6.860  0.00  0.00    +0.104 C 
ATOM     20  C   LIG    1       22.427 -19.918   5.177  0.00  0.00    +0.104 C 
ENDBRANCH  17  18
ENDBRANCH   2  17
TORSDOF 5
ENDMDL
MODEL 7
REMARK VINA RESULT:      -0.9      2.756      4.269
REMARK  Name = *****
REMARK                            x       y       z     vdW  Elec       q    Type
REMARK                         _______ _______ _______ _____ _____    ______ ____
ROOT
ATOM      1  C   LIG    1       25.880 -14.379   3.628  0.00  0.00    +0.095 C 
ATOM      2  C   LIG    1       24.303 -14.238   3.612  0.00  0.00    +0.039 C 
ATOM      3  C   LIG    1       23.890 -12.803   3.212  0.00  0.00    +0.008 C 
ATOM      4  C   LIG    1       24.564 -12.299   1.943  0.00  0.00    +0.000 C 
ATOM      5  C   LIG    1       26.073 -12.356   2.056  0.00  0.00    +0.003 C 
ATOM      6  C   LIG    1       26.529 -13.779   2.357  0.00  0.00    +0.040 C 
ENDROOT
BRANCH   1   9
ATOM      7  C   LIG    1       28.102 -17.408   4.517  0.00  0.00    +0.120 A 
ATOM      8  C   LIG    1       27.622 -16.100   4.392  0.00  0.00    +0.052 A 
ATOM      9  C   LIG    1       26.409 -15.818   3.743  0.00  0.00    -0.012 A 
ATOM     10  C   LIG    1       25.655 -16.912   3.276  0.00  0.00    +0.007 A 
ATOM     11  C   LIG    1       26.114 -18.223   3.416  0.00  0.00    +0.004 A 
ATOM     12  C   LIG    1       27.341 -18.471   4.029  0.00  0.00    +0.045 A 
BRANCH   7  14
ATOM     13  C   LIG    1       29.253 -18.888   5.968  0.00  0.00    +0.277 C 
ATOM     14  O   LIG    1       29.289 -17.760   5.102  0.00  0.00    -0.495 OA
ENDBRANCH   7  14
ENDBRANCH   1   9
BRANCH   1  15
ATOM     15  O   LIG    1       26.377 -13.652   4.763  0.00  0.00    -0.384 OA
ATOM     16  H   LIG    1       26.050 -12.743   4.719  0.00  0.00    +0.211 HD
ENDBRANCH   1  15
BRANCH   2  17
ATOM     17  C   LIG    1       23.704 -14.652   4.997  0.00  0.00    +0.090 C 
BRANCH  17  18
ATOM     18  N   LIG    1       22.394 -15.350   5.048  0.00  0.00    -0.308 NA
ATOM     19  C   LIG    1       21.768 -15.384   6.367  0.00  0.00    +0.104 C 
ATOM     20  C   LIG    1       22.578 -16.736   4.585  0.00  0.00    +0.104 C 
ENDBRANCH  17  18
ENDBRANCH   2  17
TORSDOF 5
ENDMDL
MODEL 8
REMARK VINA RESULT:      -0.8      1.313      1.877
REMARK  Name = *****
REMARK                            x       y       z     vdW  Elec       q    Type
REMARK                         _______ _______ _______ _____ _____    ______ ____
ROOT
ATOM      1  C   LIG    1       24.634 -14.339   3.650  0.00  0.00    +0.095 C 
ATOM      2  C   LIG    1       25.295 -13.674   4.925  0.00  0.00    +0.039 C 
ATOM      3  C   LIG    1       25.471 -12.153   4.716  0.00  0.00    +0.008 C 
ATOM      4  C   LIG    1       24.208 -11.447   4.243  0.00  0.00    +0.000 C 
ATOM      5  C   LIG    1       23.680 -12.055   2.959  0.00  0.00    +0.003 C 
ATOM      6  C   LIG    1       23.404 -13.541   3.152  0.00  0.00    +0.040 C 
ENDROOT
BRANCH   1   9
ATOM      7  C   LIG    1       24.574 -18.198   3.699  0.00  0.00    +0.120 A 
ATOM      8  C   LIG    1       24.991 -16.876   3.516  0.00  0.00    +0.052 A 
ATOM      9  C   LIG    1       24.160 -15.790   3.836  0.00  0.00    -0.012 A 
ATOM     10  C   LIG    1       22.907 -16.079   4.411  0.00  0.00    +0.007 A 
ATOM     11  C   LIG    1       22.491 -17.395   4.619  0.00  0.00    +0.004 A 
ATOM     12  C   LIG    1       23.321 -18.455   4.256  0.00  0.00    +0.045 A 
BRANCH   7  14
ATOM     13  C   LIG    1       25.350 -20.339   4.359  0.00  0.00    +0.277 C 
ATOM     14  O   LIG    1       25.310 -19.308   3.380  0.00  0.00    -0.495 OA
ENDBRANCH   7  14
ENDBRANCH   1   9
BRANCH   1  15
ATOM     15  O   LIG    1       25.612 -14.344   2.598  0.00  0.00    -0.384 OA
ATOM     16  H   LIG    1       25.288 -14.897   1.873  0.00  0.00    +0.211 HD
ENDBRANCH   1  15
BRANCH   2  17
ATOM     17  C   LIG    1       26.653 -14.376   5.265  0.00  0.00    +0.090 C 
BRANCH  17  18
ATOM     18  N   LIG    1       27.592 -14.721   4.167  0.00  0.00    -0.308 NA
ATOM     19  C   LIG    1       28.358 -15.946   4.379  0.00  0.00    +0.104 C 
ATOM     20  C   LIG    1       28.537 -13.607   3.985  0.00  0.00    +0.104 C 
ENDBRANCH  17  18
ENDBRANCH   2  17
TORSDOF 5
ENDMDL
MODEL 9
REMARK VINA RESULT:      -0.7      2.784      6.474
REMARK  Name = *****
REMARK                            x       y       z     vdW  Elec       q    Type
REMARK                         _______ _______ _______ _____ _____    ______ ____
ROOT
ATOM      1  C   LIG    1       22.826 -18.700   4.670  0.00  0.00    +0.095 C 
ATOM      2  C   LIG    1       23.458 -20.142   4.835  0.00  0.00    +0.039 C 
ATOM      3  C   LIG    1       22.352 -21.196   5.073  0.00  0.00    +0.008 C 
ATOM      4  C   LIG    1       21.216 -21.137   4.061  0.00  0.00    +0.000 C 
ATOM      5  C   LIG    1       20.577 -19.764   4.024  0.00  0.00    +0.003 C 
ATOM      6  C   LIG    1       21.621 -18.702   3.697  0.00  0.00    +0.040 C 
ENDROOT
BRANCH   1   9
ATOM      7  C   LIG    1       24.365 -15.257   3.853  0.00  0.00    +0.120 A 
ATOM      8  C   LIG    1       23.487 -16.250   4.297  0.00  0.00    +0.052 A 
ATOM      9  C   LIG    1       23.788 -17.615   4.162  0.00  0.00    -0.012 A 
ATOM     10  C   LIG    1       25.044 -17.951   3.618  0.00  0.00    +0.007 A 
ATOM     11  C   LIG    1       25.937 -16.966   3.193  0.00  0.00    +0.004 A 
ATOM     12  C   LIG    1       25.595 -15.620   3.303  0.00  0.00    +0.045 A 
BRANCH   7  14
ATOM     13  C   LIG    1       25.142 -13.067   3.379  0.00  0.00    +0.277 C 
ATOM     14  O   LIG    1       24.129 -13.909   3.916  0.00  0.00    -0.495 OA
ENDBRANCH   7  14
ENDBRANCH   1   9
BRANCH   1  15
ATOM     15  O   LIG    1       22.351 -18.277   5.959  0.00  0.00    -0.384 OA
ATOM     16  H   LIG    1       23.048 -18.427   6.613  0.00  0.00    +0.211 HD
ENDBRANCH   1  15
BRANCH   2  17
ATOM     17  C   LIG    1       24.521 -20.145   5.983  0.00  0.00    +0.090 C 
BRANCH  17  18
ATOM     18  N   LIG    1       25.759 -20.951   5.831  0.00  0.00    -0.308 NA
ATOM     19  C   LIG    1       26.242 -21.572   7.062  0.00  0.00    +0.104 C 
ATOM     20  C   LIG    1       26.825 -20.085   5.298  0.00  0.00    +0.104 C 
ENDBRANCH  17  18
ENDBRANCH   2  17
TORSDOF 5
ENDMDL
