MODEL 1
REMARK VINA RESULT:      12.7      0.000      0.000
REMARK  Name = *****
REMARK                            x       y       z     vdW  Elec       q    Type
REMARK                         _______ _______ _______ _____ _____    ______ ____
ROOT
ATOM      1  C   LIG    1       25.914 -19.394   5.246  0.00  0.00    +0.201 C 
ATOM      2  C   LIG    1       27.362 -18.836   5.238  0.00  0.00    +0.042 C 
ATOM      3  C   LIG    1       27.452 -17.461   5.930  0.00  0.00    +0.025 C 
ATOM      4  C   LIG    1       28.422 -19.736   5.883  0.00  0.00    +0.025 C 
ATOM      5  S   LIG    1       27.781 -18.600   3.448  0.00  0.00    -0.127 S 
ATOM      6  C   LIG    1       26.026 -18.545   2.894  0.00  0.00    +0.169 C 
ATOM      7  C   LIG    1       25.305 -17.174   2.758  0.00  0.00    +0.223 C 
ATOM      8  C   LIG    1       24.739 -17.515   4.163  0.00  0.00    +0.244 C 
ATOM      9  O   LIG    1       24.156 -16.954   5.074  0.00  0.00    -0.273 OA
ATOM     10  N   LIG    1       25.226 -18.790   4.105  0.00  0.00    -0.270 N 
ENDROOT
BRANCH   1  11
ATOM     11  C   LIG    1       25.816 -20.932   5.191  0.00  0.00    +0.332 C 
ATOM     12  O   LIG    1       25.824 -21.572   4.145  0.00  0.00    -0.249 OA
BRANCH  11  13
ATOM     13  O   LIG    1       25.745 -21.497   6.427  0.00  0.00    -0.426 OA
BRANCH  13  14
ATOM     14  C   LIG    1       24.440 -21.526   7.012  0.00  0.00    +0.472 C 
BRANCH  14  15
ATOM     15  O   LIG    1       23.405 -21.572   6.028  0.00  0.00    -0.427 OA
BRANCH  15  16
ATOM     16  C   LIG    1       22.713 -20.413   5.858  0.00  0.00    +0.315 C 
ATOM     17  O   LIG    1       22.681 -19.498   6.669  0.00  0.00    -0.250 OA
BRANCH  16  19
ATOM     18  C   LIG    1       21.553 -18.984   4.155  0.00  0.00    +0.022 C 
ATOM     19  C   LIG    1       21.974 -20.415   4.513  0.00  0.00    +0.059 C 
ATOM     20  C   LIG    1       22.906 -20.952   3.415  0.00  0.00    +0.022 C 
ATOM     21  C   LIG    1       20.738 -21.319   4.607  0.00  0.00    +0.022 C 
ENDBRANCH  16  19
ENDBRANCH  15  16
ENDBRANCH  14  15
ENDBRANCH  13  14
ENDBRANCH  11  13
ENDBRANCH   1  11
BRANCH   7  22
ATOM     22  N   LIG    1       26.222 -16.023   2.685  0.00  0.00    -0.261 NA
ATOM     23  C   LIG    1       26.155 -15.238   3.708  0.00  0.00    +0.179 C 
BRANCH  23  24
ATOM     24  N   LIG    1       26.831 -14.055   3.894  0.00  0.00    -0.321 N 
ATOM     25  C   LIG    1       27.734 -13.541   2.866  0.00  0.00    +0.106 C 
ATOM     26  C   LIG    1       29.110 -13.176   3.425  0.00  0.00    +0.019 C 
ATOM     27  C   LIG    1       29.094 -11.921   4.295  0.00  0.00    +0.002 C 
ATOM     28  C   LIG    1       28.699 -12.142   5.754  0.00  0.00    +0.002 C 
ATOM     29  C   LIG    1       27.555 -13.116   6.034  0.00  0.00    +0.019 C 
ATOM     30  C   LIG    1       26.460 -13.141   4.974  0.00  0.00    +0.106 C 
ENDBRANCH  23  24
ENDBRANCH   7  22
TORSDOF 8
ENDMDL
MODEL 2
REMARK VINA RESULT:      12.9      2.348      7.030
REMARK  Name = *****
REMARK                            x       y       z     vdW  Elec       q    Type
REMARK                         _______ _______ _______ _____ _____    ______ ____
ROOT
ATOM      1  C   LIG    1       27.088 -18.340   5.013  0.00  0.00    +0.201 C 
ATOM      2  C   LIG    1       26.112 -18.055   3.841  0.00  0.00    +0.042 C 
ATOM      3  C   LIG    1       24.672 -17.816   4.337  0.00  0.00    +0.025 C 
ATOM      4  C   LIG    1       26.482 -16.867   2.945  0.00  0.00    +0.025 C 
ATOM      5  S   LIG    1       26.113 -19.602   2.821  0.00  0.00    -0.127 S 
ATOM      6  C   LIG    1       26.728 -20.675   4.185  0.00  0.00    +0.169 C 
ATOM      7  C   LIG    1       25.713 -21.437   5.082  0.00  0.00    +0.223 C 
ATOM      8  C   LIG    1       25.933 -20.252   6.059  0.00  0.00    +0.244 C 
ATOM      9  O   LIG    1       25.418 -19.786   7.061  0.00  0.00    -0.273 OA
ATOM     10  N   LIG    1       26.971 -19.767   5.317  0.00  0.00    -0.270 N 
ENDROOT
BRANCH   1  11
ATOM     11  C   LIG    1       28.557 -17.959   4.736  0.00  0.00    +0.332 C 
ATOM     12  O   LIG    1       29.469 -18.777   4.690  0.00  0.00    -0.249 OA
BRANCH  11  13
ATOM     13  O   LIG    1       28.721 -16.625   4.525  0.00  0.00    -0.426 OA
BRANCH  13  14
ATOM     14  C   LIG    1       27.568 -15.819   4.781  0.00  0.00    +0.472 C 
BRANCH  14  15
ATOM     15  O   LIG    1       27.606 -14.576   4.077  0.00  0.00    -0.427 OA
BRANCH  15  16
ATOM     16  C   LIG    1       26.970 -13.541   4.689  0.00  0.00    +0.315 C 
ATOM     17  O   LIG    1       27.439 -12.885   5.609  0.00  0.00    -0.250 OA
BRANCH  16  19
ATOM     18  C   LIG    1       24.656 -14.479   4.447  0.00  0.00    +0.022 C 
ATOM     19  C   LIG    1       25.584 -13.315   4.072  0.00  0.00    +0.059 C 
ATOM     20  C   LIG    1       24.987 -12.006   4.612  0.00  0.00    +0.022 C 
ATOM     21  C   LIG    1       25.710 -13.214   2.546  0.00  0.00    +0.022 C 
ENDBRANCH  16  19
ENDBRANCH  15  16
ENDBRANCH  14  15
ENDBRANCH  13  14
ENDBRANCH  11  13
ENDBRANCH   1  11
BRANCH   7  22
ATOM     22  N   LIG    1       24.369 -21.557   4.491  0.00  0.00    -0.261 NA
ATOM     23  C   LIG    1       23.843 -20.426   4.158  0.00  0.00    +0.179 C 
BRANCH  23  24
ATOM     24  N   LIG    1       22.582 -20.210   3.653  0.00  0.00    -0.321 N 
ATOM     25  C   LIG    1       22.271 -18.984   2.921  0.00  0.00    +0.106 C 
ATOM     26  C   LIG    1       21.016 -18.289   3.449  0.00  0.00    +0.019 C 
ATOM     27  C   LIG    1       19.726 -19.033   3.111  0.00  0.00    +0.002 C 
ATOM     28  C   LIG    1       19.353 -20.163   4.069  0.00  0.00    +0.002 C 
ATOM     29  C   LIG    1       20.482 -21.059   4.575  0.00  0.00    +0.019 C 
ATOM     30  C   LIG    1       21.608 -21.298   3.576  0.00  0.00    +0.106 C 
ENDBRANCH  23  24
ENDBRANCH   7  22
TORSDOF 8
ENDMDL
MODEL 3
REMARK VINA RESULT:      13.4      3.244      7.146
REMARK  Name = *****
REMARK                            x       y       z     vdW  Elec       q    Type
REMARK                         _______ _______ _______ _____ _____    ______ ____
ROOT
ATOM      1  C   LIG    1       26.324 -13.392   3.878  0.00  0.00    +0.201 C 
ATOM      2  C   LIG    1       25.918 -14.429   2.799  0.00  0.00    +0.042 C 
ATOM      3  C   LIG    1       24.718 -13.946   1.960  0.00  0.00    +0.025 C 
ATOM      4  C   LIG    1       27.024 -14.828   1.815  0.00  0.00    +0.025 C 
ATOM      5  S   LIG    1       25.383 -15.930   3.745  0.00  0.00    -0.127 S 
ATOM      6  C   LIG    1       25.053 -15.009   5.304  0.00  0.00    +0.169 C 
ATOM      7  C   LIG    1       23.618 -14.488   5.600  0.00  0.00    +0.223 C 
ATOM      8  C   LIG    1       24.167 -13.145   5.049  0.00  0.00    +0.244 C 
ATOM      9  O   LIG    1       23.738 -12.067   4.674  0.00  0.00    -0.273 OA
ATOM     10  N   LIG    1       25.447 -13.618   5.028  0.00  0.00    -0.270 N 
ENDROOT
BRANCH   1  11
ATOM     11  C   LIG    1       27.806 -13.448   4.302  0.00  0.00    +0.332 C 
ATOM     12  O   LIG    1       28.393 -12.510   4.828  0.00  0.00    -0.249 OA
BRANCH  11  13
ATOM     13  O   LIG    1       28.378 -14.657   4.050  0.00  0.00    -0.426 OA
BRANCH  13  14
ATOM     14  C   LIG    1       28.746 -15.412   5.207  0.00  0.00    +0.472 C 
BRANCH  14  15
ATOM     15  O   LIG    1       29.059 -16.771   4.893  0.00  0.00    -0.427 OA
BRANCH  15  16
ATOM     16  C   LIG    1       29.038 -17.631   5.947  0.00  0.00    +0.315 C 
ATOM     17  O   LIG    1       29.474 -17.374   7.061  0.00  0.00    -0.250 OA
BRANCH  16  19
ATOM     18  C   LIG    1       27.742 -19.614   6.770  0.00  0.00    +0.022 C 
ATOM     19  C   LIG    1       28.399 -18.966   5.544  0.00  0.00    +0.059 C 
ATOM     20  C   LIG    1       27.325 -18.721   4.472  0.00  0.00    +0.022 C 
ATOM     21  C   LIG    1       29.474 -19.898   4.971  0.00  0.00    +0.022 C 
ENDBRANCH  16  19
ENDBRANCH  15  16
ENDBRANCH  14  15
ENDBRANCH  13  14
ENDBRANCH  11  13
ENDBRANCH   1  11
BRANCH   7  22
ATOM     22  N   LIG    1       22.569 -15.143   4.800  0.00  0.00    -0.261 NA
ATOM     23  C   LIG    1       22.720 -16.420   4.689  0.00  0.00    +0.179 C 
BRANCH  23  24
ATOM     24  N   LIG    1       21.948 -17.289   3.952  0.00  0.00    -0.321 N 
ATOM     25  C   LIG    1       20.816 -16.801   3.169  0.00  0.00    +0.106 C 
ATOM     26  C   LIG    1       19.531 -17.583   3.446  0.00  0.00    +0.019 C 
ATOM     27  C   LIG    1       19.551 -18.998   2.872  0.00  0.00    +0.002 C 
ATOM     28  C   LIG    1       20.232 -20.049   3.747  0.00  0.00    +0.002 C 
ATOM     29  C   LIG    1       21.519 -19.643   4.463  0.00  0.00    +0.019 C 
ATOM     30  C   LIG    1       22.395 -18.658   3.697  0.00  0.00    +0.106 C 
ENDBRANCH  23  24
ENDBRANCH   7  22
TORSDOF 8
ENDMDL
MODEL 4
REMARK VINA RESULT:      13.5      2.773      7.273
REMARK  Name = *****
REMARK                            x       y       z     vdW  Elec       q    Type
REMARK                         _______ _______ _______ _____ _____    ______ ____
ROOT
ATOM      1  C   LIG    1       27.197 -15.684   4.162  0.00  0.00    +0.201 C 
ATOM      2  C   LIG    1       25.913 -16.505   3.873  0.00  0.00    +0.042 C 
ATOM      3  C   LIG    1       25.253 -17.014   5.171  0.00  0.00    +0.025 C 
ATOM      4  C   LIG    1       24.828 -15.778   3.071  0.00  0.00    +0.025 C 
ATOM      5  S   LIG    1       26.487 -17.981   2.911  0.00  0.00    -0.127 S 
ATOM      6  C   LIG    1       28.232 -17.860   3.487  0.00  0.00    +0.169 C 
ATOM      7  C   LIG    1       28.689 -18.673   4.731  0.00  0.00    +0.223 C 
ATOM      8  C   LIG    1       28.459 -17.337   5.487  0.00  0.00    +0.244 C 
ATOM      9  O   LIG    1       28.368 -16.941   6.636  0.00  0.00    -0.273 OA
ATOM     10  N   LIG    1       28.285 -16.648   4.321  0.00  0.00    -0.270 N 
ENDROOT
BRANCH   1  11
ATOM     11  C   LIG    1       27.548 -14.637   3.084  0.00  0.00    +0.332 C 
ATOM     12  O   LIG    1       27.008 -14.595   1.984  0.00  0.00    -0.249 OA
BRANCH  11  13
ATOM     13  O   LIG    1       28.499 -13.756   3.499  0.00  0.00    -0.426 OA
BRANCH  13  14
ATOM     14  C   LIG    1       28.098 -12.874   4.550  0.00  0.00    +0.472 C 
BRANCH  14  15
ATOM     15  O   LIG    1       26.926 -12.128   4.216  0.00  0.00    -0.427 OA
BRANCH  15  16
ATOM     16  C   LIG    1       25.790 -12.509   4.861  0.00  0.00    +0.315 C 
ATOM     17  O   LIG    1       25.746 -12.889   6.023  0.00  0.00    -0.250 OA
BRANCH  16  19
ATOM     18  C   LIG    1       23.937 -13.786   3.754  0.00  0.00    +0.022 C 
ATOM     19  C   LIG    1       24.576 -12.402   3.930  0.00  0.00    +0.059 C 
ATOM     20  C   LIG    1       23.539 -11.447   4.543  0.00  0.00    +0.022 C 
ATOM     21  C   LIG    1       25.019 -11.851   2.568  0.00  0.00    +0.022 C 
ENDBRANCH  16  19
ENDBRANCH  15  16
ENDBRANCH  14  15
ENDBRANCH  13  14
ENDBRANCH  11  13
ENDBRANCH   1  11
BRANCH   7  22
ATOM     22  N   LIG    1       27.788 -19.785   5.081  0.00  0.00    -0.261 NA
ATOM     23  C   LIG    1       26.574 -19.619   4.674  0.00  0.00    +0.179 C 
BRANCH  23  24
ATOM     24  N   LIG    1       25.498 -20.443   4.907  0.00  0.00    -0.321 N 
ATOM     25  C   LIG    1       24.549 -20.752   3.840  0.00  0.00    +0.106 C 
ATOM     26  C   LIG    1       23.097 -20.517   4.260  0.00  0.00    +0.019 C 
ATOM     27  C   LIG    1       22.584 -21.549   5.262  0.00  0.00    +0.002 C 
ATOM     28  C   LIG    1       22.923 -21.266   6.724  0.00  0.00    +0.002 C 
ATOM     29  C   LIG    1       24.321 -20.730   7.032  0.00  0.00    +0.019 C 
ATOM     30  C   LIG    1       25.424 -21.256   6.121  0.00  0.00    +0.106 C 
ENDBRANCH  23  24
ENDBRANCH   7  22
TORSDOF 8
ENDMDL
MODEL 5
REMARK VINA RESULT:      13.9      2.022      3.182
REMARK  Name = *****
REMARK                            x       y       z     vdW  Elec       q    Type
REMARK                         _______ _______ _______ _____ _____    ______ ____
ROOT
ATOM      1  C   LIG    1       23.718 -17.488   4.195  0.00  0.00    +0.201 C 
ATOM      2  C   LIG    1       25.114 -16.963   3.771  0.00  0.00    +0.042 C 
ATOM      3  C   LIG    1       25.833 -16.242   4.929  0.00  0.00    +0.025 C 
ATOM      4  C   LIG    1       26.084 -18.021   3.230  0.00  0.00    +0.025 C 
ATOM      5  S   LIG    1       24.781 -15.714   2.443  0.00  0.00    -0.127 S 
ATOM      6  C   LIG    1       23.033 -15.430   2.947  0.00  0.00    +0.169 C 
ATOM      7  C   LIG    1       22.694 -14.269   3.924  0.00  0.00    +0.223 C 
ATOM      8  C   LIG    1       22.710 -15.386   5.001  0.00  0.00    +0.244 C 
ATOM      9  O   LIG    1       22.730 -15.485   6.216  0.00  0.00    -0.273 OA
ATOM     10  N   LIG    1       22.788 -16.367   4.055  0.00  0.00    -0.270 N 
ENDROOT
BRANCH   1  11
ATOM     11  C   LIG    1       23.221 -18.713   3.399  0.00  0.00    +0.332 C 
ATOM     12  O   LIG    1       23.868 -19.242   2.502  0.00  0.00    -0.249 OA
BRANCH  11  13
ATOM     13  O   LIG    1       22.003 -19.152   3.819  0.00  0.00    -0.426 OA
BRANCH  13  14
ATOM     14  C   LIG    1       22.033 -20.233   4.755  0.00  0.00    +0.472 C 
BRANCH  14  15
ATOM     15  O   LIG    1       23.337 -20.803   4.886  0.00  0.00    -0.427 OA
BRANCH  15  16
ATOM     16  C   LIG    1       23.995 -20.491   6.035  0.00  0.00    +0.315 C 
ATOM     17  O   LIG    1       23.458 -20.070   7.050  0.00  0.00    -0.250 OA
BRANCH  16  19
ATOM     18  C   LIG    1       26.241 -19.387   5.864  0.00  0.00    +0.022 C 
ATOM     19  C   LIG    1       25.502 -20.732   5.878  0.00  0.00    +0.059 C 
ATOM     20  C   LIG    1       26.014 -21.571   7.060  0.00  0.00    +0.022 C 
ATOM     21  C   LIG    1       25.768 -21.492   4.572  0.00  0.00    +0.022 C 
ENDBRANCH  16  19
ENDBRANCH  15  16
ENDBRANCH  14  15
ENDBRANCH  13  14
ENDBRANCH  11  13
ENDBRANCH   1  11
BRANCH   7  22
ATOM     22  N   LIG    1       23.751 -13.248   4.027  0.00  0.00    -0.261 NA
ATOM     23  C   LIG    1       24.944 -13.715   3.867  0.00  0.00    +0.179 C 
BRANCH  23  24
ATOM     24  N   LIG    1       26.130 -13.026   3.976  0.00  0.00    -0.321 N 
ATOM     25  C   LIG    1       26.971 -12.799   2.803  0.00  0.00    +0.106 C 
ATOM     26  C   LIG    1       28.426 -13.211   3.037  0.00  0.00    +0.019 C 
ATOM     27  C   LIG    1       29.174 -12.271   3.981  0.00  0.00    +0.002 C 
ATOM     28  C   LIG    1       28.984 -12.553   5.470  0.00  0.00    +0.002 C 
ATOM     29  C   LIG    1       27.582 -12.933   5.942  0.00  0.00    +0.019 C 
ATOM     30  C   LIG    1       26.445 -12.260   5.181  0.00  0.00    +0.106 C 
ENDBRANCH  23  24
ENDBRANCH   7  22
TORSDOF 8
ENDMDL
MODEL 6
REMARK VINA RESULT:      15.3      1.064      1.356
REMARK  Name = *****
REMARK                            x       y       z     vdW  Elec       q    Type
REMARK                         _______ _______ _______ _____ _____    ______ ____
ROOT
ATOM      1  C   LIG    1       26.996 -19.135   5.751  0.00  0.00    +0.201 C 
ATOM      2  C   LIG    1       28.286 -18.275   5.797  0.00  0.00    +0.042 C 
ATOM      3  C   LIG    1       27.999 -16.831   6.255  0.00  0.00    +0.025 C 
ATOM      4  C   LIG    1       29.411 -18.815   6.687  0.00  0.00    +0.025 C 
ATOM      5  S   LIG    1       28.886 -18.206   4.044  0.00  0.00    -0.127 S 
ATOM      6  C   LIG    1       27.248 -18.623   3.314  0.00  0.00    +0.169 C 
ATOM      7  C   LIG    1       26.286 -17.481   2.879  0.00  0.00    +0.223 C 
ATOM      8  C   LIG    1       25.618 -17.739   4.256  0.00  0.00    +0.244 C 
ATOM      9  O   LIG    1       24.815 -17.200   4.997  0.00  0.00    -0.273 OA
ATOM     10  N   LIG    1       26.359 -18.867   4.462  0.00  0.00    -0.270 N 
ENDROOT
BRANCH   1  11
ATOM     11  C   LIG    1       27.224 -20.649   5.944  0.00  0.00    +0.332 C 
ATOM     12  O   LIG    1       27.899 -21.332   5.182  0.00  0.00    -0.249 OA
BRANCH  11  13
ATOM     13  O   LIG    1       26.615 -21.132   7.062  0.00  0.00    -0.426 OA
BRANCH  13  14
ATOM     14  C   LIG    1       25.267 -21.572   6.882  0.00  0.00    +0.472 C 
BRANCH  14  15
ATOM     15  O   LIG    1       24.390 -20.503   6.519  0.00  0.00    -0.427 OA
BRANCH  15  16
ATOM     16  C   LIG    1       23.104 -20.866   6.266  0.00  0.00    +0.315 C 
ATOM     17  O   LIG    1       22.377 -21.445   7.062  0.00  0.00    -0.250 OA
BRANCH  16  19
ATOM     18  C   LIG    1       21.436 -21.229   4.429  0.00  0.00    +0.022 C 
ATOM     19  C   LIG    1       22.694 -20.454   4.847  0.00  0.00    +0.059 C 
ATOM     20  C   LIG    1       22.387 -18.948   4.815  0.00  0.00    +0.022 C 
ATOM     21  C   LIG    1       23.842 -20.752   3.873  0.00  0.00    +0.022 C 
ENDBRANCH  16  19
ENDBRANCH  15  16
ENDBRANCH  14  15
ENDBRANCH  13  14
ENDBRANCH  11  13
ENDBRANCH   1  11
BRANCH   7  22
ATOM     22  N   LIG    1       26.949 -16.177   2.708  0.00  0.00    -0.261 NA
ATOM     23  C   LIG    1       26.858 -15.407   3.740  0.00  0.00    +0.179 C 
BRANCH  23  24
ATOM     24  N   LIG    1       27.311 -14.114   3.857  0.00  0.00    -0.321 N 
ATOM     25  C   LIG    1       28.107 -13.503   2.794  0.00  0.00    +0.106 C 
ATOM     26  C   LIG    1       29.396 -12.868   3.318  0.00  0.00    +0.019 C 
ATOM     27  C   LIG    1       29.157 -11.591   4.121  0.00  0.00    +0.002 C 
ATOM     28  C   LIG    1       28.808 -11.800   5.594  0.00  0.00    +0.002 C 
ATOM     29  C   LIG    1       27.857 -12.947   5.936  0.00  0.00    +0.019 C 
ATOM     30  C   LIG    1       26.783 -13.224   4.890  0.00  0.00    +0.106 C 
ENDBRANCH  23  24
ENDBRANCH   7  22
TORSDOF 8
ENDMDL
