MODEL 1
REMARK VINA RESULT:      -9.0      0.000      0.000
REMARK  Name = *****
REMARK                            x       y       z     vdW  Elec       q    Type
REMARK                         _______ _______ _______ _____ _____    ______ ____
ROOT
ATOM      1  C   LIG    1       25.932 -23.621   6.691  0.00  0.00    +0.077 A 
ATOM      2  C   LIG    1       24.880 -23.521   5.765  0.00  0.00    +0.144 A 
ATOM      3  C   LIG    1       24.368 -24.688   5.195  0.00  0.00    +0.076 A 
ATOM      4  C   LIG    1       24.680 -25.940   5.670  0.00  0.00    +0.080 A 
ATOM      5  N   LIG    1       24.035 -26.958   5.101  0.00  0.00    -0.235 NA
ATOM      6  C   LIG    1       24.300 -28.171   5.577  0.00  0.00    +0.224 A 
ATOM      7  N   LIG    1       25.143 -28.448   6.572  0.00  0.00    -0.220 NA
ATOM      8  C   LIG    1       25.782 -27.402   7.136  0.00  0.00    +0.134 A 
ATOM      9  C   LIG    1       25.608 -26.070   6.705  0.00  0.00    +0.042 A 
ATOM     10  C   LIG    1       26.282 -24.893   7.164  0.00  0.00    +0.040 A 
ENDROOT
BRANCH   1  12
ATOM     11  C   LIG    1       26.316 -21.689   8.237  0.00  0.00    +0.241 C 
ATOM     12  N   LIG    1       26.568 -22.436   7.098  0.00  0.00    -0.279 N 
ATOM     13  H   LIG    1       27.361 -22.156   6.520  0.00  0.00    +0.155 HD
ATOM     14  O   LIG    1       25.518 -21.921   9.122  0.00  0.00    -0.271 OA
BRANCH  11  16
ATOM     15  C   LIG    1       28.349 -20.481   7.604  0.00  0.00    -0.007 C 
ATOM     16  C   LIG    1       27.196 -20.485   8.289  0.00  0.00    +0.064 C 
BRANCH  15  17
ATOM     17  C   LIG    1       29.356 -19.363   7.664  0.00  0.00    +0.111 C 
BRANCH  17  19
ATOM     18  C   LIG    1       30.985 -20.839   8.718  0.00  0.00    +0.105 C 
ATOM     19  N   LIG    1       30.405 -19.500   8.679  0.00  0.00    -0.305 NA
ATOM     20  C   LIG    1       31.437 -18.476   8.542  0.00  0.00    +0.105 C 
ENDBRANCH  17  19
ENDBRANCH  15  17
ENDBRANCH  11  16
ENDBRANCH   1  12
BRANCH   8  21
ATOM     21  N   LIG    1       26.687 -27.788   8.136  0.00  0.00    -0.299 N 
ATOM     22  H   LIG    1       27.495 -28.133   7.615  0.00  0.00    +0.154 HD
BRANCH  21  23
ATOM     23  C   LIG    1       26.468 -28.625   9.252  0.00  0.00    +0.034 A 
ATOM     24  C   LIG    1       26.164 -29.989   9.162  0.00  0.00    +0.046 A 
ATOM     25  C   LIG    1       26.000 -30.745  10.329  0.00  0.00    +0.078 A 
ATOM     26 CL   LIG    1       25.577 -32.413  10.213  0.00  0.00    -0.081 Cl
ATOM     27  C   LIG    1       26.173 -30.153  11.580  0.00  0.00    +0.142 A 
ATOM     28  F   LIG    1       25.997 -30.857  12.708  0.00  0.00    -0.204 F 
ATOM     29  C   LIG    1       26.537 -28.817  11.679  0.00  0.00    +0.041 A 
ATOM     30  C   LIG    1       26.701 -28.065  10.517  0.00  0.00    +0.026 A 
ENDBRANCH  21  23
ENDBRANCH   8  21
BRANCH   2  31
ATOM     31  O   LIG    1       24.414 -22.271   5.413  0.00  0.00    -0.484 OA
BRANCH  31  32
ATOM     32  C   LIG    1       23.237 -21.847   6.133  0.00  0.00    +0.201 C 
ATOM     33  C   LIG    1       22.020 -21.860   5.226  0.00  0.00    +0.204 C 
ATOM     34  O   LIG    1       21.861 -20.542   4.690  0.00  0.00    -0.376 OA
ATOM     35  C   LIG    1       22.721 -19.647   5.399  0.00  0.00    +0.163 C 
ATOM     36  C   LIG    1       23.343 -20.400   6.555  0.00  0.00    +0.075 C 
ENDBRANCH  31  32
ENDBRANCH   2  31
TORSDOF 8
ENDMDL
MODEL 2
REMARK VINA RESULT:      -8.0      4.808      8.884
REMARK  Name = *****
REMARK                            x       y       z     vdW  Elec       q    Type
REMARK                         _______ _______ _______ _____ _____    ______ ____
ROOT
ATOM      1  C   LIG    1       26.443 -28.942   9.609  0.00  0.00    +0.077 A 
ATOM      2  C   LIG    1       25.954 -30.197   9.208  0.00  0.00    +0.144 A 
ATOM      3  C   LIG    1       25.183 -30.284   8.049  0.00  0.00    +0.076 A 
ATOM      4  C   LIG    1       25.076 -29.245   7.153  0.00  0.00    +0.080 A 
ATOM      5  N   LIG    1       24.396 -29.504   6.037  0.00  0.00    -0.235 NA
ATOM      6  C   LIG    1       24.318 -28.520   5.146  0.00  0.00    +0.224 A 
ATOM      7  N   LIG    1       24.865 -27.311   5.274  0.00  0.00    -0.220 NA
ATOM      8  C   LIG    1       25.552 -27.072   6.411  0.00  0.00    +0.134 A 
ATOM      9  C   LIG    1       25.687 -28.024   7.444  0.00  0.00    +0.042 A 
ATOM     10  C   LIG    1       26.316 -27.866   8.720  0.00  0.00    +0.040 A 
ENDROOT
BRANCH   1  12
ATOM     11  C   LIG    1       26.445 -28.435  12.061  0.00  0.00    +0.241 C 
ATOM     12  N   LIG    1       27.040 -28.839  10.877  0.00  0.00    -0.279 N 
ATOM     13  H   LIG    1       27.997 -29.188  10.929  0.00  0.00    +0.155 HD
ATOM     14  O   LIG    1       25.288 -28.116  12.246  0.00  0.00    -0.271 OA
BRANCH  11  16
ATOM     15  C   LIG    1       28.217 -29.513  13.360  0.00  0.00    -0.007 C 
ATOM     16  C   LIG    1       27.430 -28.442  13.181  0.00  0.00    +0.064 C 
BRANCH  15  17
ATOM     17  C   LIG    1       29.174 -29.668  14.512  0.00  0.00    +0.111 C 
BRANCH  17  19
ATOM     18  C   LIG    1       30.970 -29.648  12.865  0.00  0.00    +0.105 C 
ATOM     19  N   LIG    1       30.522 -30.128  14.168  0.00  0.00    -0.305 NA
ATOM     20  C   LIG    1       31.492 -29.814  15.214  0.00  0.00    +0.105 C 
ENDBRANCH  17  19
ENDBRANCH  15  17
ENDBRANCH  11  16
ENDBRANCH   1  12
BRANCH   8  21
ATOM     21  N   LIG    1       26.047 -25.762   6.487  0.00  0.00    -0.299 N 
ATOM     22  H   LIG    1       26.864 -25.844   7.095  0.00  0.00    +0.154 HD
BRANCH  21  23
ATOM     23  C   LIG    1       25.356 -24.572   6.802  0.00  0.00    +0.034 A 
ATOM     24  C   LIG    1       25.978 -23.398   7.246  0.00  0.00    +0.046 A 
ATOM     25  C   LIG    1       25.209 -22.255   7.499  0.00  0.00    +0.078 A 
ATOM     26 CL   LIG    1       25.972 -20.826   8.091  0.00  0.00    -0.081 Cl
ATOM     27  C   LIG    1       23.832 -22.271   7.277  0.00  0.00    +0.142 A 
ATOM     28  F   LIG    1       23.077 -21.193   7.536  0.00  0.00    -0.204 F 
ATOM     29  C   LIG    1       23.216 -23.410   6.778  0.00  0.00    +0.041 A 
ATOM     30  C   LIG    1       23.981 -24.546   6.525  0.00  0.00    +0.026 A 
ENDBRANCH  21  23
ENDBRANCH   8  21
BRANCH   2  31
ATOM     31  O   LIG    1       26.214 -31.299   9.997  0.00  0.00    -0.484 OA
BRANCH  31  32
ATOM     32  C   LIG    1       25.046 -32.071  10.351  0.00  0.00    +0.201 C 
ATOM     33  C   LIG    1       24.089 -31.241  11.188  0.00  0.00    +0.204 C 
ATOM     34  O   LIG    1       24.373 -31.505  12.566  0.00  0.00    -0.376 OA
ATOM     35  C   LIG    1       25.248 -32.633  12.650  0.00  0.00    +0.163 C 
ATOM     36  C   LIG    1       25.403 -33.219  11.264  0.00  0.00    +0.075 C 
ENDBRANCH  31  32
ENDBRANCH   2  31
TORSDOF 8
ENDMDL
MODEL 3
REMARK VINA RESULT:      -8.0      4.509      8.183
REMARK  Name = *****
REMARK                            x       y       z     vdW  Elec       q    Type
REMARK                         _______ _______ _______ _____ _____    ______ ____
ROOT
ATOM      1  C   LIG    1       25.255 -30.175   8.215  0.00  0.00    +0.077 A 
ATOM      2  C   LIG    1       25.943 -31.364   7.923  0.00  0.00    +0.144 A 
ATOM      3  C   LIG    1       26.181 -32.278   8.951  0.00  0.00    +0.076 A 
ATOM      4  C   LIG    1       25.570 -32.183  10.180  0.00  0.00    +0.080 A 
ATOM      5  N   LIG    1       25.805 -33.183  11.028  0.00  0.00    -0.235 NA
ATOM      6  C   LIG    1       25.190 -33.122  12.205  0.00  0.00    +0.224 A 
ATOM      7  N   LIG    1       24.360 -32.155  12.599  0.00  0.00    -0.220 NA
ATOM      8  C   LIG    1       24.135 -31.154  11.723  0.00  0.00    +0.134 A 
ATOM      9  C   LIG    1       24.745 -31.089  10.453  0.00  0.00    +0.042 A 
ATOM     10  C   LIG    1       24.650 -30.049   9.474  0.00  0.00    +0.040 A 
ENDROOT
BRANCH   1  12
ATOM     11  C   LIG    1       24.299 -29.073   6.180  0.00  0.00    +0.241 C 
ATOM     12  N   LIG    1       25.203 -29.180   7.223  0.00  0.00    -0.279 N 
ATOM     13  H   LIG    1       25.863 -28.412   7.353  0.00  0.00    +0.155 HD
ATOM     14  O   LIG    1       23.357 -29.797   5.929  0.00  0.00    -0.271 OA
BRANCH  11  16
ATOM     15  C   LIG    1       24.800 -26.692   5.917  0.00  0.00    -0.007 C 
ATOM     16  C   LIG    1       24.603 -27.883   5.333  0.00  0.00    +0.064 C 
BRANCH  15  17
ATOM     17  C   LIG    1       25.015 -25.410   5.156  0.00  0.00    +0.111 C 
BRANCH  17  19
ATOM     18  C   LIG    1       23.515 -24.146   6.603  0.00  0.00    +0.105 C 
ATOM     19  N   LIG    1       24.800 -24.173   5.911  0.00  0.00    -0.305 NA
ATOM     20  C   LIG    1       25.903 -23.890   6.825  0.00  0.00    +0.105 C 
ENDBRANCH  17  19
ENDBRANCH  15  17
ENDBRANCH  11  16
ENDBRANCH   1  12
BRANCH   8  21
ATOM     21  N   LIG    1       23.294 -30.155  12.237  0.00  0.00    -0.299 N 
ATOM     22  H   LIG    1       22.556 -30.072  11.537  0.00  0.00    +0.154 HD
BRANCH  21  23
ATOM     23  C   LIG    1       23.634 -28.866  12.702  0.00  0.00    +0.034 A 
ATOM     24  C   LIG    1       24.946 -28.381  12.780  0.00  0.00    +0.046 A 
ATOM     25  C   LIG    1       25.180 -27.073  13.221  0.00  0.00    +0.078 A 
ATOM     26 CL   LIG    1       26.799 -26.496  13.360  0.00  0.00    -0.081 Cl
ATOM     27  C   LIG    1       24.111 -26.240  13.549  0.00  0.00    +0.142 A 
ATOM     28  F   LIG    1       24.318 -24.992  13.995  0.00  0.00    -0.204 F 
ATOM     29  C   LIG    1       22.805 -26.690  13.416  0.00  0.00    +0.041 A 
ATOM     30  C   LIG    1       22.572 -27.991  12.976  0.00  0.00    +0.026 A 
ENDBRANCH  21  23
ENDBRANCH   8  21
BRANCH   2  31
ATOM     31  O   LIG    1       26.403 -31.573   6.640  0.00  0.00    -0.484 OA
BRANCH  31  32
ATOM     32  C   LIG    1       26.101 -32.879   6.101  0.00  0.00    +0.201 C 
ATOM     33  C   LIG    1       27.264 -33.400   5.275  0.00  0.00    +0.204 C 
ATOM     34  O   LIG    1       27.016 -33.055   3.908  0.00  0.00    -0.376 OA
ATOM     35  C   LIG    1       25.667 -32.599   3.783  0.00  0.00    +0.163 C 
ATOM     36  C   LIG    1       24.967 -32.815   5.106  0.00  0.00    +0.075 C 
ENDBRANCH  31  32
ENDBRANCH   2  31
TORSDOF 8
ENDMDL
MODEL 4
REMARK VINA RESULT:      -7.9      5.070      8.401
REMARK  Name = *****
REMARK                            x       y       z     vdW  Elec       q    Type
REMARK                         _______ _______ _______ _____ _____    ______ ____
ROOT
ATOM      1  C   LIG    1       26.158 -28.846   9.643  0.00  0.00    +0.077 A 
ATOM      2  C   LIG    1       25.751 -30.132   9.254  0.00  0.00    +0.144 A 
ATOM      3  C   LIG    1       25.137 -30.301   8.012  0.00  0.00    +0.076 A 
ATOM      4  C   LIG    1       25.126 -29.314   7.054  0.00  0.00    +0.080 A 
ATOM      5  N   LIG    1       24.600 -29.650   5.876  0.00  0.00    -0.235 NA
ATOM      6  C   LIG    1       24.618 -28.716   4.929  0.00  0.00    +0.224 A 
ATOM      7  N   LIG    1       25.119 -27.487   5.058  0.00  0.00    -0.220 NA
ATOM      8  C   LIG    1       25.649 -27.171   6.259  0.00  0.00    +0.134 A 
ATOM      9  C   LIG    1       25.669 -28.063   7.351  0.00  0.00    +0.042 A 
ATOM     10  C   LIG    1       26.125 -27.821   8.686  0.00  0.00    +0.040 A 
ENDROOT
BRANCH   1  12
ATOM     11  C   LIG    1       27.751 -29.123  11.555  0.00  0.00    +0.241 C 
ATOM     12  N   LIG    1       26.584 -28.660  10.969  0.00  0.00    -0.279 N 
ATOM     13  H   LIG    1       25.995 -28.040  11.525  0.00  0.00    +0.155 HD
ATOM     14  O   LIG    1       28.649 -29.755  11.036  0.00  0.00    -0.271 OA
BRANCH  11  16
ATOM     15  C   LIG    1       27.023 -27.749  13.444  0.00  0.00    -0.007 C 
ATOM     16  C   LIG    1       27.817 -28.730  12.992  0.00  0.00    +0.064 C 
BRANCH  15  17
ATOM     17  C   LIG    1       27.076 -27.206  14.848  0.00  0.00    +0.111 C 
BRANCH  17  19
ATOM     18  C   LIG    1       28.074 -24.998  14.577  0.00  0.00    +0.105 C 
ATOM     19  N   LIG    1       26.895 -25.758  14.982  0.00  0.00    -0.305 NA
ATOM     20  C   LIG    1       25.697 -25.288  14.292  0.00  0.00    +0.105 C 
ENDBRANCH  17  19
ENDBRANCH  15  17
ENDBRANCH  11  16
ENDBRANCH   1  12
BRANCH   8  21
ATOM     21  N   LIG    1       26.104 -25.845   6.324  0.00  0.00    -0.299 N 
ATOM     22  H   LIG    1       26.944 -25.904   6.901  0.00  0.00    +0.154 HD
BRANCH  21  23
ATOM     23  C   LIG    1       25.387 -24.680   6.672  0.00  0.00    +0.034 A 
ATOM     24  C   LIG    1       25.986 -23.485   7.088  0.00  0.00    +0.046 A 
ATOM     25  C   LIG    1       25.190 -22.369   7.377  0.00  0.00    +0.078 A 
ATOM     26 CL   LIG    1       25.929 -20.915   7.935  0.00  0.00    -0.081 Cl
ATOM     27  C   LIG    1       23.806 -22.435   7.219  0.00  0.00    +0.142 A 
ATOM     28  F   LIG    1       23.027 -21.383   7.514  0.00  0.00    -0.204 F 
ATOM     29  C   LIG    1       23.208 -23.595   6.748  0.00  0.00    +0.041 A 
ATOM     30  C   LIG    1       24.000 -24.704   6.459  0.00  0.00    +0.026 A 
ENDBRANCH  21  23
ENDBRANCH   8  21
BRANCH   2  31
ATOM     31  O   LIG    1       25.929 -31.184  10.128  0.00  0.00    -0.484 OA
BRANCH  31  32
ATOM     32  C   LIG    1       24.717 -31.650  10.760  0.00  0.00    +0.201 C 
ATOM     33  C   LIG    1       23.820 -30.482  11.126  0.00  0.00    +0.204 C 
ATOM     34  O   LIG    1       24.095 -30.129  12.485  0.00  0.00    -0.376 OA
ATOM     35  C   LIG    1       24.897 -31.154  13.076  0.00  0.00    +0.163 C 
ATOM     36  C   LIG    1       25.006 -32.299  12.093  0.00  0.00    +0.075 C 
ENDBRANCH  31  32
ENDBRANCH   2  31
TORSDOF 8
ENDMDL
MODEL 5
REMARK VINA RESULT:      -6.5      5.138      9.417
REMARK  Name = *****
REMARK                            x       y       z     vdW  Elec       q    Type
REMARK                         _______ _______ _______ _____ _____    ______ ____
ROOT
ATOM      1  C   LIG    1       25.640 -29.278   8.839  0.00  0.00    +0.077 A 
ATOM      2  C   LIG    1       25.509 -30.335   7.925  0.00  0.00    +0.144 A 
ATOM      3  C   LIG    1       25.208 -30.046   6.593  0.00  0.00    +0.076 A 
ATOM      4  C   LIG    1       25.266 -28.769   6.084  0.00  0.00    +0.080 A 
ATOM      5  N   LIG    1       25.059 -28.654   4.773  0.00  0.00    -0.235 NA
ATOM      6  C   LIG    1       25.151 -27.430   4.262  0.00  0.00    +0.224 A 
ATOM      7  N   LIG    1       25.436 -26.321   4.946  0.00  0.00    -0.220 NA
ATOM      8  C   LIG    1       25.645 -26.463   6.272  0.00  0.00    +0.134 A 
ATOM      9  C   LIG    1       25.552 -27.702   6.938  0.00  0.00    +0.042 A 
ATOM     10  C   LIG    1       25.671 -27.968   8.339  0.00  0.00    +0.040 A 
ENDROOT
BRANCH   1  12
ATOM     11  C   LIG    1       26.892 -29.816  10.939  0.00  0.00    +0.241 C 
ATOM     12  N   LIG    1       25.739 -29.593  10.205  0.00  0.00    -0.279 N 
ATOM     13  H   LIG    1       24.856 -29.567  10.716  0.00  0.00    +0.155 HD
ATOM     14  O   LIG    1       28.044 -29.757  10.560  0.00  0.00    -0.271 OA
BRANCH  11  16
ATOM     15  C   LIG    1       25.321 -30.537  12.672  0.00  0.00    -0.007 C 
ATOM     16  C   LIG    1       26.564 -30.146  12.357  0.00  0.00    +0.064 C 
BRANCH  15  17
ATOM     17  C   LIG    1       24.856 -30.799  14.081  0.00  0.00    +0.111 C 
BRANCH  17  19
ATOM     18  C   LIG    1       24.343 -28.698  15.206  0.00  0.00    +0.105 C 
ATOM     19  N   LIG    1       23.809 -29.907  14.586  0.00  0.00    -0.305 NA
ATOM     20  C   LIG    1       22.819 -29.587  13.560  0.00  0.00    +0.105 C 
ENDBRANCH  17  19
ENDBRANCH  15  17
ENDBRANCH  11  16
ENDBRANCH   1  12
BRANCH   8  21
ATOM     21  N   LIG    1       25.886 -25.242   6.921  0.00  0.00    -0.299 N 
ATOM     22  H   LIG    1       25.924 -25.495   7.910  0.00  0.00    +0.154 HD
BRANCH  21  23
ATOM     23  C   LIG    1       25.197 -24.017   6.786  0.00  0.00    +0.034 A 
ATOM     24  C   LIG    1       25.812 -22.806   6.446  0.00  0.00    +0.046 A 
ATOM     25  C   LIG    1       25.036 -21.648   6.300  0.00  0.00    +0.078 A 
ATOM     26 CL   LIG    1       25.803 -20.149   5.928  0.00  0.00    -0.081 Cl
ATOM     27  C   LIG    1       23.652 -21.706   6.456  0.00  0.00    +0.142 A 
ATOM     28  F   LIG    1       22.897 -20.603   6.342  0.00  0.00    -0.204 F 
ATOM     29  C   LIG    1       23.027 -22.914   6.731  0.00  0.00    +0.041 A 
ATOM     30  C   LIG    1       23.798 -24.065   6.875  0.00  0.00    +0.026 A 
ENDBRANCH  21  23
ENDBRANCH   8  21
BRANCH   2  31
ATOM     31  O   LIG    1       25.639 -31.632   8.378  0.00  0.00    -0.484 OA
BRANCH  31  32
ATOM     32  C   LIG    1       24.448 -32.437   8.241  0.00  0.00    +0.201 C 
ATOM     33  C   LIG    1       23.323 -31.880   9.095  0.00  0.00    +0.204 C 
ATOM     34  O   LIG    1       23.343 -32.572  10.349  0.00  0.00    -0.376 OA
ATOM     35  C   LIG    1       24.219 -33.698  10.241  0.00  0.00    +0.163 C 
ATOM     36  C   LIG    1       24.655 -33.825   8.798  0.00  0.00    +0.075 C 
ENDBRANCH  31  32
ENDBRANCH   2  31
TORSDOF 8
ENDMDL
MODEL 6
REMARK VINA RESULT:      -6.5      4.052      6.237
REMARK  Name = *****
REMARK                            x       y       z     vdW  Elec       q    Type
REMARK                         _______ _______ _______ _____ _____    ______ ____
ROOT
ATOM      1  C   LIG    1       27.625 -19.022   5.146  0.00  0.00    +0.077 A 
ATOM      2  C   LIG    1       27.088 -18.121   4.213  0.00  0.00    +0.144 A 
ATOM      3  C   LIG    1       25.944 -18.486   3.501  0.00  0.00    +0.076 A 
ATOM      4  C   LIG    1       25.183 -19.581   3.837  0.00  0.00    +0.080 A 
ATOM      5  N   LIG    1       24.060 -19.748   3.140  0.00  0.00    -0.235 NA
ATOM      6  C   LIG    1       23.296 -20.782   3.481  0.00  0.00    +0.224 A 
ATOM      7  N   LIG    1       23.556 -21.652   4.458  0.00  0.00    -0.220 NA
ATOM      8  C   LIG    1       24.698 -21.461   5.153  0.00  0.00    +0.134 A 
ATOM      9  C   LIG    1       25.605 -20.417   4.873  0.00  0.00    +0.042 A 
ATOM     10  C   LIG    1       26.875 -20.159   5.479  0.00  0.00    +0.040 A 
ENDROOT
BRANCH   1  12
ATOM     11  C   LIG    1       29.659 -19.538   6.513  0.00  0.00    +0.241 C 
ATOM     12  N   LIG    1       28.882 -18.727   5.701  0.00  0.00    -0.279 N 
ATOM     13  H   LIG    1       29.291 -17.846   5.390  0.00  0.00    +0.155 HD
ATOM     14  O   LIG    1       29.424 -20.670   6.883  0.00  0.00    -0.271 OA
BRANCH  11  16
ATOM     15  C   LIG    1       31.130 -18.545   8.198  0.00  0.00    -0.007 C 
ATOM     16  C   LIG    1       30.918 -18.844   6.908  0.00  0.00    +0.064 C 
BRANCH  15  17
ATOM     17  C   LIG    1       32.316 -17.761   8.695  0.00  0.00    +0.111 C 
BRANCH  17  19
ATOM     18  C   LIG    1       32.997 -16.219  10.456  0.00  0.00    +0.105 C 
ATOM     19  N   LIG    1       32.344 -17.484  10.134  0.00  0.00    -0.305 NA
ATOM     20  C   LIG    1       31.015 -17.566  10.734  0.00  0.00    +0.105 C 
ENDBRANCH  17  19
ENDBRANCH  15  17
ENDBRANCH  11  16
ENDBRANCH   1  12
BRANCH   8  21
ATOM     21  N   LIG    1       24.919 -22.449   6.124  0.00  0.00    -0.299 N 
ATOM     22  H   LIG    1       25.634 -22.042   6.729  0.00  0.00    +0.154 HD
BRANCH  21  23
ATOM     23  C   LIG    1       25.198 -23.821   5.942  0.00  0.00    +0.034 A 
ATOM     24  C   LIG    1       25.624 -24.677   6.965  0.00  0.00    +0.046 A 
ATOM     25  C   LIG    1       25.841 -26.034   6.693  0.00  0.00    +0.078 A 
ATOM     26 CL   LIG    1       26.412 -27.075   7.944  0.00  0.00    -0.081 Cl
ATOM     27  C   LIG    1       25.600 -26.542   5.416  0.00  0.00    +0.142 A 
ATOM     28  F   LIG    1       25.824 -27.834   5.133  0.00  0.00    -0.204 F 
ATOM     29  C   LIG    1       25.117 -25.715   4.412  0.00  0.00    +0.041 A 
ATOM     30  C   LIG    1       24.901 -24.365   4.683  0.00  0.00    +0.026 A 
ENDBRANCH  21  23
ENDBRANCH   8  21
BRANCH   2  31
ATOM     31  O   LIG    1       27.731 -16.920   3.995  0.00  0.00    -0.484 OA
BRANCH  31  32
ATOM     32  C   LIG    1       26.918 -15.752   4.241  0.00  0.00    +0.201 C 
ATOM     33  C   LIG    1       25.994 -15.484   3.066  0.00  0.00    +0.204 C 
ATOM     34  O   LIG    1       26.644 -14.542   2.206  0.00  0.00    -0.376 OA
ATOM     35  C   LIG    1       27.779 -14.000   2.887  0.00  0.00    +0.163 C 
ATOM     36  C   LIG    1       27.762 -14.501   4.314  0.00  0.00    +0.075 C 
ENDBRANCH  31  32
ENDBRANCH   2  31
TORSDOF 8
ENDMDL
MODEL 7
REMARK VINA RESULT:      -6.2      4.756      8.847
REMARK  Name = *****
REMARK                            x       y       z     vdW  Elec       q    Type
REMARK                         _______ _______ _______ _____ _____    ______ ____
ROOT
ATOM      1  C   LIG    1       26.257 -28.365   9.067  0.00  0.00    +0.077 A 
ATOM      2  C   LIG    1       25.724 -29.539   8.512  0.00  0.00    +0.144 A 
ATOM      3  C   LIG    1       25.027 -29.462   7.305  0.00  0.00    +0.076 A 
ATOM      4  C   LIG    1       25.040 -28.335   6.516  0.00  0.00    +0.080 A 
ATOM      5  N   LIG    1       24.421 -28.438   5.341  0.00  0.00    -0.235 NA
ATOM      6  C   LIG    1       24.459 -27.368   4.553  0.00  0.00    +0.224 A 
ATOM      7  N   LIG    1       25.065 -26.215   4.836  0.00  0.00    -0.220 NA
ATOM      8  C   LIG    1       25.688 -26.135   6.031  0.00  0.00    +0.134 A 
ATOM      9  C   LIG    1       25.699 -27.190   6.967  0.00  0.00    +0.042 A 
ATOM     10  C   LIG    1       26.251 -27.200   8.287  0.00  0.00    +0.040 A 
ENDROOT
BRANCH   1  12
ATOM     11  C   LIG    1       26.065 -28.519  11.559  0.00  0.00    +0.241 C 
ATOM     12  N   LIG    1       26.774 -28.426  10.373  0.00  0.00    -0.279 N 
ATOM     13  H   LIG    1       27.790 -28.494  10.428  0.00  0.00    +0.155 HD
ATOM     14  O   LIG    1       24.862 -28.594  11.708  0.00  0.00    -0.271 OA
BRANCH  11  16
ATOM     15  C   LIG    1       27.769 -29.606  12.939  0.00  0.00    -0.007 C 
ATOM     16  C   LIG    1       26.988 -28.536  12.730  0.00  0.00    +0.064 C 
BRANCH  15  17
ATOM     17  C   LIG    1       28.663 -29.771  14.140  0.00  0.00    +0.111 C 
BRANCH  17  19
ATOM     18  C   LIG    1       30.569 -29.592  12.631  0.00  0.00    +0.105 C 
ATOM     19  N   LIG    1       30.043 -30.178  13.860  0.00  0.00    -0.305 NA
ATOM     20  C   LIG    1       30.929 -29.926  14.993  0.00  0.00    +0.105 C 
ENDBRANCH  17  19
ENDBRANCH  15  17
ENDBRANCH  11  16
ENDBRANCH   1  12
BRANCH   8  21
ATOM     21  N   LIG    1       26.253 -24.872   6.270  0.00  0.00    -0.299 N 
ATOM     22  H   LIG    1       26.985 -25.058   6.957  0.00  0.00    +0.154 HD
BRANCH  21  23
ATOM     23  C   LIG    1       25.606 -23.663   6.603  0.00  0.00    +0.034 A 
ATOM     24  C   LIG    1       24.494 -23.154   5.920  0.00  0.00    +0.046 A 
ATOM     25  C   LIG    1       23.898 -21.961   6.350  0.00  0.00    +0.078 A 
ATOM     26 CL   LIG    1       22.559 -21.314   5.477  0.00  0.00    -0.081 Cl
ATOM     27  C   LIG    1       24.385 -21.298   7.476  0.00  0.00    +0.142 A 
ATOM     28  F   LIG    1       23.840 -20.144   7.888  0.00  0.00    -0.204 F 
ATOM     29  C   LIG    1       25.446 -21.828   8.197  0.00  0.00    +0.041 A 
ATOM     30  C   LIG    1       26.038 -23.015   7.770  0.00  0.00    +0.026 A 
ENDBRANCH  21  23
ENDBRANCH   8  21
BRANCH   2  31
ATOM     31  O   LIG    1       25.867 -30.728   9.197  0.00  0.00    -0.484 OA
BRANCH  31  32
ATOM     32  C   LIG    1       26.990 -31.532   8.773  0.00  0.00    +0.201 C 
ATOM     33  C   LIG    1       26.758 -32.085   7.379  0.00  0.00    +0.204 C 
ATOM     34  O   LIG    1       26.194 -33.393   7.515  0.00  0.00    -0.376 OA
ATOM     35  C   LIG    1       26.306 -33.804   8.880  0.00  0.00    +0.163 C 
ATOM     36  C   LIG    1       27.128 -32.774   9.622  0.00  0.00    +0.075 C 
ENDBRANCH  31  32
ENDBRANCH   2  31
TORSDOF 8
ENDMDL
