MODEL 1
REMARK VINA RESULT:      -7.2      0.000      0.000
REMARK  Name = *****
REMARK                            x       y       z     vdW  Elec       q    Type
REMARK                         _______ _______ _______ _____ _____    ______ ____
ROOT
ATOM      1  C   LIG    1       29.837 -20.304   7.745  0.00  0.00    -0.015 A 
ATOM      2  C   LIG    1       29.743 -19.281   6.788  0.00  0.00    +0.028 A 
ATOM      3  C   LIG    1       28.675 -19.243   5.875  0.00  0.00    +0.063 A 
ATOM      4 CL   LIG    1       28.638 -17.943   4.729  0.00  0.00    -0.082 Cl
ATOM      5  C   LIG    1       27.679 -20.232   5.865  0.00  0.00    +0.062 A 
ATOM      6  C   LIG    1       27.744 -21.216   6.866  0.00  0.00    +0.063 A 
ATOM      7 CL   LIG    1       26.515 -22.430   6.987  0.00  0.00    -0.082 Cl
ATOM      8  C   LIG    1       28.811 -21.261   7.775  0.00  0.00    +0.028 A 
ENDROOT
BRANCH   5   9
ATOM      9  N   LIG    1       26.538 -20.114   5.036  0.00  0.00    -0.356 N 
ATOM     10  H   LIG    1       26.463 -20.862   4.348  0.00  0.00    +0.142 HD
ATOM     11  H   LIG    1       25.680 -19.953   5.562  0.00  0.00    +0.142 HD
ENDBRANCH   5   9
BRANCH   1  12
ATOM     12  C   LIG    1       30.980 -20.325   8.748  0.00  0.00    +0.158 C 
BRANCH  12  13
ATOM     13  O   LIG    1       31.872 -21.413   8.471  0.00  0.00    -0.386 OA
ATOM     14  H   LIG    1       32.419 -21.502   9.279  0.00  0.00    +0.210 HD
ENDBRANCH  12  13
BRANCH  12  15
ATOM     15  C   LIG    1       31.811 -19.011   8.776  0.00  0.00    +0.117 C 
BRANCH  15  16
ATOM     16  N   LIG    1       31.941 -18.498  10.158  0.00  0.00    -0.309 NA
ATOM     17  H   LIG    1       31.337 -19.049  10.773  0.00  0.00    +0.122 HD
BRANCH  16  19
ATOM     18  C   LIG    1       31.598 -16.659  11.823  0.00  0.00    +0.027 C 
ATOM     19  C   LIG    1       31.610 -17.065  10.340  0.00  0.00    +0.011 C 
ATOM     20  C   LIG    1       32.565 -16.143   9.558  0.00  0.00    +0.027 C 
ATOM     21  C   LIG    1       30.189 -16.863   9.775  0.00  0.00    +0.027 C 
ENDBRANCH  16  19
ENDBRANCH  15  16
ENDBRANCH  12  15
ENDBRANCH   1  12
TORSDOF 6
ENDMDL
MODEL 2
REMARK VINA RESULT:      -7.2      0.080      2.436
REMARK  Name = *****
REMARK                            x       y       z     vdW  Elec       q    Type
REMARK                         _______ _______ _______ _____ _____    ______ ____
ROOT
ATOM      1  C   LIG    1       29.813 -20.268   7.791  0.00  0.00    -0.015 A 
ATOM      2  C   LIG    1       28.813 -21.254   7.818  0.00  0.00    +0.028 A 
ATOM      3  C   LIG    1       27.737 -21.214   6.915  0.00  0.00    +0.063 A 
ATOM      4 CL   LIG    1       26.549 -22.472   7.019  0.00  0.00    -0.082 Cl
ATOM      5  C   LIG    1       27.603 -20.182   5.973  0.00  0.00    +0.062 A 
ATOM      6  C   LIG    1       28.640 -19.236   5.909  0.00  0.00    +0.063 A 
ATOM      7 CL   LIG    1       28.607 -17.974   4.723  0.00  0.00    -0.082 Cl
ATOM      8  C   LIG    1       29.713 -19.269   6.812  0.00  0.00    +0.028 A 
ENDROOT
BRANCH   5   9
ATOM      9  N   LIG    1       26.594 -20.222   4.981  0.00  0.00    -0.356 N 
ATOM     10  H   LIG    1       25.652 -20.176   5.365  0.00  0.00    +0.142 HD
ATOM     11  H   LIG    1       26.760 -19.565   4.219  0.00  0.00    +0.142 HD
ENDBRANCH   5   9
BRANCH   1  12
ATOM     12  C   LIG    1       30.989 -20.331   8.753  0.00  0.00    +0.158 C 
BRANCH  12  13
ATOM     13  O   LIG    1       31.838 -21.442   8.437  0.00  0.00    -0.386 OA
ATOM     14  H   LIG    1       31.965 -21.395   7.467  0.00  0.00    +0.210 HD
ENDBRANCH  12  13
BRANCH  12  15
ATOM     15  C   LIG    1       31.860 -19.042   8.760  0.00  0.00    +0.117 C 
BRANCH  15  16
ATOM     16  N   LIG    1       31.995 -18.506  10.133  0.00  0.00    -0.309 NA
ATOM     17  H   LIG    1       31.432 -19.076  10.768  0.00  0.00    +0.122 HD
BRANCH  16  19
ATOM     18  C   LIG    1       32.609 -16.126   9.654  0.00  0.00    +0.027 C 
ATOM     19  C   LIG    1       31.602 -17.087  10.305  0.00  0.00    +0.011 C 
ATOM     20  C   LIG    1       30.189 -16.804   9.761  0.00  0.00    +0.027 C 
ATOM     21  C   LIG    1       31.588 -16.813  11.823  0.00  0.00    +0.027 C 
ENDBRANCH  16  19
ENDBRANCH  15  16
ENDBRANCH  12  15
ENDBRANCH   1  12
TORSDOF 6
ENDMDL
MODEL 3
REMARK VINA RESULT:      -7.1      3.668      7.130
REMARK  Name = *****
REMARK                            x       y       z     vdW  Elec       q    Type
REMARK                         _______ _______ _______ _____ _____    ______ ____
ROOT
ATOM      1  C   LIG    1       27.415 -21.123   6.944  0.00  0.00    -0.015 A 
ATOM      2  C   LIG    1       27.796 -20.039   6.135  0.00  0.00    +0.028 A 
ATOM      3  C   LIG    1       29.078 -19.474   6.244  0.00  0.00    +0.063 A 
ATOM      4 CL   LIG    1       29.463 -18.141   5.206  0.00  0.00    -0.082 Cl
ATOM      5  C   LIG    1       30.016 -19.948   7.175  0.00  0.00    +0.062 A 
ATOM      6  C   LIG    1       29.651 -21.072   7.935  0.00  0.00    +0.063 A 
ATOM      7 CL   LIG    1       30.772 -21.781   9.049  0.00  0.00    -0.082 Cl
ATOM      8  C   LIG    1       28.371 -21.636   7.834  0.00  0.00    +0.028 A 
ENDROOT
BRANCH   5   9
ATOM      9  N   LIG    1       31.346 -19.465   7.185  0.00  0.00    -0.356 N 
ATOM     10  H   LIG    1       31.462 -18.598   6.663  0.00  0.00    +0.142 HD
ATOM     11  H   LIG    1       31.753 -19.440   8.119  0.00  0.00    +0.142 HD
ENDBRANCH   5   9
BRANCH   1  12
ATOM     12  C   LIG    1       26.037 -21.748   6.803  0.00  0.00    +0.158 C 
BRANCH  12  13
ATOM     13  O   LIG    1       25.598 -21.699   5.439  0.00  0.00    -0.386 OA
ATOM     14  H   LIG    1       25.882 -20.819   5.115  0.00  0.00    +0.210 HD
ENDBRANCH  12  13
BRANCH  12  15
ATOM     15  C   LIG    1       25.969 -23.227   7.282  0.00  0.00    +0.117 C 
BRANCH  15  16
ATOM     16  N   LIG    1       26.231 -24.157   6.160  0.00  0.00    -0.309 NA
ATOM     17  H   LIG    1       26.209 -23.631   5.283  0.00  0.00    +0.122 HD
BRANCH  16  19
ATOM     18  C   LIG    1       25.767 -26.518   6.850  0.00  0.00    +0.027 C 
ATOM     19  C   LIG    1       25.293 -25.298   6.046  0.00  0.00    +0.011 C 
ATOM     20  C   LIG    1       23.862 -24.920   6.472  0.00  0.00    +0.027 C 
ATOM     21  C   LIG    1       25.255 -25.691   4.555  0.00  0.00    +0.027 C 
ENDBRANCH  16  19
ENDBRANCH  15  16
ENDBRANCH  12  15
ENDBRANCH   1  12
TORSDOF 6
ENDMDL
MODEL 4
REMARK VINA RESULT:      -7.1      3.659      7.373
REMARK  Name = *****
REMARK                            x       y       z     vdW  Elec       q    Type
REMARK                         _______ _______ _______ _____ _____    ______ ____
ROOT
ATOM      1  C   LIG    1       27.429 -21.133   6.921  0.00  0.00    -0.015 A 
ATOM      2  C   LIG    1       28.374 -21.654   7.821  0.00  0.00    +0.028 A 
ATOM      3  C   LIG    1       29.664 -21.104   7.910  0.00  0.00    +0.063 A 
ATOM      4 CL   LIG    1       30.764 -21.809   9.049  0.00  0.00    -0.082 Cl
ATOM      5  C   LIG    1       30.068 -20.036   7.093  0.00  0.00    +0.062 A 
ATOM      6  C   LIG    1       29.099 -19.479   6.242  0.00  0.00    +0.063 A 
ATOM      7 CL   LIG    1       29.478 -18.105   5.259  0.00  0.00    -0.082 Cl
ATOM      8  C   LIG    1       27.812 -20.028   6.146  0.00  0.00    +0.028 A 
ENDROOT
BRANCH   5   9
ATOM      9  N   LIG    1       31.319 -19.401   7.283  0.00  0.00    -0.356 N 
ATOM     10  H   LIG    1       32.064 -19.806   6.719  0.00  0.00    +0.142 HD
ATOM     11  H   LIG    1       31.262 -18.386   7.222  0.00  0.00    +0.142 HD
ENDBRANCH   5   9
BRANCH   1  12
ATOM     12  C   LIG    1       26.026 -21.714   6.848  0.00  0.00    +0.158 C 
BRANCH  12  13
ATOM     13  O   LIG    1       25.529 -21.662   5.504  0.00  0.00    -0.386 OA
ATOM     14  H   LIG    1       25.239 -22.576   5.306  0.00  0.00    +0.210 HD
ENDBRANCH  12  13
BRANCH  12  15
ATOM     15  C   LIG    1       25.932 -23.185   7.343  0.00  0.00    +0.117 C 
BRANCH  15  16
ATOM     16  N   LIG    1       26.200 -24.132   6.238  0.00  0.00    -0.309 NA
ATOM     17  H   LIG    1       26.248 -23.610   5.360  0.00  0.00    +0.122 HD
BRANCH  16  19
ATOM     18  C   LIG    1       25.628 -26.496   6.833  0.00  0.00    +0.027 C 
ATOM     19  C   LIG    1       25.210 -25.223   6.079  0.00  0.00    +0.011 C 
ATOM     20  C   LIG    1       23.798 -24.798   6.523  0.00  0.00    +0.027 C 
ATOM     21  C   LIG    1       25.154 -25.554   4.574  0.00  0.00    +0.027 C 
ENDBRANCH  16  19
ENDBRANCH  15  16
ENDBRANCH  12  15
ENDBRANCH   1  12
TORSDOF 6
ENDMDL
MODEL 5
REMARK VINA RESULT:      -7.0      2.835      3.900
REMARK  Name = *****
REMARK                            x       y       z     vdW  Elec       q    Type
REMARK                         _______ _______ _______ _____ _____    ______ ____
ROOT
ATOM      1  C   LIG    1       26.067 -20.865   7.098  0.00  0.00    -0.015 A 
ATOM      2  C   LIG    1       26.048 -20.188   5.868  0.00  0.00    +0.028 A 
ATOM      3  C   LIG    1       25.016 -20.410   4.939  0.00  0.00    +0.063 A 
ATOM      4 CL   LIG    1       25.071 -19.530   3.447  0.00  0.00    -0.082 Cl
ATOM      5  C   LIG    1       23.985 -21.329   5.189  0.00  0.00    +0.062 A 
ATOM      6  C   LIG    1       23.976 -21.955   6.447  0.00  0.00    +0.063 A 
ATOM      7 CL   LIG    1       22.698 -23.040   6.880  0.00  0.00    -0.082 Cl
ATOM      8  C   LIG    1       25.006 -21.740   7.375  0.00  0.00    +0.028 A 
ENDROOT
BRANCH   5   9
ATOM      9  N   LIG    1       22.880 -21.447   4.312  0.00  0.00    -0.356 N 
ATOM     10  H   LIG    1       22.937 -22.261   3.702  0.00  0.00    +0.142 HD
ATOM     11  H   LIG    1       21.984 -21.351   4.786  0.00  0.00    +0.142 HD
ENDBRANCH   5   9
BRANCH   1  12
ATOM     12  C   LIG    1       27.171 -20.601   8.111  0.00  0.00    +0.158 C 
BRANCH  12  13
ATOM     13  O   LIG    1       27.546 -21.816   8.775  0.00  0.00    -0.386 OA
ATOM     14  H   LIG    1       26.699 -22.255   8.994  0.00  0.00    +0.210 HD
ENDBRANCH  12  13
BRANCH  12  15
ATOM     15  C   LIG    1       28.450 -19.971   7.490  0.00  0.00    +0.117 C 
BRANCH  15  16
ATOM     16  N   LIG    1       29.274 -19.317   8.532  0.00  0.00    -0.309 NA
ATOM     17  H   LIG    1       29.108 -18.309   8.499  0.00  0.00    +0.122 HD
BRANCH  16  19
ATOM     18  C   LIG    1       31.540 -18.555   9.277  0.00  0.00    +0.027 C 
ATOM     19  C   LIG    1       30.734 -19.554   8.432  0.00  0.00    +0.011 C 
ATOM     20  C   LIG    1       31.118 -20.993   8.823  0.00  0.00    +0.027 C 
ATOM     21  C   LIG    1       31.115 -19.348   6.952  0.00  0.00    +0.027 C 
ENDBRANCH  16  19
ENDBRANCH  15  16
ENDBRANCH  12  15
ENDBRANCH   1  12
TORSDOF 6
ENDMDL
MODEL 6
REMARK VINA RESULT:      -6.9      2.830      4.442
REMARK  Name = *****
REMARK                            x       y       z     vdW  Elec       q    Type
REMARK                         _______ _______ _______ _____ _____    ______ ____
ROOT
ATOM      1  C   LIG    1       26.051 -20.764   7.134  0.00  0.00    -0.015 A 
ATOM      2  C   LIG    1       24.990 -21.642   7.412  0.00  0.00    +0.028 A 
ATOM      3  C   LIG    1       23.955 -21.839   6.482  0.00  0.00    +0.063 A 
ATOM      4 CL   LIG    1       22.687 -22.941   6.908  0.00  0.00    -0.082 Cl
ATOM      5  C   LIG    1       23.926 -21.154   5.257  0.00  0.00    +0.062 A 
ATOM      6  C   LIG    1       25.022 -20.328   4.958  0.00  0.00    +0.063 A 
ATOM      7 CL   LIG    1       25.116 -19.507   3.436  0.00  0.00    -0.082 Cl
ATOM      8  C   LIG    1       26.054 -20.124   5.886  0.00  0.00    +0.028 A 
ENDROOT
BRANCH   5   9
ATOM      9  N   LIG    1       22.956 -21.458   4.271  0.00  0.00    -0.356 N 
ATOM     10  H   LIG    1       23.263 -22.174   3.614  0.00  0.00    +0.142 HD
ATOM     11  H   LIG    1       22.031 -21.630   4.663  0.00  0.00    +0.142 HD
ENDBRANCH   5   9
BRANCH   1  12
ATOM     12  C   LIG    1       27.183 -20.575   8.133  0.00  0.00    +0.158 C 
BRANCH  12  13
ATOM     13  O   LIG    1       27.513 -21.822   8.760  0.00  0.00    -0.386 OA
ATOM     14  H   LIG    1       27.674 -22.442   8.019  0.00  0.00    +0.210 HD
ENDBRANCH  12  13
BRANCH  12  15
ATOM     15  C   LIG    1       28.479 -19.989   7.505  0.00  0.00    +0.117 C 
BRANCH  15  16
ATOM     16  N   LIG    1       29.298 -19.304   8.530  0.00  0.00    -0.309 NA
ATOM     17  H   LIG    1       29.136 -18.297   8.463  0.00  0.00    +0.122 HD
BRANCH  16  19
ATOM     18  C   LIG    1       31.559 -18.562   9.311  0.00  0.00    +0.027 C 
ATOM     19  C   LIG    1       30.757 -19.550   8.448  0.00  0.00    +0.011 C 
ATOM     20  C   LIG    1       31.128 -20.994   8.834  0.00  0.00    +0.027 C 
ATOM     21  C   LIG    1       31.160 -19.335   6.974  0.00  0.00    +0.027 C 
ENDBRANCH  16  19
ENDBRANCH  15  16
ENDBRANCH  12  15
ENDBRANCH   1  12
TORSDOF 6
ENDMDL
MODEL 7
REMARK VINA RESULT:      -6.9      3.006      4.263
REMARK  Name = *****
REMARK                            x       y       z     vdW  Elec       q    Type
REMARK                         _______ _______ _______ _____ _____    ______ ____
ROOT
ATOM      1  C   LIG    1       26.449 -21.963   7.156  0.00  0.00    -0.015 A 
ATOM      2  C   LIG    1       25.419 -21.031   6.945  0.00  0.00    +0.028 A 
ATOM      3  C   LIG    1       24.126 -21.454   6.594  0.00  0.00    +0.063 A 
ATOM      4 CL   LIG    1       22.916 -20.236   6.355  0.00  0.00    -0.082 Cl
ATOM      5  C   LIG    1       23.817 -22.812   6.416  0.00  0.00    +0.062 A 
ATOM      6  C   LIG    1       24.835 -23.741   6.691  0.00  0.00    +0.063 A 
ATOM      7 CL   LIG    1       24.526 -25.441   6.582  0.00  0.00    -0.082 Cl
ATOM      8  C   LIG    1       26.128 -23.323   7.037  0.00  0.00    +0.028 A 
ENDROOT
BRANCH   5   9
ATOM      9  N   LIG    1       22.485 -23.238   6.197  0.00  0.00    -0.356 N 
ATOM     10  H   LIG    1       22.416 -24.220   5.933  0.00  0.00    +0.142 HD
ATOM     11  H   LIG    1       21.853 -22.970   6.950  0.00  0.00    +0.142 HD
ENDBRANCH   5   9
BRANCH   1  12
ATOM     12  C   LIG    1       27.840 -21.501   7.562  0.00  0.00    +0.158 C 
BRANCH  12  13
ATOM     13  O   LIG    1       28.792 -21.807   6.534  0.00  0.00    -0.386 OA
ATOM     14  H   LIG    1       28.413 -22.576   6.061  0.00  0.00    +0.210 HD
ENDBRANCH  12  13
BRANCH  12  15
ATOM     15  C   LIG    1       27.928 -19.979   7.869  0.00  0.00    +0.117 C 
BRANCH  15  16
ATOM     16  N   LIG    1       29.176 -19.660   8.599  0.00  0.00    -0.309 NA
ATOM     17  H   LIG    1       28.936 -19.169   9.464  0.00  0.00    +0.122 HD
BRANCH  16  19
ATOM     18  C   LIG    1       31.496 -19.573   7.662  0.00  0.00    +0.027 C 
ATOM     19  C   LIG    1       30.159 -18.839   7.853  0.00  0.00    +0.011 C 
ATOM     20  C   LIG    1       29.618 -18.383   6.485  0.00  0.00    +0.027 C 
ATOM     21  C   LIG    1       30.419 -17.579   8.703  0.00  0.00    +0.027 C 
ENDBRANCH  16  19
ENDBRANCH  15  16
ENDBRANCH  12  15
ENDBRANCH   1  12
TORSDOF 6
ENDMDL
MODEL 8
REMARK VINA RESULT:      -6.9      3.502      7.022
REMARK  Name = *****
REMARK                            x       y       z     vdW  Elec       q    Type
REMARK                         _______ _______ _______ _____ _____    ______ ____
ROOT
ATOM      1  C   LIG    1       27.265 -21.033   7.288  0.00  0.00    -0.015 A 
ATOM      2  C   LIG    1       28.266 -21.592   8.100  0.00  0.00    +0.028 A 
ATOM      3  C   LIG    1       29.597 -21.150   8.011  0.00  0.00    +0.063 A 
ATOM      4 CL   LIG    1       30.766 -21.895   9.052  0.00  0.00    -0.082 Cl
ATOM      5  C   LIG    1       29.984 -20.157   7.098  0.00  0.00    +0.062 A 
ATOM      6  C   LIG    1       28.968 -19.557   6.335  0.00  0.00    +0.063 A 
ATOM      7 CL   LIG    1       29.335 -18.265   5.243  0.00  0.00    -0.082 Cl
ATOM      8  C   LIG    1       27.639 -19.999   6.416  0.00  0.00    +0.028 A 
ENDROOT
BRANCH   5   9
ATOM      9  N   LIG    1       31.295 -19.622   7.109  0.00  0.00    -0.356 N 
ATOM     10  H   LIG    1       31.327 -18.643   7.390  0.00  0.00    +0.142 HD
ATOM     11  H   LIG    1       31.961 -20.213   7.604  0.00  0.00    +0.142 HD
ENDBRANCH   5   9
BRANCH   1  12
ATOM     12  C   LIG    1       25.822 -21.496   7.407  0.00  0.00    +0.158 C 
BRANCH  12  13
ATOM     13  O   LIG    1       25.120 -20.711   8.380  0.00  0.00    -0.386 OA
ATOM     14  H   LIG    1       24.770 -21.360   9.023  0.00  0.00    +0.210 HD
ENDBRANCH  12  13
BRANCH  12  15
ATOM     15  C   LIG    1       25.032 -21.431   6.068  0.00  0.00    +0.117 C 
BRANCH  15  16
ATOM     16  N   LIG    1       24.028 -20.343   6.101  0.00  0.00    -0.309 NA
ATOM     17  H   LIG    1       23.422 -20.477   6.913  0.00  0.00    +0.122 HD
BRANCH  16  19
ATOM     18  C   LIG    1       22.465 -18.867   4.818  0.00  0.00    +0.027 C 
ATOM     19  C   LIG    1       23.175 -20.228   4.895  0.00  0.00    +0.011 C 
ATOM     20  C   LIG    1       23.965 -20.474   3.596  0.00  0.00    +0.027 C 
ATOM     21  C   LIG    1       22.098 -21.326   5.008  0.00  0.00    +0.027 C 
ENDBRANCH  16  19
ENDBRANCH  15  16
ENDBRANCH  12  15
ENDBRANCH   1  12
TORSDOF 6
ENDMDL
MODEL 9
REMARK VINA RESULT:      -6.9      3.487      6.759
REMARK  Name = *****
REMARK                            x       y       z     vdW  Elec       q    Type
REMARK                         _______ _______ _______ _____ _____    ______ ____
ROOT
ATOM      1  C   LIG    1       27.272 -21.011   7.335  0.00  0.00    -0.015 A 
ATOM      2  C   LIG    1       27.639 -19.986   6.446  0.00  0.00    +0.028 A 
ATOM      3  C   LIG    1       28.966 -19.528   6.383  0.00  0.00    +0.063 A 
ATOM      4 CL   LIG    1       29.329 -18.261   5.257  0.00  0.00    -0.082 Cl
ATOM      5  C   LIG    1       29.967 -20.053   7.215  0.00  0.00    +0.062 A 
ATOM      6  C   LIG    1       29.607 -21.121   8.054  0.00  0.00    +0.063 A 
ATOM      7 CL   LIG    1       30.793 -21.890   9.056  0.00  0.00    -0.082 Cl
ATOM      8  C   LIG    1       28.283 -21.577   8.125  0.00  0.00    +0.028 A 
ENDROOT
BRANCH   5   9
ATOM      9  N   LIG    1       31.324 -19.684   7.051  0.00  0.00    -0.356 N 
ATOM     10  H   LIG    1       31.975 -20.427   7.301  0.00  0.00    +0.142 HD
ATOM     11  H   LIG    1       31.514 -19.259   6.144  0.00  0.00    +0.142 HD
ENDBRANCH   5   9
BRANCH   1  12
ATOM     12  C   LIG    1       25.840 -21.521   7.380  0.00  0.00    +0.158 C 
BRANCH  12  13
ATOM     13  O   LIG    1       25.086 -20.815   8.375  0.00  0.00    -0.386 OA
ATOM     14  H   LIG    1       24.959 -21.461   9.100  0.00  0.00    +0.210 HD
ENDBRANCH  12  13
BRANCH  12  15
ATOM     15  C   LIG    1       25.090 -21.398   6.023  0.00  0.00    +0.117 C 
BRANCH  15  16
ATOM     16  N   LIG    1       24.060 -20.337   6.085  0.00  0.00    -0.309 NA
ATOM     17  H   LIG    1       23.468 -20.498   6.903  0.00  0.00    +0.122 HD
BRANCH  16  19
ATOM     18  C   LIG    1       22.470 -18.868   4.826  0.00  0.00    +0.027 C 
ATOM     19  C   LIG    1       23.188 -20.226   4.892  0.00  0.00    +0.011 C 
ATOM     20  C   LIG    1       23.959 -20.468   3.581  0.00  0.00    +0.027 C 
ATOM     21  C   LIG    1       22.117 -21.329   5.022  0.00  0.00    +0.027 C 
ENDBRANCH  16  19
ENDBRANCH  15  16
ENDBRANCH  12  15
ENDBRANCH   1  12
TORSDOF 6
ENDMDL
