MODEL 1
REMARK VINA RESULT:      -6.3      0.000      0.000
REMARK  Name = *****
REMARK                            x       y       z     vdW  Elec       q    Type
REMARK                         _______ _______ _______ _____ _____    ______ ____
ROOT
ATOM      1  C   LIG    1       24.744 -19.898   4.695  0.00  0.00    +0.124 A 
ATOM      2  C   LIG    1       24.546 -18.780   3.863  0.00  0.00    -0.001 A 
ATOM      3  C   LIG    1       23.251 -18.228   3.771  0.00  0.00    +0.007 A 
ATOM      4  C   LIG    1       22.172 -18.796   4.433  0.00  0.00    +0.001 A 
ATOM      5  C   LIG    1       22.368 -19.930   5.212  0.00  0.00    +0.004 A 
ATOM      6  C   LIG    1       23.646 -20.487   5.341  0.00  0.00    +0.046 A 
ENDROOT
BRANCH   1   7
ATOM      7  O   LIG    1       26.032 -20.371   4.806  0.00  0.00    -0.490 OA
BRANCH   7   8
ATOM      8  C   LIG    1       26.342 -21.078   6.018  0.00  0.00    +0.244 C 
BRANCH   8   9
ATOM      9  C   LIG    1       26.915 -20.086   7.057  0.00  0.00    +0.124 C 
BRANCH   9  11
ATOM     10  C   LIG    1       28.834 -19.199   5.865  0.00  0.00    +0.104 C 
ATOM     11  N   LIG    1       28.390 -19.958   7.042  0.00  0.00    -0.305 NA
ATOM     12  C   LIG    1       29.057 -21.260   7.051  0.00  0.00    +0.104 C 
ENDBRANCH   9  11
ENDBRANCH   8   9
ENDBRANCH   7   8
ENDBRANCH   1   7
BRANCH   2  13
ATOM     13  C   LIG    1       25.713 -18.091   3.166  0.00  0.00    +0.074 C 
BRANCH  13  14
ATOM     14  C   LIG    1       25.931 -16.631   3.528  0.00  0.00    -0.043 A 
ATOM     15  C   LIG    1       27.227 -16.112   3.670  0.00  0.00    +0.004 A 
ATOM     16  C   LIG    1       27.418 -14.757   3.953  0.00  0.00    +0.000 A 
ATOM     17  C   LIG    1       26.323 -13.904   4.078  0.00  0.00    +0.000 A 
ATOM     18  C   LIG    1       25.031 -14.404   3.925  0.00  0.00    +0.000 A 
ATOM     19  C   LIG    1       24.836 -15.760   3.664  0.00  0.00    +0.004 A 
ENDBRANCH  13  14
ENDBRANCH   2  13
TORSDOF 6
ENDMDL
MODEL 2
REMARK VINA RESULT:      -6.0      2.090      5.156
REMARK  Name = *****
REMARK                            x       y       z     vdW  Elec       q    Type
REMARK                         _______ _______ _______ _____ _____    ______ ____
ROOT
ATOM      1  C   LIG    1       24.308 -17.949   3.776  0.00  0.00    +0.124 A 
ATOM      2  C   LIG    1       24.419 -19.314   4.100  0.00  0.00    -0.001 A 
ATOM      3  C   LIG    1       23.273 -19.992   4.566  0.00  0.00    +0.007 A 
ATOM      4  C   LIG    1       22.069 -19.331   4.763  0.00  0.00    +0.001 A 
ATOM      5  C   LIG    1       21.983 -17.972   4.489  0.00  0.00    +0.004 A 
ATOM      6  C   LIG    1       23.097 -17.277   4.003  0.00  0.00    +0.046 A 
ENDROOT
BRANCH   1   7
ATOM      7  O   LIG    1       25.432 -17.338   3.268  0.00  0.00    -0.490 OA
BRANCH   7   8
ATOM      8  C   LIG    1       25.455 -15.902   3.337  0.00  0.00    +0.244 C 
BRANCH   8   9
ATOM      9  C   LIG    1       26.906 -15.423   3.569  0.00  0.00    +0.124 C 
BRANCH   9  11
ATOM     10  C   LIG    1       28.154 -13.349   3.749  0.00  0.00    +0.104 C 
ATOM     11  N   LIG    1       27.248 -14.143   2.909  0.00  0.00    -0.305 NA
ATOM     12  C   LIG    1       26.060 -13.346   2.602  0.00  0.00    +0.104 C 
ENDBRANCH   9  11
ENDBRANCH   8   9
ENDBRANCH   7   8
ENDBRANCH   1   7
BRANCH   2  13
ATOM     13  C   LIG    1       25.705 -20.090   3.844  0.00  0.00    +0.074 C 
BRANCH  13  14
ATOM     14  C   LIG    1       26.716 -20.089   4.981  0.00  0.00    -0.043 A 
ATOM     15  C   LIG    1       26.596 -20.992   6.048  0.00  0.00    +0.004 A 
ATOM     16  C   LIG    1       27.558 -21.018   7.062  0.00  0.00    +0.000 A 
ATOM     17  C   LIG    1       28.654 -20.160   7.012  0.00  0.00    +0.000 A 
ATOM     18  C   LIG    1       28.793 -19.269   5.950  0.00  0.00    +0.000 A 
ATOM     19  C   LIG    1       27.824 -19.226   4.947  0.00  0.00    +0.004 A 
ENDBRANCH  13  14
ENDBRANCH   2  13
TORSDOF 6
ENDMDL
MODEL 3
REMARK VINA RESULT:      -5.6      2.184      5.838
REMARK  Name = *****
REMARK                            x       y       z     vdW  Elec       q    Type
REMARK                         _______ _______ _______ _____ _____    ______ ____
ROOT
ATOM      1  C   LIG    1       28.105 -18.449   4.948  0.00  0.00    +0.124 A 
ATOM      2  C   LIG    1       27.514 -19.721   5.067  0.00  0.00    -0.001 A 
ATOM      3  C   LIG    1       27.889 -20.540   6.153  0.00  0.00    +0.007 A 
ATOM      4  C   LIG    1       28.859 -20.141   7.061  0.00  0.00    +0.001 A 
ATOM      5  C   LIG    1       29.473 -18.904   6.906  0.00  0.00    +0.004 A 
ATOM      6  C   LIG    1       29.106 -18.060   5.851  0.00  0.00    +0.046 A 
ENDROOT
BRANCH   1   7
ATOM      7  O   LIG    1       27.669 -17.656   3.910  0.00  0.00    -0.490 OA
BRANCH   7   8
ATOM      8  C   LIG    1       27.589 -16.247   4.184  0.00  0.00    +0.244 C 
BRANCH   8   9
ATOM      9  C   LIG    1       26.498 -15.613   3.290  0.00  0.00    +0.124 C 
BRANCH   9  11
ATOM     10  C   LIG    1       27.938 -13.662   3.409  0.00  0.00    +0.104 C 
ATOM     11  N   LIG    1       26.897 -14.348   2.632  0.00  0.00    -0.305 NA
ATOM     12  C   LIG    1       25.764 -13.442   2.447  0.00  0.00    +0.104 C 
ENDBRANCH   9  11
ENDBRANCH   8   9
ENDBRANCH   7   8
ENDBRANCH   1   7
BRANCH   2  13
ATOM     13  C   LIG    1       26.404 -20.174   4.127  0.00  0.00    +0.074 C 
BRANCH  13  14
ATOM     14  C   LIG    1       24.986 -19.860   4.579  0.00  0.00    -0.043 A 
ATOM     15  C   LIG    1       24.186 -18.960   3.858  0.00  0.00    +0.004 A 
ATOM     16  C   LIG    1       22.867 -18.716   4.251  0.00  0.00    +0.000 A 
ATOM     17  C   LIG    1       22.329 -19.379   5.352  0.00  0.00    +0.000 A 
ATOM     18  C   LIG    1       23.108 -20.286   6.067  0.00  0.00    +0.000 A 
ATOM     19  C   LIG    1       24.431 -20.516   5.690  0.00  0.00    +0.004 A 
ENDBRANCH  13  14
ENDBRANCH   2  13
TORSDOF 6
ENDMDL
MODEL 4
REMARK VINA RESULT:      -5.4      1.803      4.135
REMARK  Name = *****
REMARK                            x       y       z     vdW  Elec       q    Type
REMARK                         _______ _______ _______ _____ _____    ______ ____
ROOT
ATOM      1  C   LIG    1       26.943 -19.340   4.886  0.00  0.00    +0.124 A 
ATOM      2  C   LIG    1       27.514 -18.142   4.417  0.00  0.00    -0.001 A 
ATOM      3  C   LIG    1       28.782 -17.761   4.906  0.00  0.00    +0.007 A 
ATOM      4  C   LIG    1       29.440 -18.508   5.872  0.00  0.00    +0.001 A 
ATOM      5  C   LIG    1       28.845 -19.662   6.367  0.00  0.00    +0.004 A 
ATOM      6  C   LIG    1       27.598 -20.078   5.884  0.00  0.00    +0.046 A 
ENDROOT
BRANCH   1   7
ATOM      7  O   LIG    1       25.734 -19.708   4.340  0.00  0.00    -0.490 OA
BRANCH   7   8
ATOM      8  C   LIG    1       25.196 -20.962   4.789  0.00  0.00    +0.244 C 
BRANCH   8   9
ATOM      9  C   LIG    1       23.726 -21.085   4.324  0.00  0.00    +0.124 C 
BRANCH   9  11
ATOM     10  C   LIG    1       22.367 -19.180   4.964  0.00  0.00    +0.104 C 
ATOM     11  N   LIG    1       22.728 -20.567   5.286  0.00  0.00    -0.305 NA
ATOM     12  C   LIG    1       23.208 -20.628   6.666  0.00  0.00    +0.104 C 
ENDBRANCH   9  11
ENDBRANCH   8   9
ENDBRANCH   7   8
ENDBRANCH   1   7
BRANCH   2  13
ATOM     13  C   LIG    1       26.853 -17.324   3.314  0.00  0.00    +0.074 C 
BRANCH  13  14
ATOM     14  C   LIG    1       26.504 -15.888   3.674  0.00  0.00    -0.043 A 
ATOM     15  C   LIG    1       25.167 -15.469   3.735  0.00  0.00    +0.004 A 
ATOM     16  C   LIG    1       24.853 -14.162   4.117  0.00  0.00    +0.000 A 
ATOM     17  C   LIG    1       25.866 -13.268   4.460  0.00  0.00    +0.000 A 
ATOM     18  C   LIG    1       27.198 -13.677   4.418  0.00  0.00    +0.000 A 
ATOM     19  C   LIG    1       27.515 -14.975   4.017  0.00  0.00    +0.004 A 
ENDBRANCH  13  14
ENDBRANCH   2  13
TORSDOF 6
ENDMDL
MODEL 5
REMARK VINA RESULT:      -5.1      1.843      2.561
REMARK  Name = *****
REMARK                            x       y       z     vdW  Elec       q    Type
REMARK                         _______ _______ _______ _____ _____    ______ ____
ROOT
ATOM      1  C   LIG    1       24.051 -18.485   3.764  0.00  0.00    +0.124 A 
ATOM      2  C   LIG    1       24.572 -17.180   3.707  0.00  0.00    -0.001 A 
ATOM      3  C   LIG    1       23.777 -16.114   4.180  0.00  0.00    +0.007 A 
ATOM      4  C   LIG    1       22.485 -16.324   4.641  0.00  0.00    +0.001 A 
ATOM      5  C   LIG    1       21.961 -17.610   4.645  0.00  0.00    +0.004 A 
ATOM      6  C   LIG    1       22.735 -18.690   4.204  0.00  0.00    +0.046 A 
ENDROOT
BRANCH   1   7
ATOM      7  O   LIG    1       24.880 -19.504   3.349  0.00  0.00    -0.490 OA
BRANCH   7   8
ATOM      8  C   LIG    1       25.598 -20.194   4.386  0.00  0.00    +0.244 C 
BRANCH   8   9
ATOM      9  C   LIG    1       24.769 -21.408   4.863  0.00  0.00    +0.124 C 
BRANCH   9  11
ATOM     10  C   LIG    1       23.471 -20.969   6.866  0.00  0.00    +0.104 C 
ATOM     11  N   LIG    1       24.700 -21.571   6.333  0.00  0.00    -0.305 NA
ATOM     12  C   LIG    1       25.855 -20.979   7.008  0.00  0.00    +0.104 C 
ENDBRANCH   9  11
ENDBRANCH   8   9
ENDBRANCH   7   8
ENDBRANCH   1   7
BRANCH   2  13
ATOM     13  C   LIG    1       26.006 -16.913   3.264  0.00  0.00    +0.074 C 
BRANCH  13  14
ATOM     14  C   LIG    1       26.454 -15.461   3.312  0.00  0.00    -0.043 A 
ATOM     15  C   LIG    1       27.618 -15.092   4.003  0.00  0.00    +0.004 A 
ATOM     16  C   LIG    1       28.050 -13.763   4.000  0.00  0.00    +0.000 A 
ATOM     17  C   LIG    1       27.339 -12.795   3.295  0.00  0.00    +0.000 A 
ATOM     18  C   LIG    1       26.189 -13.151   2.592  0.00  0.00    +0.000 A 
ATOM     19  C   LIG    1       25.743 -14.473   2.611  0.00  0.00    +0.004 A 
ENDBRANCH  13  14
ENDBRANCH   2  13
TORSDOF 6
ENDMDL
MODEL 6
REMARK VINA RESULT:      -4.7      1.016      4.605
REMARK  Name = *****
REMARK                            x       y       z     vdW  Elec       q    Type
REMARK                         _______ _______ _______ _____ _____    ______ ____
ROOT
ATOM      1  C   LIG    1       27.326 -16.599   3.992  0.00  0.00    +0.124 A 
ATOM      2  C   LIG    1       26.050 -16.841   3.452  0.00  0.00    -0.001 A 
ATOM      3  C   LIG    1       25.171 -15.750   3.283  0.00  0.00    +0.007 A 
ATOM      4  C   LIG    1       25.518 -14.470   3.690  0.00  0.00    +0.001 A 
ATOM      5  C   LIG    1       26.761 -14.251   4.270  0.00  0.00    +0.004 A 
ATOM      6  C   LIG    1       27.664 -15.309   4.429  0.00  0.00    +0.046 A 
ENDROOT
BRANCH   1   7
ATOM      7  O   LIG    1       28.177 -17.678   4.085  0.00  0.00    -0.490 OA
BRANCH   7   8
ATOM      8  C   LIG    1       28.927 -17.787   5.307  0.00  0.00    +0.244 C 
BRANCH   8   9
ATOM      9  C   LIG    1       29.276 -19.271   5.563  0.00  0.00    +0.124 C 
BRANCH   9  11
ATOM     10  C   LIG    1       29.134 -21.175   7.062  0.00  0.00    +0.104 C 
ATOM     11  N   LIG    1       28.513 -19.905   6.661  0.00  0.00    -0.305 NA
ATOM     12  C   LIG    1       27.118 -20.150   6.294  0.00  0.00    +0.104 C 
ENDBRANCH   9  11
ENDBRANCH   8   9
ENDBRANCH   7   8
ENDBRANCH   1   7
BRANCH   2  13
ATOM     13  C   LIG    1       25.651 -18.220   2.939  0.00  0.00    +0.074 C 
BRANCH  13  14
ATOM     14  C   LIG    1       24.527 -18.907   3.698  0.00  0.00    -0.043 A 
ATOM     15  C   LIG    1       23.377 -18.198   4.075  0.00  0.00    +0.004 A 
ATOM     16  C   LIG    1       22.326 -18.849   4.726  0.00  0.00    +0.000 A 
ATOM     17  C   LIG    1       22.403 -20.215   4.991  0.00  0.00    +0.000 A 
ATOM     18  C   LIG    1       23.534 -20.935   4.608  0.00  0.00    +0.000 A 
ATOM     19  C   LIG    1       24.593 -20.283   3.977  0.00  0.00    +0.004 A 
ENDBRANCH  13  14
ENDBRANCH   2  13
TORSDOF 6
ENDMDL
MODEL 7
REMARK VINA RESULT:      -4.6      2.280      5.366
REMARK  Name = *****
REMARK                            x       y       z     vdW  Elec       q    Type
REMARK                         _______ _______ _______ _____ _____    ______ ____
ROOT
ATOM      1  C   LIG    1       24.900 -16.599   3.500  0.00  0.00    +0.124 A 
ATOM      2  C   LIG    1       24.396 -17.878   3.802  0.00  0.00    -0.001 A 
ATOM      3  C   LIG    1       23.093 -17.983   4.333  0.00  0.00    +0.007 A 
ATOM      4  C   LIG    1       22.332 -16.857   4.614  0.00  0.00    +0.001 A 
ATOM      5  C   LIG    1       22.858 -15.596   4.360  0.00  0.00    +0.004 A 
ATOM      6  C   LIG    1       24.139 -15.462   3.811  0.00  0.00    +0.046 A 
ENDROOT
BRANCH   1   7
ATOM      7  O   LIG    1       26.150 -16.543   2.927  0.00  0.00    -0.490 OA
BRANCH   7   8
ATOM      8  C   LIG    1       27.247 -16.315   3.828  0.00  0.00    +0.244 C 
BRANCH   8   9
ATOM      9  C   LIG    1       27.284 -14.820   4.221  0.00  0.00    +0.124 C 
BRANCH   9  11
ATOM     10  C   LIG    1       28.730 -12.963   3.628  0.00  0.00    +0.104 C 
ATOM     11  N   LIG    1       27.715 -13.906   3.139  0.00  0.00    -0.305 NA
ATOM     12  C   LIG    1       26.596 -13.154   2.574  0.00  0.00    +0.104 C 
ENDBRANCH   9  11
ENDBRANCH   8   9
ENDBRANCH   7   8
ENDBRANCH   1   7
BRANCH   2  13
ATOM     13  C   LIG    1       25.175 -19.142   3.455  0.00  0.00    +0.074 C 
BRANCH  13  14
ATOM     14  C   LIG    1       25.750 -19.909   4.635  0.00  0.00    -0.043 A 
ATOM     15  C   LIG    1       27.046 -19.640   5.103  0.00  0.00    +0.004 A 
ATOM     16  C   LIG    1       27.547 -20.313   6.219  0.00  0.00    +0.000 A 
ATOM     17  C   LIG    1       26.758 -21.244   6.892  0.00  0.00    +0.000 A 
ATOM     18  C   LIG    1       25.464 -21.509   6.447  0.00  0.00    +0.000 A 
ATOM     19  C   LIG    1       24.968 -20.854   5.320  0.00  0.00    +0.004 A 
ENDBRANCH  13  14
ENDBRANCH   2  13
TORSDOF 6
ENDMDL
MODEL 8
REMARK VINA RESULT:      -4.4      2.233      6.133
REMARK  Name = *****
REMARK                            x       y       z     vdW  Elec       q    Type
REMARK                         _______ _______ _______ _____ _____    ______ ____
ROOT
ATOM      1  C   LIG    1       27.502 -17.852   4.187  0.00  0.00    +0.124 A 
ATOM      2  C   LIG    1       26.889 -19.063   4.560  0.00  0.00    -0.001 A 
ATOM      3  C   LIG    1       27.490 -19.841   5.572  0.00  0.00    +0.007 A 
ATOM      4  C   LIG    1       28.690 -19.465   6.158  0.00  0.00    +0.001 A 
ATOM      5  C   LIG    1       29.314 -18.294   5.747  0.00  0.00    +0.004 A 
ATOM      6  C   LIG    1       28.730 -17.490   4.761  0.00  0.00    +0.046 A 
ENDROOT
BRANCH   1   7
ATOM      7  O   LIG    1       26.853 -17.092   3.240  0.00  0.00    -0.490 OA
BRANCH   7   8
ATOM      8  C   LIG    1       27.148 -15.686   3.250  0.00  0.00    +0.244 C 
BRANCH   8   9
ATOM      9  C   LIG    1       25.862 -14.895   3.584  0.00  0.00    +0.124 C 
BRANCH   9  11
ATOM     10  C   LIG    1       24.815 -13.075   4.802  0.00  0.00    +0.104 C 
ATOM     11  N   LIG    1       25.994 -13.947   4.713  0.00  0.00    -0.305 NA
ATOM     12  C   LIG    1       27.194 -13.118   4.599  0.00  0.00    +0.104 C 
ENDBRANCH   9  11
ENDBRANCH   8   9
ENDBRANCH   7   8
ENDBRANCH   1   7
BRANCH   2  13
ATOM     13  C   LIG    1       25.541 -19.482   3.984  0.00  0.00    +0.074 C 
BRANCH  13  14
ATOM     14  C   LIG    1       24.631 -20.253   4.926  0.00  0.00    -0.043 A 
ATOM     15  C   LIG    1       25.141 -20.849   6.090  0.00  0.00    +0.004 A 
ATOM     16  C   LIG    1       24.289 -21.512   6.976  0.00  0.00    +0.000 A 
ATOM     17  C   LIG    1       22.921 -21.572   6.723  0.00  0.00    +0.000 A 
ATOM     18  C   LIG    1       22.398 -20.972   5.578  0.00  0.00    +0.000 A 
ATOM     19  C   LIG    1       23.249 -20.327   4.680  0.00  0.00    +0.004 A 
ENDBRANCH  13  14
ENDBRANCH   2  13
TORSDOF 6
ENDMDL
MODEL 9
REMARK VINA RESULT:      -3.8      1.487      4.775
REMARK  Name = *****
REMARK                            x       y       z     vdW  Elec       q    Type
REMARK                         _______ _______ _______ _____ _____    ______ ____
ROOT
ATOM      1  C   LIG    1       24.485 -17.275   3.712  0.00  0.00    +0.124 A 
ATOM      2  C   LIG    1       23.209 -16.882   4.154  0.00  0.00    -0.001 A 
ATOM      3  C   LIG    1       22.973 -15.513   4.403  0.00  0.00    +0.007 A 
ATOM      4  C   LIG    1       23.981 -14.569   4.277  0.00  0.00    +0.001 A 
ATOM      5  C   LIG    1       25.252 -14.975   3.890  0.00  0.00    +0.004 A 
ATOM      6  C   LIG    1       25.511 -16.323   3.613  0.00  0.00    +0.046 A 
ENDROOT
BRANCH   1   7
ATOM      7  O   LIG    1       24.659 -18.610   3.422  0.00  0.00    -0.490 OA
BRANCH   7   8
ATOM      8  C   LIG    1       25.992 -19.122   3.585  0.00  0.00    +0.244 C 
BRANCH   8   9
ATOM      9  C   LIG    1       25.967 -20.310   4.575  0.00  0.00    +0.124 C 
BRANCH   9  11
ATOM     10  C   LIG    1       28.120 -19.757   5.550  0.00  0.00    +0.104 C 
ATOM     11  N   LIG    1       26.716 -20.082   5.832  0.00  0.00    -0.305 NA
ATOM     12  C   LIG    1       26.663 -21.241   6.723  0.00  0.00    +0.104 C 
ENDBRANCH   9  11
ENDBRANCH   8   9
ENDBRANCH   7   8
ENDBRANCH   1   7
BRANCH   2  13
ATOM     13  C   LIG    1       22.058 -17.877   4.249  0.00  0.00    +0.074 C 
BRANCH  13  14
ATOM     14  C   LIG    1       22.343 -19.144   5.041  0.00  0.00    -0.043 A 
ATOM     15  C   LIG    1       22.059 -20.407   4.500  0.00  0.00    +0.004 A 
ATOM     16  C   LIG    1       22.372 -21.567   5.213  0.00  0.00    +0.000 A 
ATOM     17  C   LIG    1       22.986 -21.481   6.460  0.00  0.00    +0.000 A 
ATOM     18  C   LIG    1       23.287 -20.233   7.002  0.00  0.00    +0.000 A 
ATOM     19  C   LIG    1       22.957 -19.072   6.302  0.00  0.00    +0.004 A 
ENDBRANCH  13  14
ENDBRANCH   2  13
TORSDOF 6
ENDMDL
