MODEL 1
REMARK VINA RESULT:     -10.0      0.000      0.000
REMARK  Name = *****
REMARK                            x       y       z     vdW  Elec       q    Type
REMARK                         _______ _______ _______ _____ _____    ______ ____
ROOT
ATOM      1  N   LIG    1       24.042 -26.852   5.856  0.00  0.00    -0.311 NA
ATOM      2  H   LIG    1       23.560 -26.540   5.013  0.00  0.00    +0.122 HD
ENDROOT
BRANCH   1   3
ATOM      3  C   LIG    1       24.658 -25.706   6.542  0.00  0.00    +0.115 C 
BRANCH   3   4
ATOM      4  C   LIG    1       25.263 -24.668   5.558  0.00  0.00    +0.169 C 
BRANCH   4   5
ATOM      5  C   LIG    1       24.796 -23.245   5.932  0.00  0.00    +0.203 C 
ATOM      6  O   LIG    1       24.717 -22.498   4.705  0.00  0.00    -0.486 OA
ATOM      7  C   LIG    1       24.061 -21.307   4.765  0.00  0.00    +0.124 A 
ATOM      8  C   LIG    1       23.240 -20.921   5.834  0.00  0.00    -0.003 A 
ATOM      9  C   LIG    1       22.601 -19.681   5.782  0.00  0.00    +0.045 A 
ATOM     10  C   LIG    1       22.757 -18.856   4.667  0.00  0.00    +0.124 A 
ATOM     11  C   LIG    1       23.561 -19.253   3.598  0.00  0.00    +0.042 A 
ATOM     12  F   LIG    1       22.130 -17.683   4.620  0.00  0.00    -0.205 F 
ATOM     13  C   LIG    1       23.078 -21.820   7.026  0.00  0.00    +0.042 C 
ATOM     14  C   LIG    1       24.210 -20.477   3.649  0.00  0.00    +0.049 A 
ATOM     15  C   LIG    1       23.454 -23.253   6.669  0.00  0.00    +0.052 C 
ENDBRANCH   4   5
BRANCH   4  16
ATOM     16  O   LIG    1       24.896 -24.974   4.209  0.00  0.00    -0.387 OA
ATOM     17  H   LIG    1       25.478 -24.419   3.655  0.00  0.00    +0.210 HD
ENDBRANCH   4  16
ENDBRANCH   3   4
ENDBRANCH   1   3
BRANCH   1  18
ATOM     18  C   LIG    1       25.065 -27.845   5.465  0.00  0.00    +0.115 C 
BRANCH  18  19
ATOM     19  C   LIG    1       24.627 -29.325   5.627  0.00  0.00    +0.169 C 
BRANCH  19  20
ATOM     20  C   LIG    1       25.099 -29.950   6.958  0.00  0.00    +0.203 C 
ATOM     21  O   LIG    1       25.596 -28.883   7.784  0.00  0.00    -0.486 OA
ATOM     22  C   LIG    1       25.898 -29.220   9.068  0.00  0.00    +0.124 A 
ATOM     23  C   LIG    1       25.396 -30.366   9.694  0.00  0.00    -0.003 A 
ATOM     24  C   LIG    1       25.726 -30.601  11.031  0.00  0.00    +0.045 A 
ATOM     25  C   LIG    1       26.522 -29.689  11.721  0.00  0.00    +0.124 A 
ATOM     26  C   LIG    1       27.012 -28.546  11.099  0.00  0.00    +0.042 A 
ATOM     27  F   LIG    1       26.816 -29.914  13.007  0.00  0.00    -0.205 F 
ATOM     28  C   LIG    1       24.536 -31.333   8.933  0.00  0.00    +0.042 C 
ATOM     29  C   LIG    1       26.697 -28.311   9.765  0.00  0.00    +0.049 A 
ATOM     30  C   LIG    1       23.963 -30.671   7.684  0.00  0.00    +0.052 C 
ENDBRANCH  19  20
BRANCH  19  31
ATOM     31  O   LIG    1       23.201 -29.423   5.492  0.00  0.00    -0.387 OA
ATOM     32  H   LIG    1       23.036 -29.617   4.550  0.00  0.00    +0.210 HD
ENDBRANCH  19  31
ENDBRANCH  18  19
ENDBRANCH   1  18
TORSDOF 8
ENDMDL
MODEL 2
REMARK VINA RESULT:      -9.7      1.508      2.073
REMARK  Name = *****
REMARK                            x       y       z     vdW  Elec       q    Type
REMARK                         _______ _______ _______ _____ _____    ______ ____
ROOT
ATOM      1  N   LIG    1       24.008 -27.032   5.567  0.00  0.00    -0.311 NA
ATOM      2  H   LIG    1       23.867 -26.748   4.597  0.00  0.00    +0.122 HD
ENDROOT
BRANCH   1   3
ATOM      3  C   LIG    1       24.476 -25.891   6.369  0.00  0.00    +0.115 C 
BRANCH   3   4
ATOM      4  C   LIG    1       25.229 -24.829   5.523  0.00  0.00    +0.169 C 
BRANCH   4   5
ATOM      5  C   LIG    1       24.779 -23.409   5.927  0.00  0.00    +0.203 C 
ATOM      6  O   LIG    1       24.709 -22.634   4.717  0.00  0.00    -0.486 OA
ATOM      7  C   LIG    1       24.067 -21.438   4.802  0.00  0.00    +0.124 A 
ATOM      8  C   LIG    1       23.251 -21.065   5.879  0.00  0.00    -0.003 A 
ATOM      9  C   LIG    1       22.626 -19.817   5.854  0.00  0.00    +0.045 A 
ATOM     10  C   LIG    1       22.792 -18.970   4.757  0.00  0.00    +0.124 A 
ATOM     11  C   LIG    1       23.592 -19.353   3.680  0.00  0.00    +0.042 A 
ATOM     12  F   LIG    1       22.179 -17.788   4.735  0.00  0.00    -0.205 F 
ATOM     13  C   LIG    1       23.077 -21.988   7.051  0.00  0.00    +0.042 C 
ATOM     14  C   LIG    1       24.227 -20.585   3.705  0.00  0.00    +0.049 A 
ATOM     15  C   LIG    1       23.437 -23.417   6.664  0.00  0.00    +0.052 C 
ENDBRANCH   4   5
BRANCH   4  16
ATOM     16  O   LIG    1       25.007 -25.042   4.125  0.00  0.00    -0.387 OA
ATOM     17  H   LIG    1       25.409 -24.270   3.682  0.00  0.00    +0.210 HD
ENDBRANCH   4  16
ENDBRANCH   3   4
ENDBRANCH   1   3
BRANCH   1  18
ATOM     18  C   LIG    1       24.996 -28.132   5.589  0.00  0.00    +0.115 C 
BRANCH  18  19
ATOM     19  C   LIG    1       24.506 -29.428   6.289  0.00  0.00    +0.169 C 
BRANCH  19  20
ATOM     20  C   LIG    1       24.441 -29.294   7.826  0.00  0.00    +0.203 C 
ATOM     21  O   LIG    1       23.410 -30.182   8.293  0.00  0.00    -0.486 OA
ATOM     22  C   LIG    1       23.323 -30.329   9.645  0.00  0.00    +0.124 A 
ATOM     23  C   LIG    1       24.371 -30.010  10.515  0.00  0.00    -0.003 A 
ATOM     24  C   LIG    1       24.202 -30.241  11.882  0.00  0.00    +0.045 A 
ATOM     25  C   LIG    1       23.016 -30.800  12.353  0.00  0.00    +0.124 A 
ATOM     26  C   LIG    1       21.979 -31.124  11.483  0.00  0.00    +0.042 A 
ATOM     27  F   LIG    1       22.872 -31.035  13.662  0.00  0.00    -0.205 F 
ATOM     28  C   LIG    1       25.643 -29.412   9.987  0.00  0.00    +0.042 C 
ATOM     29  C   LIG    1       22.136 -30.887  10.122  0.00  0.00    +0.049 A 
ATOM     30  C   LIG    1       25.770 -29.661   8.488  0.00  0.00    +0.052 C 
ENDBRANCH  19  20
BRANCH  19  31
ATOM     31  O   LIG    1       23.231 -29.813   5.754  0.00  0.00    -0.387 OA
ATOM     32  H   LIG    1       22.634 -29.892   6.521  0.00  0.00    +0.210 HD
ENDBRANCH  19  31
ENDBRANCH  18  19
ENDBRANCH   1  18
TORSDOF 8
ENDMDL
MODEL 3
REMARK VINA RESULT:      -9.6      0.861      9.427
REMARK  Name = *****
REMARK                            x       y       z     vdW  Elec       q    Type
REMARK                         _______ _______ _______ _____ _____    ______ ____
ROOT
ATOM      1  N   LIG    1       25.167 -26.853   4.395  0.00  0.00    -0.311 NA
ATOM      2  H   LIG    1       24.549 -26.948   3.589  0.00  0.00    +0.122 HD
ENDROOT
BRANCH   1   3
ATOM      3  C   LIG    1       25.413 -28.169   5.004  0.00  0.00    +0.115 C 
BRANCH   3   4
ATOM      4  C   LIG    1       24.321 -28.572   6.031  0.00  0.00    +0.169 C 
BRANCH   4   5
ATOM      5  C   LIG    1       24.940 -29.418   7.164  0.00  0.00    +0.203 C 
ATOM      6  O   LIG    1       25.603 -28.501   8.053  0.00  0.00    -0.486 OA
ATOM      7  C   LIG    1       25.977 -28.997   9.263  0.00  0.00    +0.124 A 
ATOM      8  C   LIG    1       25.514 -30.213   9.785  0.00  0.00    -0.003 A 
ATOM      9  C   LIG    1       25.951 -30.618  11.047  0.00  0.00    +0.045 A 
ATOM     10  C   LIG    1       26.813 -29.805  11.786  0.00  0.00    +0.124 A 
ATOM     11  C   LIG    1       27.257 -28.587  11.270  0.00  0.00    +0.042 A 
ATOM     12  F   LIG    1       27.212 -30.192  12.996  0.00  0.00    -0.205 F 
ATOM     13  C   LIG    1       24.583 -31.075   8.981  0.00  0.00    +0.042 C 
ATOM     14  C   LIG    1       26.837 -28.186  10.010  0.00  0.00    +0.049 A 
ATOM     15  C   LIG    1       23.891 -30.253   7.901  0.00  0.00    +0.052 C 
ENDBRANCH   4   5
BRANCH   4  16
ATOM     16  O   LIG    1       23.265 -29.296   5.391  0.00  0.00    -0.387 OA
ATOM     17  H   LIG    1       22.764 -28.625   4.889  0.00  0.00    +0.210 HD
ENDBRANCH   4  16
ENDBRANCH   3   4
ENDBRANCH   1   3
BRANCH   1  18
ATOM     18  C   LIG    1       24.529 -25.935   5.363  0.00  0.00    +0.115 C 
BRANCH  18  19
ATOM     19  C   LIG    1       25.505 -24.951   6.063  0.00  0.00    +0.169 C 
BRANCH  19  20
ATOM     20  C   LIG    1       24.891 -23.552   6.287  0.00  0.00    +0.203 C 
ATOM     21  O   LIG    1       24.924 -22.859   5.027  0.00  0.00    -0.486 OA
ATOM     22  C   LIG    1       24.265 -21.668   4.989  0.00  0.00    +0.124 A 
ATOM     23  C   LIG    1       23.283 -21.311   5.918  0.00  0.00    -0.003 A 
ATOM     24  C   LIG    1       22.629 -20.085   5.767  0.00  0.00    +0.045 A 
ATOM     25  C   LIG    1       22.944 -19.256   4.692  0.00  0.00    +0.124 A 
ATOM     26  C   LIG    1       23.915 -19.619   3.764  0.00  0.00    +0.042 A 
ATOM     27  F   LIG    1       22.298 -18.093   4.546  0.00  0.00    -0.205 F 
ATOM     28  C   LIG    1       22.955 -22.220   7.067  0.00  0.00    +0.042 C 
ATOM     29  C   LIG    1       24.578 -20.832   3.915  0.00  0.00    +0.049 A 
ATOM     30  C   LIG    1       23.448 -23.636   6.785  0.00  0.00    +0.052 C 
ENDBRANCH  19  20
BRANCH  19  31
ATOM     31  O   LIG    1       25.955 -25.518   7.302  0.00  0.00    -0.387 OA
ATOM     32  H   LIG    1       26.359 -24.782   7.799  0.00  0.00    +0.210 HD
ENDBRANCH  19  31
ENDBRANCH  18  19
ENDBRANCH   1  18
TORSDOF 8
ENDMDL
MODEL 4
REMARK VINA RESULT:      -9.6      6.350      8.129
REMARK  Name = *****
REMARK                            x       y       z     vdW  Elec       q    Type
REMARK                         _______ _______ _______ _____ _____    ______ ____
ROOT
ATOM      1  N   LIG    1       26.720 -20.711   5.409  0.00  0.00    -0.311 NA
ATOM      2  H   LIG    1       26.729 -21.515   6.036  0.00  0.00    +0.122 HD
ENDROOT
BRANCH   1   3
ATOM      3  C   LIG    1       27.796 -19.774   5.769  0.00  0.00    +0.115 C 
BRANCH   3   4
ATOM      4  C   LIG    1       28.548 -20.189   7.062  0.00  0.00    +0.169 C 
BRANCH   4   5
ATOM      5  C   LIG    1       29.572 -19.102   7.454  0.00  0.00    +0.203 C 
ATOM      6  O   LIG    1       29.332 -18.783   8.836  0.00  0.00    -0.486 OA
ATOM      7  C   LIG    1       30.295 -18.056   9.464  0.00  0.00    +0.124 A 
ATOM      8  C   LIG    1       31.583 -17.859   8.950  0.00  0.00    -0.003 A 
ATOM      9  C   LIG    1       32.499 -17.107   9.688  0.00  0.00    +0.045 A 
ATOM     10  C   LIG    1       32.139 -16.588  10.933  0.00  0.00    +0.124 A 
ATOM     11  C   LIG    1       30.861 -16.801  11.449  0.00  0.00    +0.042 A 
ATOM     12  F   LIG    1       33.025 -15.886  11.638  0.00  0.00    -0.205 F 
ATOM     13  C   LIG    1       31.959 -18.428   7.611  0.00  0.00    +0.042 C 
ATOM     14  C   LIG    1       29.942 -17.535  10.713  0.00  0.00    +0.049 A 
ATOM     15  C   LIG    1       31.015 -19.561   7.229  0.00  0.00    +0.052 C 
ENDBRANCH   4   5
BRANCH   4  16
ATOM     16  O   LIG    1       29.203 -21.449   6.887  0.00  0.00    -0.387 OA
ATOM     17  H   LIG    1       28.619 -21.960   6.294  0.00  0.00    +0.210 HD
ENDBRANCH   4  16
ENDBRANCH   3   4
ENDBRANCH   1   3
BRANCH   1  18
ATOM     18  C   LIG    1       25.397 -20.058   5.510  0.00  0.00    +0.115 C 
BRANCH  18  19
ATOM     19  C   LIG    1       24.414 -20.738   6.500  0.00  0.00    +0.169 C 
BRANCH  19  20
ATOM     20  C   LIG    1       24.139 -22.218   6.153  0.00  0.00    +0.203 C 
ATOM     21  O   LIG    1       25.353 -22.950   6.392  0.00  0.00    -0.486 OA
ATOM     22  C   LIG    1       25.254 -24.306   6.307  0.00  0.00    +0.124 A 
ATOM     23  C   LIG    1       24.036 -24.988   6.402  0.00  0.00    -0.003 A 
ATOM     24  C   LIG    1       24.043 -26.384   6.349  0.00  0.00    +0.045 A 
ATOM     25  C   LIG    1       25.249 -27.070   6.228  0.00  0.00    +0.124 A 
ATOM     26  C   LIG    1       26.459 -26.389   6.143  0.00  0.00    +0.042 A 
ATOM     27  F   LIG    1       25.246 -28.408   6.198  0.00  0.00    -0.205 F 
ATOM     28  C   LIG    1       22.747 -24.230   6.536  0.00  0.00    +0.042 C 
ATOM     29  C   LIG    1       26.460 -24.999   6.184  0.00  0.00    +0.049 A 
ATOM     30  C   LIG    1       23.013 -22.804   7.006  0.00  0.00    +0.052 C 
ENDBRANCH  19  20
BRANCH  19  31
ATOM     31  O   LIG    1       24.912 -20.610   7.839  0.00  0.00    -0.387 OA
ATOM     32  H   LIG    1       24.989 -19.651   8.004  0.00  0.00    +0.210 HD
ENDBRANCH  19  31
ENDBRANCH  18  19
ENDBRANCH   1  18
TORSDOF 8
ENDMDL
MODEL 5
REMARK VINA RESULT:      -9.6      2.846      9.128
REMARK  Name = *****
REMARK                            x       y       z     vdW  Elec       q    Type
REMARK                         _______ _______ _______ _____ _____    ______ ____
ROOT
ATOM      1  N   LIG    1       23.997 -24.120   5.740  0.00  0.00    -0.311 NA
ATOM      2  H   LIG    1       23.489 -24.010   4.862  0.00  0.00    +0.122 HD
ENDROOT
BRANCH   1   3
ATOM      3  C   LIG    1       24.070 -25.543   6.109  0.00  0.00    +0.115 C 
BRANCH   3   4
ATOM      4  C   LIG    1       25.341 -26.244   5.560  0.00  0.00    +0.169 C 
BRANCH   4   5
ATOM      5  C   LIG    1       25.493 -27.644   6.192  0.00  0.00    +0.203 C 
ATOM      6  O   LIG    1       25.981 -27.444   7.531  0.00  0.00    -0.486 OA
ATOM      7  C   LIG    1       25.922 -28.520   8.362  0.00  0.00    +0.124 A 
ATOM      8  C   LIG    1       25.176 -29.675   8.090  0.00  0.00    -0.003 A 
ATOM      9  C   LIG    1       25.174 -30.714   9.023  0.00  0.00    +0.045 A 
ATOM     10  C   LIG    1       25.882 -30.585  10.219  0.00  0.00    +0.124 A 
ATOM     11  C   LIG    1       26.609 -29.426  10.492  0.00  0.00    +0.042 A 
ATOM     12  F   LIG    1       25.861 -31.575  11.110  0.00  0.00    -0.205 F 
ATOM     13  C   LIG    1       24.415 -29.799   6.801  0.00  0.00    +0.042 C 
ATOM     14  C   LIG    1       26.627 -28.397   9.563  0.00  0.00    +0.049 A 
ATOM     15  C   LIG    1       24.176 -28.425   6.188  0.00  0.00    +0.052 C 
ENDBRANCH   4   5
BRANCH   4  16
ATOM     16  O   LIG    1       26.507 -25.454   5.814  0.00  0.00    -0.387 OA
ATOM     17  H   LIG    1       26.781 -25.114   4.940  0.00  0.00    +0.210 HD
ENDBRANCH   4  16
ENDBRANCH   3   4
ENDBRANCH   1   3
BRANCH   1  18
ATOM     18  C   LIG    1       23.298 -23.340   6.783  0.00  0.00    +0.115 C 
BRANCH  18  19
ATOM     19  C   LIG    1       22.999 -21.866   6.397  0.00  0.00    +0.169 C 
BRANCH  19  20
ATOM     20  C   LIG    1       24.275 -21.005   6.275  0.00  0.00    +0.203 C 
ATOM     21  O   LIG    1       25.325 -21.688   6.982  0.00  0.00    -0.486 OA
ATOM     22  C   LIG    1       26.574 -21.163   6.839  0.00  0.00    +0.124 A 
ATOM     23  C   LIG    1       26.926 -20.310   5.788  0.00  0.00    -0.003 A 
ATOM     24  C   LIG    1       28.246 -19.860   5.701  0.00  0.00    +0.045 A 
ATOM     25  C   LIG    1       29.188 -20.282   6.637  0.00  0.00    +0.124 A 
ATOM     26  C   LIG    1       28.837 -21.139   7.675  0.00  0.00    +0.042 A 
ATOM     27  F   LIG    1       30.454 -19.862   6.532  0.00  0.00    -0.205 F 
ATOM     28  C   LIG    1       25.896 -19.869   4.788  0.00  0.00    +0.042 C 
ATOM     29  C   LIG    1       27.522 -21.582   7.775  0.00  0.00    +0.049 A 
ATOM     30  C   LIG    1       24.690 -20.802   4.817  0.00  0.00    +0.052 C 
ENDBRANCH  19  20
BRANCH  19  31
ATOM     31  O   LIG    1       22.239 -21.831   5.180  0.00  0.00    -0.387 OA
ATOM     32  H   LIG    1       21.321 -22.043   5.433  0.00  0.00    +0.210 HD
ENDBRANCH  19  31
ENDBRANCH  18  19
ENDBRANCH   1  18
TORSDOF 8
ENDMDL
MODEL 6
REMARK VINA RESULT:      -9.5      3.049      4.355
REMARK  Name = *****
REMARK                            x       y       z     vdW  Elec       q    Type
REMARK                         _______ _______ _______ _____ _____    ______ ____
ROOT
ATOM      1  N   LIG    1       23.353 -23.922   6.503  0.00  0.00    -0.311 NA
ATOM      2  H   LIG    1       23.148 -24.137   5.527  0.00  0.00    +0.122 HD
ENDROOT
BRANCH   1   3
ATOM      3  C   LIG    1       23.143 -22.489   6.762  0.00  0.00    +0.115 C 
BRANCH   3   4
ATOM      4  C   LIG    1       23.343 -21.612   5.497  0.00  0.00    +0.169 C 
BRANCH   4   5
ATOM      5  C   LIG    1       24.590 -20.717   5.662  0.00  0.00    +0.203 C 
ATOM      6  O   LIG    1       25.512 -21.438   6.498  0.00  0.00    -0.486 OA
ATOM      7  C   LIG    1       26.785 -20.960   6.545  0.00  0.00    +0.124 A 
ATOM      8  C   LIG    1       27.301 -20.024   5.639  0.00  0.00    -0.003 A 
ATOM      9  C   LIG    1       28.629 -19.615   5.771  0.00  0.00    +0.045 A 
ATOM     10  C   LIG    1       29.434 -20.158   6.774  0.00  0.00    +0.124 A 
ATOM     11  C   LIG    1       28.921 -21.103   7.663  0.00  0.00    +0.042 A 
ATOM     12  F   LIG    1       30.705 -19.774   6.882  0.00  0.00    -0.205 F 
ATOM     13  C   LIG    1       26.424 -19.451   4.562  0.00  0.00    +0.042 C 
ATOM     14  C   LIG    1       27.599 -21.502   7.546  0.00  0.00    +0.049 A 
ATOM     15  C   LIG    1       25.222 -20.354   4.316  0.00  0.00    +0.052 C 
ENDBRANCH   4   5
BRANCH   4  16
ATOM     16  O   LIG    1       22.185 -20.809   5.247  0.00  0.00    -0.387 OA
ATOM     17  H   LIG    1       22.462 -19.893   5.443  0.00  0.00    +0.210 HD
ENDBRANCH   4  16
ENDBRANCH   3   4
ENDBRANCH   1   3
BRANCH   1  18
ATOM     18  C   LIG    1       24.753 -24.308   6.779  0.00  0.00    +0.115 C 
BRANCH  18  19
ATOM     19  C   LIG    1       25.453 -25.074   5.625  0.00  0.00    +0.169 C 
BRANCH  19  20
ATOM     20  C   LIG    1       25.552 -26.593   5.885  0.00  0.00    +0.203 C 
ATOM     21  O   LIG    1       25.881 -26.773   7.273  0.00  0.00    -0.486 OA
ATOM     22  C   LIG    1       25.840 -28.056   7.730  0.00  0.00    +0.124 A 
ATOM     23  C   LIG    1       25.145 -29.076   7.074  0.00  0.00    -0.003 A 
ATOM     24  C   LIG    1       25.123 -30.351   7.646  0.00  0.00    +0.045 A 
ATOM     25  C   LIG    1       25.768 -30.579   8.860  0.00  0.00    +0.124 A 
ATOM     26  C   LIG    1       26.450 -29.559   9.515  0.00  0.00    +0.042 A 
ATOM     27  F   LIG    1       25.724 -31.798   9.410  0.00  0.00    -0.205 F 
ATOM     28  C   LIG    1       24.454 -28.809   5.767  0.00  0.00    +0.042 C 
ATOM     29  C   LIG    1       26.485 -28.291   8.946  0.00  0.00    +0.049 A 
ATOM     30  C   LIG    1       24.239 -27.312   5.574  0.00  0.00    +0.052 C 
ENDBRANCH  19  20
BRANCH  19  31
ATOM     31  O   LIG    1       24.775 -24.809   4.389  0.00  0.00    -0.387 OA
ATOM     32  H   LIG    1       23.883 -25.193   4.487  0.00  0.00    +0.210 HD
ENDBRANCH  19  31
ENDBRANCH  18  19
ENDBRANCH   1  18
TORSDOF 8
ENDMDL
MODEL 7
REMARK VINA RESULT:      -9.3      2.238      2.724
REMARK  Name = *****
REMARK                            x       y       z     vdW  Elec       q    Type
REMARK                         _______ _______ _______ _____ _____    ______ ____
ROOT
ATOM      1  N   LIG    1       24.528 -28.962   5.133  0.00  0.00    -0.311 NA
ATOM      2  H   LIG    1       23.868 -29.189   4.389  0.00  0.00    +0.122 HD
ENDROOT
BRANCH   1   3
ATOM      3  C   LIG    1       25.341 -27.796   4.752  0.00  0.00    +0.115 C 
BRANCH   3   4
ATOM      4  C   LIG    1       26.131 -27.197   5.947  0.00  0.00    +0.169 C 
BRANCH   4   5
ATOM      5  C   LIG    1       25.320 -26.060   6.604  0.00  0.00    +0.203 C 
ATOM      6  O   LIG    1       26.196 -24.922   6.693  0.00  0.00    -0.486 OA
ATOM      7  C   LIG    1       25.609 -23.729   6.983  0.00  0.00    +0.124 A 
ATOM      8  C   LIG    1       24.228 -23.502   6.912  0.00  0.00    -0.003 A 
ATOM      9  C   LIG    1       23.734 -22.232   7.215  0.00  0.00    +0.045 A 
ATOM     10  C   LIG    1       24.612 -21.200   7.554  0.00  0.00    +0.124 A 
ATOM     11  C   LIG    1       25.987 -21.427   7.605  0.00  0.00    +0.042 A 
ATOM     12  F   LIG    1       24.133 -19.988   7.825  0.00  0.00    -0.205 F 
ATOM     13  C   LIG    1       23.295 -24.620   6.542  0.00  0.00    +0.042 C 
ATOM     14  C   LIG    1       26.482 -22.690   7.319  0.00  0.00    +0.049 A 
ATOM     15  C   LIG    1       24.050 -25.728   5.817  0.00  0.00    +0.052 C 
ENDBRANCH   4   5
BRANCH   4  16
ATOM     16  O   LIG    1       27.409 -26.714   5.520  0.00  0.00    -0.387 OA
ATOM     17  H   LIG    1       27.520 -25.854   5.969  0.00  0.00    +0.210 HD
ENDBRANCH   4  16
ENDBRANCH   3   4
ENDBRANCH   1   3
BRANCH   1  18
ATOM     18  C   LIG    1       25.382 -30.145   5.372  0.00  0.00    +0.115 C 
BRANCH  18  19
ATOM     19  C   LIG    1       24.700 -31.284   6.177  0.00  0.00    +0.169 C 
BRANCH  19  20
ATOM     20  C   LIG    1       24.867 -31.124   7.704  0.00  0.00    +0.203 C 
ATOM     21  O   LIG    1       25.578 -29.896   7.935  0.00  0.00    -0.486 OA
ATOM     22  C   LIG    1       25.668 -29.498   9.235  0.00  0.00    +0.124 A 
ATOM     23  C   LIG    1       24.813 -29.969  10.236  0.00  0.00    -0.003 A 
ATOM     24  C   LIG    1       24.954 -29.466  11.532  0.00  0.00    +0.045 A 
ATOM     25  C   LIG    1       25.918 -28.497  11.800  0.00  0.00    +0.124 A 
ATOM     26  C   LIG    1       26.761 -28.024  10.799  0.00  0.00    +0.042 A 
ATOM     27  F   LIG    1       26.032 -28.007  13.040  0.00  0.00    -0.205 F 
ATOM     28  C   LIG    1       23.778 -31.012   9.925  0.00  0.00    +0.042 C 
ATOM     29  C   LIG    1       26.634 -28.528   9.510  0.00  0.00    +0.049 A 
ATOM     30  C   LIG    1       23.518 -31.076   8.424  0.00  0.00    +0.052 C 
ENDBRANCH  19  20
BRANCH  19  31
ATOM     31  O   LIG    1       23.312 -31.363   5.819  0.00  0.00    -0.387 OA
ATOM     32  H   LIG    1       22.857 -31.729   6.601  0.00  0.00    +0.210 HD
ENDBRANCH  19  31
ENDBRANCH  18  19
ENDBRANCH   1  18
TORSDOF 8
ENDMDL
MODEL 8
REMARK VINA RESULT:      -9.3      1.662      9.614
REMARK  Name = *****
REMARK                            x       y       z     vdW  Elec       q    Type
REMARK                         _______ _______ _______ _____ _____    ______ ____
ROOT
ATOM      1  N   LIG    1       24.097 -27.235   6.114  0.00  0.00    -0.311 NA
ATOM      2  H   LIG    1       24.741 -27.203   6.905  0.00  0.00    +0.122 HD
ENDROOT
BRANCH   1   3
ATOM      3  C   LIG    1       24.349 -28.435   5.301  0.00  0.00    +0.115 C 
BRANCH   3   4
ATOM      4  C   LIG    1       24.612 -29.701   6.161  0.00  0.00    +0.169 C 
BRANCH   4   5
ATOM      5  C   LIG    1       24.535 -29.350   7.662  0.00  0.00    +0.203 C 
ATOM      6  O   LIG    1       23.488 -30.161   8.226  0.00  0.00    -0.486 OA
ATOM      7  C   LIG    1       23.435 -30.220   9.584  0.00  0.00    +0.124 A 
ATOM      8  C   LIG    1       24.472 -29.792  10.424  0.00  0.00    -0.003 A 
ATOM      9  C   LIG    1       24.316 -29.915  11.807  0.00  0.00    +0.045 A 
ATOM     10  C   LIG    1       23.156 -30.483  12.335  0.00  0.00    +0.124 A 
ATOM     11  C   LIG    1       22.134 -30.923  11.493  0.00  0.00    +0.042 A 
ATOM     12  F   LIG    1       23.023 -30.610  13.654  0.00  0.00    -0.205 F 
ATOM     13  C   LIG    1       25.717 -29.187   9.842  0.00  0.00    +0.042 C 
ATOM     14  C   LIG    1       22.276 -30.791  10.120  0.00  0.00    +0.049 A 
ATOM     15  C   LIG    1       25.868 -29.581   8.378  0.00  0.00    +0.052 C 
ENDBRANCH   4   5
BRANCH   4  16
ATOM     16  O   LIG    1       25.886 -30.271   5.849  0.00  0.00    -0.387 OA
ATOM     17  H   LIG    1       26.086 -30.873   6.591  0.00  0.00    +0.210 HD
ENDBRANCH   4  16
ENDBRANCH   3   4
ENDBRANCH   1   3
BRANCH   1  18
ATOM     18  C   LIG    1       24.284 -26.006   5.313  0.00  0.00    +0.115 C 
BRANCH  18  19
ATOM     19  C   LIG    1       25.375 -25.042   5.852  0.00  0.00    +0.169 C 
BRANCH  19  20
ATOM     20  C   LIG    1       24.836 -23.623   6.137  0.00  0.00    +0.203 C 
ATOM     21  O   LIG    1       24.802 -22.915   4.885  0.00  0.00    -0.486 OA
ATOM     22  C   LIG    1       24.190 -21.699   4.910  0.00  0.00    +0.124 A 
ATOM     23  C   LIG    1       23.296 -21.316   5.915  0.00  0.00    -0.003 A 
ATOM     24  C   LIG    1       22.683 -20.063   5.827  0.00  0.00    +0.045 A 
ATOM     25  C   LIG    1       22.949 -19.233   4.740  0.00  0.00    +0.124 A 
ATOM     26  C   LIG    1       23.832 -19.621   3.737  0.00  0.00    +0.042 A 
ATOM     27  F   LIG    1       22.341 -18.044   4.655  0.00  0.00    -0.205 F 
ATOM     28  C   LIG    1       23.020 -22.227   7.076  0.00  0.00    +0.042 C 
ATOM     29  C   LIG    1       24.455 -20.862   3.824  0.00  0.00    +0.049 A 
ATOM     30  C   LIG    1       23.432 -23.657   6.743  0.00  0.00    +0.052 C 
ENDBRANCH  19  20
BRANCH  19  31
ATOM     31  O   LIG    1       25.980 -25.606   7.026  0.00  0.00    -0.387 OA
ATOM     32  H   LIG    1       26.532 -24.897   7.406  0.00  0.00    +0.210 HD
ENDBRANCH  19  31
ENDBRANCH  18  19
ENDBRANCH   1  18
TORSDOF 8
ENDMDL
MODEL 9
REMARK VINA RESULT:      -9.2      3.310      9.041
REMARK  Name = *****
REMARK                            x       y       z     vdW  Elec       q    Type
REMARK                         _______ _______ _______ _____ _____    ______ ____
ROOT
ATOM      1  N   LIG    1       22.727 -23.565   6.218  0.00  0.00    -0.311 NA
ATOM      2  H   LIG    1       21.738 -23.805   6.283  0.00  0.00    +0.122 HD
ENDROOT
BRANCH   1   3
ATOM      3  C   LIG    1       23.551 -24.650   6.773  0.00  0.00    +0.115 C 
BRANCH   3   4
ATOM      4  C   LIG    1       25.030 -24.583   6.306  0.00  0.00    +0.169 C 
BRANCH   4   5
ATOM      5  C   LIG    1       25.576 -26.006   6.062  0.00  0.00    +0.203 C 
ATOM      6  O   LIG    1       24.763 -26.903   6.838  0.00  0.00    -0.486 OA
ATOM      7  C   LIG    1       24.888 -28.228   6.556  0.00  0.00    +0.124 A 
ATOM      8  C   LIG    1       25.516 -28.725   5.407  0.00  0.00    -0.003 A 
ATOM      9  C   LIG    1       25.572 -30.107   5.210  0.00  0.00    +0.045 A 
ATOM     10  C   LIG    1       24.983 -30.972   6.134  0.00  0.00    +0.124 A 
ATOM     11  C   LIG    1       24.344 -30.471   7.268  0.00  0.00    +0.042 A 
ATOM     12  F   LIG    1       25.028 -32.287   5.929  0.00  0.00    -0.205 F 
ATOM     13  C   LIG    1       26.142 -27.783   4.418  0.00  0.00    +0.042 C 
ATOM     14  C   LIG    1       24.297 -29.101   7.476  0.00  0.00    +0.049 A 
ATOM     15  C   LIG    1       25.564 -26.382   4.578  0.00  0.00    +0.052 C 
ENDBRANCH   4   5
BRANCH   4  16
ATOM     16  O   LIG    1       25.837 -23.899   7.270  0.00  0.00    -0.387 OA
ATOM     17  H   LIG    1       26.696 -23.755   6.828  0.00  0.00    +0.210 HD
ENDBRANCH   4  16
ENDBRANCH   3   4
ENDBRANCH   1   3
BRANCH   1  18
ATOM     18  C   LIG    1       22.948 -22.304   6.959  0.00  0.00    +0.115 C 
BRANCH  18  19
ATOM     19  C   LIG    1       22.861 -21.020   6.091  0.00  0.00    +0.169 C 
BRANCH  19  20
ATOM     20  C   LIG    1       24.229 -20.327   5.905  0.00  0.00    +0.203 C 
ATOM     21  O   LIG    1       25.128 -20.878   6.882  0.00  0.00    -0.486 OA
ATOM     22  C   LIG    1       26.434 -20.511   6.759  0.00  0.00    +0.124 A 
ATOM     23  C   LIG    1       26.973 -19.999   5.574  0.00  0.00    -0.003 A 
ATOM     24  C   LIG    1       28.336 -19.695   5.531  0.00  0.00    +0.045 A 
ATOM     25  C   LIG    1       29.135 -19.926   6.649  0.00  0.00    +0.124 A 
ATOM     26  C   LIG    1       28.598 -20.444   7.823  0.00  0.00    +0.042 A 
ATOM     27  F   LIG    1       30.443 -19.650   6.591  0.00  0.00    -0.205 F 
ATOM     28  C   LIG    1       26.095 -19.761   4.379  0.00  0.00    +0.042 C 
ATOM     29  C   LIG    1       27.240 -20.738   7.876  0.00  0.00    +0.049 A 
ATOM     30  C   LIG    1       24.797 -20.553   4.503  0.00  0.00    +0.052 C 
ENDBRANCH  19  20
BRANCH  19  31
ATOM     31  O   LIG    1       22.270 -21.335   4.821  0.00  0.00    -0.387 OA
ATOM     32  H   LIG    1       23.007 -21.350   4.181  0.00  0.00    +0.210 HD
ENDBRANCH  19  31
ENDBRANCH  18  19
ENDBRANCH   1  18
TORSDOF 8
ENDMDL
