MODEL 1
REMARK VINA RESULT:      -2.8      0.000      0.000
REMARK  Name = *****
REMARK                            x       y       z     vdW  Elec       q    Type
REMARK                         _______ _______ _______ _____ _____    ______ ____
ROOT
ATOM      1  O   LIG    1       26.577 -14.272   1.971  0.00  0.00    -0.203 OA
ATOM      2  C   LIG    1       27.367 -14.132   2.881  0.00  0.00    +0.505 C 
ENDROOT
BRANCH   2   3
ATOM      3  O   LIG    1       27.679 -15.075   3.771  0.00  0.00    -0.450 OA
ATOM      4  H   LIG    1       27.526 -14.652   4.637  0.00  0.00    +0.299 HD
ENDBRANCH   2   3
BRANCH   2   5
ATOM      5  O   LIG    1       28.047 -13.013   3.134  0.00  0.00    -0.450 OA
ATOM      6  H   LIG    1       28.130 -12.578   2.265  0.00  0.00    +0.299 HD
ENDBRANCH   2   5
TORSDOF 2
ENDMDL
MODEL 2
REMARK VINA RESULT:      -2.7      0.756      1.584
REMARK  Name = *****
REMARK                            x       y       z     vdW  Elec       q    Type
REMARK                         _______ _______ _______ _____ _____    ______ ____
ROOT
ATOM      1  O   LIG    1       26.752 -14.218   4.159  0.00  0.00    -0.203 OA
ATOM      2  C   LIG    1       27.350 -13.888   3.157  0.00  0.00    +0.505 C 
ENDROOT
BRANCH   2   3
ATOM      3  O   LIG    1       26.953 -14.151   1.911  0.00  0.00    -0.450 OA
ATOM      4  H   LIG    1       26.824 -15.119   1.896  0.00  0.00    +0.299 HD
ENDBRANCH   2   3
BRANCH   2   5
ATOM      5  O   LIG    1       28.499 -13.211   3.143  0.00  0.00    -0.450 OA
ATOM      6  H   LIG    1       28.701 -13.096   2.196  0.00  0.00    +0.299 HD
ENDBRANCH   2   5
TORSDOF 2
ENDMDL
MODEL 3
REMARK VINA RESULT:      -2.6      0.298      1.849
REMARK  Name = *****
REMARK                            x       y       z     vdW  Elec       q    Type
REMARK                         _______ _______ _______ _____ _____    ______ ____
ROOT
ATOM      1  O   LIG    1       27.204 -15.177   3.668  0.00  0.00    -0.203 OA
ATOM      2  C   LIG    1       27.237 -14.219   2.924  0.00  0.00    +0.505 C 
ENDROOT
BRANCH   2   3
ATOM      3  O   LIG    1       28.003 -13.143   3.102  0.00  0.00    -0.450 OA
ATOM      4  H   LIG    1       27.886 -12.914   4.044  0.00  0.00    +0.299 HD
ENDBRANCH   2   3
BRANCH   2   5
ATOM      5  O   LIG    1       26.512 -14.093   1.812  0.00  0.00    -0.450 OA
ATOM      6  H   LIG    1       25.662 -14.520   2.027  0.00  0.00    +0.299 HD
ENDBRANCH   2   5
TORSDOF 2
ENDMDL
MODEL 4
REMARK VINA RESULT:      -2.6      0.990      1.778
REMARK  Name = *****
REMARK                            x       y       z     vdW  Elec       q    Type
REMARK                         _______ _______ _______ _____ _____    ______ ____
ROOT
ATOM      1  O   LIG    1       27.820 -14.285   3.951  0.00  0.00    -0.203 OA
ATOM      2  C   LIG    1       27.075 -14.694   3.085  0.00  0.00    +0.505 C 
ENDROOT
BRANCH   2   3
ATOM      3  O   LIG    1       26.340 -15.803   3.174  0.00  0.00    -0.450 OA
ATOM      4  H   LIG    1       25.460 -15.490   3.458  0.00  0.00    +0.299 HD
ENDBRANCH   2   3
BRANCH   2   5
ATOM      5  O   LIG    1       26.875 -14.099   1.909  0.00  0.00    -0.450 OA
ATOM      6  H   LIG    1       27.534 -13.380   1.886  0.00  0.00    +0.299 HD
ENDBRANCH   2   5
TORSDOF 2
ENDMDL
MODEL 5
REMARK VINA RESULT:      -2.5      2.353      2.868
REMARK  Name = *****
REMARK                            x       y       z     vdW  Elec       q    Type
REMARK                         _______ _______ _______ _____ _____    ______ ____
ROOT
ATOM      1  O   LIG    1       27.323 -13.283   5.018  0.00  0.00    -0.203 OA
ATOM      2  C   LIG    1       28.365 -12.755   4.691  0.00  0.00    +0.505 C 
ENDROOT
BRANCH   2   3
ATOM      3  O   LIG    1       29.041 -11.879   5.435  0.00  0.00    -0.450 OA
ATOM      4  H   LIG    1       29.363 -11.214   4.796  0.00  0.00    +0.299 HD
ENDBRANCH   2   3
BRANCH   2   5
ATOM      5  O   LIG    1       28.997 -12.966   3.536  0.00  0.00    -0.450 OA
ATOM      6  H   LIG    1       28.985 -12.098   3.091  0.00  0.00    +0.299 HD
ENDBRANCH   2   5
TORSDOF 2
ENDMDL
MODEL 6
REMARK VINA RESULT:      -2.5      0.897      2.245
REMARK  Name = *****
REMARK                            x       y       z     vdW  Elec       q    Type
REMARK                         _______ _______ _______ _____ _____    ______ ____
ROOT
ATOM      1  O   LIG    1       27.974 -13.934   3.759  0.00  0.00    -0.203 OA
ATOM      2  C   LIG    1       27.219 -14.538   3.026  0.00  0.00    +0.505 C 
ENDROOT
BRANCH   2   3
ATOM      3  O   LIG    1       26.829 -14.119   1.822  0.00  0.00    -0.450 OA
ATOM      4  H   LIG    1       27.657 -13.849   1.378  0.00  0.00    +0.299 HD
ENDBRANCH   2   3
BRANCH   2   5
ATOM      5  O   LIG    1       26.661 -15.715   3.310  0.00  0.00    -0.450 OA
ATOM      6  H   LIG    1       27.343 -16.371   3.071  0.00  0.00    +0.299 HD
ENDBRANCH   2   5
TORSDOF 2
ENDMDL
MODEL 7
REMARK VINA RESULT:      -2.4      0.981      1.826
REMARK  Name = *****
REMARK                            x       y       z     vdW  Elec       q    Type
REMARK                         _______ _______ _______ _____ _____    ______ ____
ROOT
ATOM      1  O   LIG    1       28.356 -13.591   3.562  0.00  0.00    -0.203 OA
ATOM      2  C   LIG    1       27.266 -13.953   3.174  0.00  0.00    +0.505 C 
ENDROOT
BRANCH   2   3
ATOM      3  O   LIG    1       26.216 -14.191   3.961  0.00  0.00    -0.450 OA
ATOM      4  H   LIG    1       26.171 -15.165   4.019  0.00  0.00    +0.299 HD
ENDBRANCH   2   3
BRANCH   2   5
ATOM      5  O   LIG    1       26.945 -14.171   1.898  0.00  0.00    -0.450 OA
ATOM      6  H   LIG    1       27.318 -15.051   1.700  0.00  0.00    +0.299 HD
ENDBRANCH   2   5
TORSDOF 2
ENDMDL
MODEL 8
REMARK VINA RESULT:      -2.3      5.107      5.609
REMARK  Name = *****
REMARK                            x       y       z     vdW  Elec       q    Type
REMARK                         _______ _______ _______ _____ _____    ______ ____
ROOT
ATOM      1  O   LIG    1       24.030 -19.267   3.627  0.00  0.00    -0.203 OA
ATOM      2  C   LIG    1       25.242 -19.233   3.661  0.00  0.00    +0.505 C 
ENDROOT
BRANCH   2   3
ATOM      3  O   LIG    1       26.021 -20.230   4.080  0.00  0.00    -0.450 OA
ATOM      4  H   LIG    1       26.334 -20.657   3.260  0.00  0.00    +0.299 HD
ENDBRANCH   2   3
BRANCH   2   5
ATOM      5  O   LIG    1       25.985 -18.192   3.283  0.00  0.00    -0.450 OA
ATOM      6  H   LIG    1       26.292 -18.426   2.386  0.00  0.00    +0.299 HD
ENDBRANCH   2   5
TORSDOF 2
ENDMDL
MODEL 9
REMARK VINA RESULT:      -2.3      6.142      6.549
REMARK  Name = *****
REMARK                            x       y       z     vdW  Elec       q    Type
REMARK                         _______ _______ _______ _____ _____    ______ ____
ROOT
ATOM      1  O   LIG    1       24.866 -20.403   5.391  0.00  0.00    -0.203 OA
ATOM      2  C   LIG    1       25.735 -20.099   4.601  0.00  0.00    +0.505 C 
ENDROOT
BRANCH   2   3
ATOM      3  O   LIG    1       27.043 -20.121   4.862  0.00  0.00    -0.450 OA
ATOM      4  H   LIG    1       27.208 -21.020   5.205  0.00  0.00    +0.299 HD
ENDBRANCH   2   3
BRANCH   2   5
ATOM      5  O   LIG    1       25.520 -19.695   3.349  0.00  0.00    -0.450 OA
ATOM      6  H   LIG    1       26.339 -19.228   3.100  0.00  0.00    +0.299 HD
ENDBRANCH   2   5
TORSDOF 2
ENDMDL
