MODEL 1
REMARK VINA RESULT:      -1.6      0.000      0.000
REMARK  Name = *****
REMARK                            x       y       z     vdW  Elec       q    Type
REMARK                         _______ _______ _______ _____ _____    ______ ____
ROOT
ATOM      1  C   LIG    1       25.687 -20.916   4.645  0.00  0.00    +0.078 C 
ENDROOT
BRANCH   1   2
ATOM      2  N   LIG    1       27.063 -20.503   4.936  0.00  0.00    -0.312 N 
ATOM      3  H   LIG    1       27.460 -19.813   4.309  0.00  0.00    +0.149 HD
ATOM      4  C   LIG    1       27.748 -20.824   6.086  0.00  0.00    +0.214 C 
ATOM      5  O   LIG    1       27.328 -21.565   6.968  0.00  0.00    -0.276 OA
BRANCH   4   6
ATOM      6  C   LIG    1       29.124 -20.233   6.178  0.00  0.00    +0.107 C 
BRANCH   6   7
ATOM      7  C   LIG    1       29.008 -18.786   6.631  0.00  0.00    +0.129 C 
BRANCH   7   8
ATOM      8  C   LIG    1       29.148 -17.878   5.446  0.00  0.00    +0.305 C 
ATOM      9  O   LIG    1       29.038 -16.673   5.426  0.00  0.00    -0.251 OA
BRANCH   8  10
ATOM     10  O   LIG    1       29.441 -18.571   4.323  0.00  0.00    -0.481 OA
ATOM     11  H   LIG    1       29.851 -17.905   3.748  0.00  0.00    +0.295 HD
ENDBRANCH   8  10
ENDBRANCH   7   8
ENDBRANCH   6   7
ENDBRANCH   4   6
ENDBRANCH   1   2
BRANCH   1  12
ATOM     12  C   LIG    1       24.747 -20.743   5.883  0.00  0.00    +0.037 C 
BRANCH  12  13
ATOM     13  C   LIG    1       23.254 -21.139   5.698  0.00  0.00    +0.096 C 
ATOM     14  C   LIG    1       22.652 -21.528   7.062  0.00  0.00    +0.019 C 
BRANCH  13  15
ATOM     15  C   LIG    1       22.430 -20.010   5.118  0.00  0.00    +0.310 C 
ATOM     16  O   LIG    1       22.444 -18.858   5.526  0.00  0.00    -0.251 OA
BRANCH  15  17
ATOM     17  O   LIG    1       21.673 -20.454   4.070  0.00  0.00    -0.465 OA
BRANCH  17  19
ATOM     18  C   LIG    1       20.238 -18.537   3.569  0.00  0.00    +0.048 C 
ATOM     19  C   LIG    1       20.324 -19.993   4.002  0.00  0.00    +0.229 C 
ENDBRANCH  17  19
ENDBRANCH  15  17
ENDBRANCH  13  15
ENDBRANCH  12  13
ENDBRANCH   1  12
BRANCH   1  20
ATOM     20  C   LIG    1       25.096 -20.182   3.389  0.00  0.00    +0.057 C 
BRANCH  20  21
ATOM     21  C   LIG    1       25.006 -18.655   3.425  0.00  0.00    -0.046 A 
ATOM     22  C   LIG    1       26.142 -17.837   3.399  0.00  0.00    +0.004 A 
ATOM     23  C   LIG    1       26.033 -16.425   3.402  0.00  0.00    +0.009 A 
ATOM     24  C   LIG    1       24.789 -15.765   3.410  0.00  0.00    -0.018 A 
ATOM     25  C   LIG    1       23.663 -16.603   3.502  0.00  0.00    +0.009 A 
ATOM     26  C   LIG    1       23.768 -18.011   3.536  0.00  0.00    +0.004 A 
BRANCH  24  27
ATOM     27  C   LIG    1       24.659 -14.277   3.304  0.00  0.00    -0.018 A 
ATOM     28  C   LIG    1       24.386 -13.465   4.425  0.00  0.00    +0.008 A 
ATOM     29  C   LIG    1       24.219 -12.074   4.320  0.00  0.00    +0.001 A 
ATOM     30  C   LIG    1       24.333 -11.447   3.086  0.00  0.00    +0.000 A 
ATOM     31  C   LIG    1       24.612 -12.212   1.960  0.00  0.00    +0.001 A 
ATOM     32  C   LIG    1       24.767 -13.603   2.068  0.00  0.00    +0.008 A 
ENDBRANCH  24  27
ENDBRANCH  20  21
ENDBRANCH   1  20
TORSDOF 13
ENDMDL
