MODEL 1
REMARK VINA RESULT:      -4.3      0.000      0.000
REMARK  Name = *****
REMARK                            x       y       z     vdW  Elec       q    Type
REMARK                         _______ _______ _______ _____ _____    ______ ____
ROOT
ATOM      1  C   LIG    1       25.535 -16.735   3.510  0.00  0.00    +0.158 A 
ATOM      2  N   LIG    1       26.099 -17.971   3.335  0.00  0.00    -0.337 N 
ATOM      3  H   LIG    1       27.058 -18.125   3.063  0.00  0.00    +0.167 HD
ATOM      4  C   LIG    1       25.145 -18.919   3.590  0.00  0.00    +0.067 A 
ATOM      5  C   LIG    1       24.012 -18.181   3.918  0.00  0.00    +0.089 A 
ATOM      6  C   LIG    1       22.826 -18.855   4.242  0.00  0.00    +0.030 A 
ATOM      7  C   LIG    1       22.823 -20.256   4.223  0.00  0.00    +0.002 A 
ATOM      8  C   LIG    1       23.977 -20.970   3.889  0.00  0.00    +0.002 A 
ATOM      9  C   LIG    1       25.170 -20.315   3.564  0.00  0.00    +0.028 A 
ATOM     10  N   LIG    1       24.269 -16.831   3.865  0.00  0.00    -0.226 NA
ENDROOT
BRANCH   1  14
ATOM     11  C   LIG    1       26.716 -13.509   2.420  0.00  0.00    +0.156 A 
ATOM     12  S   LIG    1       28.028 -13.634   3.520  0.00  0.00    -0.083 S 
ATOM     13  C   LIG    1       27.439 -15.166   4.016  0.00  0.00    +0.078 A 
ATOM     14  C   LIG    1       26.293 -15.472   3.313  0.00  0.00    +0.113 A 
ATOM     15  N   LIG    1       25.875 -14.521   2.395  0.00  0.00    -0.244 NA
ENDBRANCH   1  14
TORSDOF 1
ENDMDL
MODEL 2
REMARK VINA RESULT:      -4.2      0.186      1.563
REMARK  Name = *****
REMARK                            x       y       z     vdW  Elec       q    Type
REMARK                         _______ _______ _______ _____ _____    ______ ____
ROOT
ATOM      1  C   LIG    1       25.602 -16.635   3.459  0.00  0.00    +0.158 A 
ATOM      2  N   LIG    1       24.307 -16.703   3.899  0.00  0.00    -0.337 N 
ATOM      3  H   LIG    1       23.740 -15.900   4.128  0.00  0.00    +0.167 HD
ATOM      4  C   LIG    1       23.943 -18.022   3.964  0.00  0.00    +0.067 A 
ATOM      5  C   LIG    1       25.080 -18.707   3.546  0.00  0.00    +0.089 A 
ATOM      6  C   LIG    1       25.053 -20.108   3.493  0.00  0.00    +0.030 A 
ATOM      7  C   LIG    1       23.877 -20.772   3.865  0.00  0.00    +0.002 A 
ATOM      8  C   LIG    1       22.752 -20.056   4.282  0.00  0.00    +0.002 A 
ATOM      9  C   LIG    1       22.759 -18.658   4.341  0.00  0.00    +0.028 A 
ATOM     10  N   LIG    1       26.098 -17.835   3.236  0.00  0.00    -0.226 NA
ENDROOT
BRANCH   1  14
ATOM     11  C   LIG    1       26.698 -13.378   2.372  0.00  0.00    +0.156 A 
ATOM     12  S   LIG    1       27.977 -13.442   3.516  0.00  0.00    -0.083 S 
ATOM     13  C   LIG    1       27.429 -14.991   4.009  0.00  0.00    +0.078 A 
ATOM     14  C   LIG    1       26.319 -15.346   3.273  0.00  0.00    +0.113 A 
ATOM     15  N   LIG    1       25.896 -14.421   2.331  0.00  0.00    -0.244 NA
ENDBRANCH   1  14
TORSDOF 1
ENDMDL
MODEL 3
REMARK VINA RESULT:      -4.1      4.142      4.871
REMARK  Name = *****
REMARK                            x       y       z     vdW  Elec       q    Type
REMARK                         _______ _______ _______ _____ _____    ______ ____
ROOT
ATOM      1  C   LIG    1       25.808 -20.408   5.650  0.00  0.00    +0.158 A 
ATOM      2  N   LIG    1       25.265 -19.462   4.823  0.00  0.00    -0.337 N 
ATOM      3  H   LIG    1       25.784 -18.703   4.408  0.00  0.00    +0.167 HD
ATOM      4  C   LIG    1       23.931 -19.735   4.675  0.00  0.00    +0.067 A 
ATOM      5  C   LIG    1       23.731 -20.873   5.450  0.00  0.00    +0.089 A 
ATOM      6  C   LIG    1       22.448 -21.434   5.524  0.00  0.00    +0.030 A 
ATOM      7  C   LIG    1       21.406 -20.823   4.812  0.00  0.00    +0.002 A 
ATOM      8  C   LIG    1       21.638 -19.680   4.043  0.00  0.00    +0.002 A 
ATOM      9  C   LIG    1       22.913 -19.106   3.957  0.00  0.00    +0.028 A 
ATOM     10  N   LIG    1       24.902 -21.279   6.046  0.00  0.00    -0.226 NA
ENDROOT
BRANCH   1  14
ATOM     11  C   LIG    1       29.316 -19.675   6.038  0.00  0.00    +0.156 A 
ATOM     12  S   LIG    1       29.475 -21.044   7.061  0.00  0.00    -0.083 S 
ATOM     13  C   LIG    1       27.803 -21.366   6.855  0.00  0.00    +0.078 A 
ATOM     14  C   LIG    1       27.247 -20.413   6.028  0.00  0.00    +0.113 A 
ATOM     15  N   LIG    1       28.114 -19.440   5.556  0.00  0.00    -0.244 NA
ENDBRANCH   1  14
TORSDOF 1
ENDMDL
MODEL 4
REMARK VINA RESULT:      -3.7      2.620      5.742
REMARK  Name = *****
REMARK                            x       y       z     vdW  Elec       q    Type
REMARK                         _______ _______ _______ _____ _____    ______ ____
ROOT
ATOM      1  C   LIG    1       24.809 -17.297   3.709  0.00  0.00    +0.158 A 
ATOM      2  N   LIG    1       24.024 -16.218   4.017  0.00  0.00    -0.337 N 
ATOM      3  H   LIG    1       23.090 -16.284   4.395  0.00  0.00    +0.167 HD
ATOM      4  C   LIG    1       24.725 -15.079   3.726  0.00  0.00    +0.067 A 
ATOM      5  C   LIG    1       25.941 -15.545   3.237  0.00  0.00    +0.089 A 
ATOM      6  C   LIG    1       26.916 -14.621   2.836  0.00  0.00    +0.030 A 
ATOM      7  C   LIG    1       26.630 -13.253   2.941  0.00  0.00    +0.002 A 
ATOM      8  C   LIG    1       25.398 -12.815   3.435  0.00  0.00    +0.002 A 
ATOM      9  C   LIG    1       24.412 -13.723   3.841  0.00  0.00    +0.028 A 
ATOM     10  N   LIG    1       25.979 -16.920   3.233  0.00  0.00    -0.226 NA
ENDROOT
BRANCH   1  14
ATOM     11  C   LIG    1       22.931 -20.292   4.414  0.00  0.00    +0.156 A 
ATOM     12  S   LIG    1       24.305 -21.234   3.999  0.00  0.00    -0.083 S 
ATOM     13  C   LIG    1       25.171 -19.790   3.672  0.00  0.00    +0.078 A 
ATOM     14  C   LIG    1       24.357 -18.700   3.901  0.00  0.00    +0.113 A 
ATOM     15  N   LIG    1       23.069 -18.986   4.327  0.00  0.00    -0.244 NA
ENDBRANCH   1  14
TORSDOF 1
ENDMDL
MODEL 5
REMARK VINA RESULT:      -3.3      2.653      5.542
REMARK  Name = *****
REMARK                            x       y       z     vdW  Elec       q    Type
REMARK                         _______ _______ _______ _____ _____    ______ ____
ROOT
ATOM      1  C   LIG    1       24.606 -17.312   3.802  0.00  0.00    +0.158 A 
ATOM      2  N   LIG    1       25.834 -16.934   3.329  0.00  0.00    -0.337 N 
ATOM      3  H   LIG    1       26.565 -17.578   3.063  0.00  0.00    +0.167 HD
ATOM      4  C   LIG    1       25.877 -15.566   3.286  0.00  0.00    +0.067 A 
ATOM      5  C   LIG    1       24.627 -15.174   3.754  0.00  0.00    +0.089 A 
ATOM      6  C   LIG    1       24.327 -13.807   3.841  0.00  0.00    +0.030 A 
ATOM      7  C   LIG    1       25.302 -12.879   3.453  0.00  0.00    +0.002 A 
ATOM      8  C   LIG    1       26.550 -13.303   2.988  0.00  0.00    +0.002 A 
ATOM      9  C   LIG    1       26.867 -14.664   2.893  0.00  0.00    +0.028 A 
ATOM     10  N   LIG    1       23.851 -16.265   4.069  0.00  0.00    -0.226 NA
ENDROOT
BRANCH   1  14
ATOM     11  C   LIG    1       22.878 -20.395   4.509  0.00  0.00    +0.156 A 
ATOM     12  S   LIG    1       24.270 -21.271   4.018  0.00  0.00    -0.083 S 
ATOM     13  C   LIG    1       25.064 -19.787   3.692  0.00  0.00    +0.078 A 
ATOM     14  C   LIG    1       24.218 -18.736   3.978  0.00  0.00    +0.113 A 
ATOM     15  N   LIG    1       22.960 -19.083   4.448  0.00  0.00    -0.244 NA
ENDBRANCH   1  14
TORSDOF 1
ENDMDL
MODEL 6
REMARK VINA RESULT:      -3.1      1.545      1.641
REMARK  Name = *****
REMARK                            x       y       z     vdW  Elec       q    Type
REMARK                         _______ _______ _______ _____ _____    ______ ____
ROOT
ATOM      1  C   LIG    1       24.117 -16.654   3.909  0.00  0.00    +0.158 A 
ATOM      2  N   LIG    1       24.947 -17.685   3.558  0.00  0.00    -0.337 N 
ATOM      3  H   LIG    1       25.864 -17.566   3.155  0.00  0.00    +0.167 HD
ATOM      4  C   LIG    1       24.314 -18.864   3.850  0.00  0.00    +0.067 A 
ATOM      5  C   LIG    1       23.090 -18.470   4.380  0.00  0.00    +0.089 A 
ATOM      6  C   LIG    1       22.175 -19.449   4.792  0.00  0.00    +0.030 A 
ATOM      7  C   LIG    1       22.528 -20.798   4.654  0.00  0.00    +0.002 A 
ATOM      8  C   LIG    1       23.765 -21.164   4.116  0.00  0.00    +0.002 A 
ATOM      9  C   LIG    1       24.691 -20.200   3.700  0.00  0.00    +0.028 A 
ATOM     10  N   LIG    1       22.983 -17.099   4.412  0.00  0.00    -0.226 NA
ENDROOT
BRANCH   1  14
ATOM     11  C   LIG    1       24.142 -13.057   3.669  0.00  0.00    +0.156 A 
ATOM     12  S   LIG    1       25.813 -13.110   3.277  0.00  0.00    -0.083 S 
ATOM     13  C   LIG    1       25.767 -14.820   3.399  0.00  0.00    +0.078 A 
ATOM     14  C   LIG    1       24.491 -15.226   3.728  0.00  0.00    +0.113 A 
ATOM     15  N   LIG    1       23.555 -14.215   3.884  0.00  0.00    -0.244 NA
ENDBRANCH   1  14
TORSDOF 1
ENDMDL
MODEL 7
REMARK VINA RESULT:      -2.6      1.779      2.457
REMARK  Name = *****
REMARK                            x       y       z     vdW  Elec       q    Type
REMARK                         _______ _______ _______ _____ _____    ______ ____
ROOT
ATOM      1  C   LIG    1       24.220 -16.356   3.943  0.00  0.00    +0.158 A 
ATOM      2  N   LIG    1       23.074 -16.876   4.483  0.00  0.00    -0.337 N 
ATOM      3  H   LIG    1       22.328 -16.322   4.878  0.00  0.00    +0.167 HD
ATOM      4  C   LIG    1       23.133 -18.240   4.385  0.00  0.00    +0.067 A 
ATOM      5  C   LIG    1       24.357 -18.483   3.770  0.00  0.00    +0.089 A 
ATOM      6  C   LIG    1       24.744 -19.806   3.514  0.00  0.00    +0.030 A 
ATOM      7  C   LIG    1       23.880 -20.843   3.889  0.00  0.00    +0.002 A 
ATOM      8  C   LIG    1       22.657 -20.568   4.507  0.00  0.00    +0.002 A 
ATOM      9  C   LIG    1       22.253 -19.254   4.770  0.00  0.00    +0.028 A 
ATOM     10  N   LIG    1       25.018 -17.307   3.501  0.00  0.00    -0.226 NA
ENDROOT
BRANCH   1  14
ATOM     11  C   LIG    1       25.691 -13.069   4.105  0.00  0.00    +0.156 A 
ATOM     12  S   LIG    1       24.217 -12.397   3.536  0.00  0.00    -0.083 S 
ATOM     13  C   LIG    1       23.547 -13.974   3.471  0.00  0.00    +0.078 A 
ATOM     14  C   LIG    1       24.487 -14.894   3.884  0.00  0.00    +0.113 A 
ATOM     15  N   LIG    1       25.721 -14.377   4.250  0.00  0.00    -0.244 NA
ENDBRANCH   1  14
TORSDOF 1
ENDMDL
MODEL 8
REMARK VINA RESULT:      -2.0      4.109      5.695
REMARK  Name = *****
REMARK                            x       y       z     vdW  Elec       q    Type
REMARK                         _______ _______ _______ _____ _____    ______ ____
ROOT
ATOM      1  C   LIG    1       24.115 -20.006   5.176  0.00  0.00    +0.158 A 
ATOM      2  N   LIG    1       25.231 -19.334   4.753  0.00  0.00    -0.337 N 
ATOM      3  H   LIG    1       25.222 -18.593   4.068  0.00  0.00    +0.167 HD
ATOM      4  C   LIG    1       26.317 -19.844   5.413  0.00  0.00    +0.067 A 
ATOM      5  C   LIG    1       25.781 -20.834   6.231  0.00  0.00    +0.089 A 
ATOM      6  C   LIG    1       26.637 -21.572   7.061  0.00  0.00    +0.030 A 
ATOM      7  C   LIG    1       28.008 -21.285   7.037  0.00  0.00    +0.002 A 
ATOM      8  C   LIG    1       28.517 -20.285   6.204  0.00  0.00    +0.002 A 
ATOM      9  C   LIG    1       27.678 -19.537   5.369  0.00  0.00    +0.028 A 
ATOM     10  N   LIG    1       24.418 -20.923   6.074  0.00  0.00    -0.226 NA
ENDROOT
BRANCH   1  14
ATOM     11  C   LIG    1       20.671 -20.160   4.125  0.00  0.00    +0.156 A 
ATOM     12  S   LIG    1       20.746 -18.501   3.686  0.00  0.00    -0.083 S 
ATOM     13  C   LIG    1       22.383 -18.462   4.195  0.00  0.00    +0.078 A 
ATOM     14  C   LIG    1       22.753 -19.707   4.660  0.00  0.00    +0.113 A 
ATOM     15  N   LIG    1       21.771 -20.684   4.621  0.00  0.00    -0.244 NA
ENDBRANCH   1  14
TORSDOF 1
ENDMDL
MODEL 9
REMARK VINA RESULT:      -1.6      3.351      5.723
REMARK  Name = *****
REMARK                            x       y       z     vdW  Elec       q    Type
REMARK                         _______ _______ _______ _____ _____    ______ ____
ROOT
ATOM      1  C   LIG    1       27.607 -16.846   4.386  0.00  0.00    +0.158 A 
ATOM      2  N   LIG    1       28.259 -15.651   4.535  0.00  0.00    -0.337 N 
ATOM      3  H   LIG    1       29.094 -15.524   5.088  0.00  0.00    +0.167 HD
ATOM      4  C   LIG    1       27.584 -14.700   3.818  0.00  0.00    +0.067 A 
ATOM      5  C   LIG    1       26.520 -15.395   3.252  0.00  0.00    +0.089 A 
ATOM      6  C   LIG    1       25.610 -14.707   2.437  0.00  0.00    +0.030 A 
ATOM      7  C   LIG    1       25.804 -13.336   2.221  0.00  0.00    +0.002 A 
ATOM      8  C   LIG    1       26.883 -12.665   2.804  0.00  0.00    +0.002 A 
ATOM      9  C   LIG    1       27.802 -13.335   3.620  0.00  0.00    +0.028 A 
ATOM     10  N   LIG    1       26.547 -16.722   3.612  0.00  0.00    -0.226 NA
ENDROOT
BRANCH   1  14
ATOM     11  C   LIG    1       29.475 -19.385   6.134  0.00  0.00    +0.156 A 
ATOM     12  S   LIG    1       28.172 -20.480   5.906  0.00  0.00    -0.083 S 
ATOM     13  C   LIG    1       27.310 -19.250   5.079  0.00  0.00    +0.078 A 
ATOM     14  C   LIG    1       28.071 -18.100   5.036  0.00  0.00    +0.113 A 
ATOM     15  N   LIG    1       29.316 -18.175   5.641  0.00  0.00    -0.244 NA
ENDBRANCH   1  14
TORSDOF 1
ENDMDL
