MODEL 1
REMARK VINA RESULT:      -4.9      0.000      0.000
REMARK  Name = *****
REMARK                            x       y       z     vdW  Elec       q    Type
REMARK                         _______ _______ _______ _____ _____    ______ ____
ROOT
ATOM      1  C   LIG    1       23.343 -21.068   6.856  0.00  0.00    +0.000 C 
ENDROOT
BRANCH   1   2
ATOM      2  C   LIG    1       24.785 -21.572   6.777  0.00  0.00    +0.000 C 
BRANCH   2   3
ATOM      3  C   LIG    1       25.778 -20.445   7.062  0.00  0.00    +0.011 C 
BRANCH   3   4
ATOM      4  C   LIG    1       27.214 -20.950   7.036  0.00  0.00    +0.120 C 
BRANCH   4   6
ATOM      5  O   LIG    1       29.026 -19.452   6.500  0.00  0.00    -0.251 OA
ATOM      6  C   LIG    1       28.059 -20.096   6.126  0.00  0.00    +0.305 C 
BRANCH   6   7
ATOM      7  O   LIG    1       27.622 -20.076   4.848  0.00  0.00    -0.481 OA
ATOM      8  H   LIG    1       28.192 -20.563   4.225  0.00  0.00    +0.295 HD
ENDBRANCH   6   7
ENDBRANCH   4   6
ENDBRANCH   3   4
ENDBRANCH   2   3
ENDBRANCH   1   2
BRANCH   1   9
ATOM      9  C   LIG    1       22.505 -21.559   5.672  0.00  0.00    +0.000 C 
BRANCH   9  10
ATOM     10  C   LIG    1       22.062 -20.389   4.792  0.00  0.00    +0.011 C 
BRANCH  10  11
ATOM     11  C   LIG    1       23.151 -19.322   4.674  0.00  0.00    +0.120 C 
BRANCH  11  12
ATOM     12  C   LIG    1       24.229 -19.729   3.694  0.00  0.00    +0.305 C 
ATOM     13  O   LIG    1       24.183 -20.692   2.949  0.00  0.00    -0.251 OA
BRANCH  12  14
ATOM     14  O   LIG    1       25.291 -18.888   3.721  0.00  0.00    -0.481 OA
ATOM     15  H   LIG    1       26.135 -19.325   3.938  0.00  0.00    +0.295 HD
ENDBRANCH  12  14
ENDBRANCH  11  12
ENDBRANCH  10  11
ENDBRANCH   9  10
ENDBRANCH   1   9
TORSDOF 10
ENDMDL
MODEL 2
REMARK VINA RESULT:      -4.9      3.896      5.464
REMARK  Name = *****
REMARK                            x       y       z     vdW  Elec       q    Type
REMARK                         _______ _______ _______ _____ _____    ______ ____
ROOT
ATOM      1  C   LIG    1       23.292 -16.696   4.129  0.00  0.00    +0.000 C 
ENDROOT
BRANCH   1   2
ATOM      2  C   LIG    1       23.077 -15.321   4.764  0.00  0.00    +0.000 C 
BRANCH   2   3
ATOM      3  C   LIG    1       23.783 -14.228   3.961  0.00  0.00    +0.011 C 
BRANCH   3   4
ATOM      4  C   LIG    1       25.214 -14.622   3.624  0.00  0.00    +0.120 C 
BRANCH   4   6
ATOM      5  O   LIG    1       25.306 -12.605   2.306  0.00  0.00    -0.251 OA
ATOM      6  C   LIG    1       25.791 -13.689   2.591  0.00  0.00    +0.305 C 
BRANCH   6   7
ATOM      7  O   LIG    1       26.885 -14.181   1.973  0.00  0.00    -0.481 OA
ATOM      8  H   LIG    1       27.701 -14.127   2.504  0.00  0.00    +0.295 HD
ENDBRANCH   6   7
ENDBRANCH   4   6
ENDBRANCH   3   4
ENDBRANCH   2   3
ENDBRANCH   1   2
BRANCH   1   9
ATOM      9  C   LIG    1       22.200 -17.687   4.541  0.00  0.00    +0.000 C 
BRANCH   9  10
ATOM     10  C   LIG    1       22.742 -19.117   4.576  0.00  0.00    +0.011 C 
BRANCH  10  11
ATOM     11  C   LIG    1       24.017 -19.262   3.745  0.00  0.00    +0.120 C 
BRANCH  11  12
ATOM     12  C   LIG    1       24.815 -20.480   4.154  0.00  0.00    +0.305 C 
ATOM     13  O   LIG    1       24.350 -21.571   4.435  0.00  0.00    -0.251 OA
BRANCH  12  14
ATOM     14  O   LIG    1       26.148 -20.237   4.176  0.00  0.00    -0.481 OA
ATOM     15  H   LIG    1       26.436 -19.682   4.924  0.00  0.00    +0.295 HD
ENDBRANCH  12  14
ENDBRANCH  11  12
ENDBRANCH  10  11
ENDBRANCH   9  10
ENDBRANCH   1   9
TORSDOF 10
ENDMDL
MODEL 3
REMARK VINA RESULT:      -4.8      3.831      5.404
REMARK  Name = *****
REMARK                            x       y       z     vdW  Elec       q    Type
REMARK                         _______ _______ _______ _____ _____    ______ ____
ROOT
ATOM      1  C   LIG    1       23.163 -16.724   4.090  0.00  0.00    +0.000 C 
ENDROOT
BRANCH   1   2
ATOM      2  C   LIG    1       22.186 -17.770   4.630  0.00  0.00    +0.000 C 
BRANCH   2   3
ATOM      3  C   LIG    1       22.744 -19.184   4.460  0.00  0.00    +0.011 C 
BRANCH   3   4
ATOM      4  C   LIG    1       24.091 -19.167   3.751  0.00  0.00    +0.120 C 
BRANCH   4   6
ATOM      5  O   LIG    1       24.364 -21.513   4.236  0.00  0.00    -0.251 OA
ATOM      6  C   LIG    1       24.872 -20.416   4.070  0.00  0.00    +0.305 C 
BRANCH   6   7
ATOM      7  O   LIG    1       26.199 -20.202   4.197  0.00  0.00    -0.481 OA
ATOM      8  H   LIG    1       26.435 -19.566   4.897  0.00  0.00    +0.295 HD
ENDBRANCH   6   7
ENDBRANCH   4   6
ENDBRANCH   3   4
ENDBRANCH   2   3
ENDBRANCH   1   2
BRANCH   1   9
ATOM      9  C   LIG    1       23.001 -15.378   4.802  0.00  0.00    +0.000 C 
BRANCH   9  10
ATOM     10  C   LIG    1       23.724 -14.265   4.040  0.00  0.00    +0.011 C 
BRANCH  10  11
ATOM     11  C   LIG    1       25.172 -14.639   3.725  0.00  0.00    +0.120 C 
BRANCH  11  12
ATOM     12  C   LIG    1       25.747 -13.773   2.627  0.00  0.00    +0.305 C 
ATOM     13  O   LIG    1       25.387 -12.641   2.355  0.00  0.00    -0.251 OA
BRANCH  12  14
ATOM     14  O   LIG    1       26.741 -14.396   1.948  0.00  0.00    -0.481 OA
ATOM     15  H   LIG    1       26.714 -15.368   2.013  0.00  0.00    +0.295 HD
ENDBRANCH  12  14
ENDBRANCH  11  12
ENDBRANCH  10  11
ENDBRANCH   9  10
ENDBRANCH   1   9
TORSDOF 10
ENDMDL
MODEL 4
REMARK VINA RESULT:      -4.8      3.748      5.473
REMARK  Name = *****
REMARK                            x       y       z     vdW  Elec       q    Type
REMARK                         _______ _______ _______ _____ _____    ______ ____
ROOT
ATOM      1  C   LIG    1       23.395 -16.393   4.115  0.00  0.00    +0.000 C 
ENDROOT
BRANCH   1   2
ATOM      2  C   LIG    1       22.329 -17.254   4.796  0.00  0.00    +0.000 C 
BRANCH   2   3
ATOM      3  C   LIG    1       22.264 -18.647   4.170  0.00  0.00    +0.011 C 
BRANCH   3   4
ATOM      4  C   LIG    1       22.655 -19.725   5.171  0.00  0.00    +0.120 C 
BRANCH   4   6
ATOM      5  O   LIG    1       25.024 -20.092   4.913  0.00  0.00    -0.251 OA
ATOM      6  C   LIG    1       23.881 -20.464   4.701  0.00  0.00    +0.305 C 
BRANCH   6   7
ATOM      7  O   LIG    1       23.598 -21.571   3.982  0.00  0.00    -0.481 OA
ATOM      8  H   LIG    1       23.920 -21.541   3.062  0.00  0.00    +0.295 HD
ENDBRANCH   6   7
ENDBRANCH   4   6
ENDBRANCH   3   4
ENDBRANCH   2   3
ENDBRANCH   1   2
BRANCH   1   9
ATOM      9  C   LIG    1       23.295 -14.926   4.540  0.00  0.00    +0.000 C 
BRANCH   9  10
ATOM     10  C   LIG    1       24.214 -14.045   3.692  0.00  0.00    +0.011 C 
BRANCH  10  11
ATOM     11  C   LIG    1       25.643 -14.025   4.237  0.00  0.00    +0.120 C 
BRANCH  11  12
ATOM     12  C   LIG    1       26.634 -14.562   3.230  0.00  0.00    +0.305 C 
ATOM     13  O   LIG    1       26.579 -14.396   2.023  0.00  0.00    -0.251 OA
BRANCH  12  14
ATOM     14  O   LIG    1       27.628 -15.271   3.815  0.00  0.00    -0.481 OA
ATOM     15  H   LIG    1       27.383 -15.660   4.675  0.00  0.00    +0.295 HD
ENDBRANCH  12  14
ENDBRANCH  11  12
ENDBRANCH  10  11
ENDBRANCH   9  10
ENDBRANCH   1   9
TORSDOF 10
ENDMDL
MODEL 5
REMARK VINA RESULT:      -4.7      0.926      4.445
REMARK  Name = *****
REMARK                            x       y       z     vdW  Elec       q    Type
REMARK                         _______ _______ _______ _____ _____    ______ ____
ROOT
ATOM      1  C   LIG    1       24.130 -20.761   6.889  0.00  0.00    +0.000 C 
ENDROOT
BRANCH   1   2
ATOM      2  C   LIG    1       22.945 -21.424   6.184  0.00  0.00    +0.000 C 
BRANCH   2   3
ATOM      3  C   LIG    1       22.344 -20.496   5.127  0.00  0.00    +0.011 C 
BRANCH   3   4
ATOM      4  C   LIG    1       23.233 -19.284   4.882  0.00  0.00    +0.120 C 
BRANCH   4   6
ATOM      5  O   LIG    1       24.241 -20.589   3.124  0.00  0.00    -0.251 OA
ATOM      6  C   LIG    1       24.127 -19.515   3.691  0.00  0.00    +0.305 C 
BRANCH   6   7
ATOM      7  O   LIG    1       24.829 -18.421   3.326  0.00  0.00    -0.481 OA
ATOM      8  H   LIG    1       24.287 -17.716   2.925  0.00  0.00    +0.295 HD
ENDBRANCH   6   7
ENDBRANCH   4   6
ENDBRANCH   3   4
ENDBRANCH   2   3
ENDBRANCH   1   2
BRANCH   1   9
ATOM      9  C   LIG    1       25.440 -21.504   6.614  0.00  0.00    +0.000 C 
BRANCH   9  10
ATOM     10  C   LIG    1       26.648 -20.612   6.908  0.00  0.00    +0.011 C 
BRANCH  10  11
ATOM     11  C   LIG    1       27.306 -20.104   5.624  0.00  0.00    +0.120 C 
BRANCH  11  12
ATOM     12  C   LIG    1       28.749 -19.714   5.851  0.00  0.00    +0.305 C 
ATOM     13  O   LIG    1       29.278 -18.692   5.450  0.00  0.00    -0.251 OA
BRANCH  12  14
ATOM     14  O   LIG    1       29.424 -20.641   6.573  0.00  0.00    -0.481 OA
ATOM     15  H   LIG    1       30.158 -20.273   7.100  0.00  0.00    +0.295 HD
ENDBRANCH  12  14
ENDBRANCH  11  12
ENDBRANCH  10  11
ENDBRANCH   9  10
ENDBRANCH   1   9
TORSDOF 10
ENDMDL
MODEL 6
REMARK VINA RESULT:      -4.7      4.060      5.143
REMARK  Name = *****
REMARK                            x       y       z     vdW  Elec       q    Type
REMARK                         _______ _______ _______ _____ _____    ______ ____
ROOT
ATOM      1  C   LIG    1       25.939 -18.231   3.317  0.00  0.00    +0.000 C 
ENDROOT
BRANCH   1   2
ATOM      2  C   LIG    1       25.372 -16.812   3.400  0.00  0.00    +0.000 C 
BRANCH   2   3
ATOM      3  C   LIG    1       26.489 -15.769   3.340  0.00  0.00    +0.011 C 
BRANCH   3   4
ATOM      4  C   LIG    1       26.040 -14.441   3.935  0.00  0.00    +0.120 C 
BRANCH   4   6
ATOM      5  O   LIG    1       28.259 -13.500   3.916  0.00  0.00    -0.251 OA
ATOM      6  C   LIG    1       27.215 -13.698   4.516  0.00  0.00    +0.305 C 
BRANCH   6   7
ATOM      7  O   LIG    1       27.021 -13.297   5.791  0.00  0.00    -0.481 OA
ATOM      8  H   LIG    1       27.535 -13.802   6.448  0.00  0.00    +0.295 HD
ENDBRANCH   6   7
ENDBRANCH   4   6
ENDBRANCH   3   4
ENDBRANCH   2   3
ENDBRANCH   1   2
BRANCH   1   9
ATOM      9  C   LIG    1       25.014 -19.250   3.986  0.00  0.00    +0.000 C 
BRANCH   9  10
ATOM     10  C   LIG    1       23.556 -19.014   3.587  0.00  0.00    +0.011 C 
BRANCH  10  11
ATOM     11  C   LIG    1       22.626 -19.026   4.800  0.00  0.00    +0.120 C 
BRANCH  11  12
ATOM     12  C   LIG    1       22.703 -20.336   5.552  0.00  0.00    +0.305 C 
ATOM     13  O   LIG    1       23.157 -20.483   6.674  0.00  0.00    -0.251 OA
BRANCH  12  14
ATOM     14  O   LIG    1       22.199 -21.370   4.837  0.00  0.00    -0.481 OA
ATOM     15  H   LIG    1       22.676 -21.544   4.005  0.00  0.00    +0.295 HD
ENDBRANCH  12  14
ENDBRANCH  11  12
ENDBRANCH  10  11
ENDBRANCH   9  10
ENDBRANCH   1   9
TORSDOF 10
ENDMDL
MODEL 7
REMARK VINA RESULT:      -4.6      3.902      5.685
REMARK  Name = *****
REMARK                            x       y       z     vdW  Elec       q    Type
REMARK                         _______ _______ _______ _____ _____    ______ ____
ROOT
ATOM      1  C   LIG    1       25.263 -18.561   3.678  0.00  0.00    +0.000 C 
ENDROOT
BRANCH   1   2
ATOM      2  C   LIG    1       25.807 -19.831   4.337  0.00  0.00    +0.000 C 
BRANCH   2   3
ATOM      3  C   LIG    1       24.722 -20.903   4.443  0.00  0.00    +0.011 C 
BRANCH   3   4
ATOM      4  C   LIG    1       23.707 -20.560   5.524  0.00  0.00    +0.120 C 
BRANCH   4   6
ATOM      5  O   LIG    1       21.905 -19.266   4.582  0.00  0.00    -0.251 OA
ATOM      6  C   LIG    1       22.341 -20.353   4.921  0.00  0.00    +0.305 C 
BRANCH   6   7
ATOM      7  O   LIG    1       21.619 -21.490   4.824  0.00  0.00    -0.481 OA
ATOM      8  H   LIG    1       22.049 -22.270   5.220  0.00  0.00    +0.295 HD
ENDBRANCH   6   7
ENDBRANCH   4   6
ENDBRANCH   3   4
ENDBRANCH   2   3
ENDBRANCH   1   2
BRANCH   1   9
ATOM      9  C   LIG    1       26.383 -17.574   3.342  0.00  0.00    +0.000 C 
BRANCH   9  10
ATOM     10  C   LIG    1       25.862 -16.135   3.335  0.00  0.00    +0.011 C 
BRANCH  10  11
ATOM     11  C   LIG    1       26.973 -15.127   3.632  0.00  0.00    +0.120 C 
BRANCH  11  12
ATOM     12  C   LIG    1       26.918 -13.941   2.696  0.00  0.00    +0.305 C 
ATOM     13  O   LIG    1       26.094 -13.772   1.814  0.00  0.00    -0.251 OA
BRANCH  12  14
ATOM     14  O   LIG    1       27.907 -13.048   2.939  0.00  0.00    -0.481 OA
ATOM     15  H   LIG    1       28.788 -13.344   2.644  0.00  0.00    +0.295 HD
ENDBRANCH  12  14
ENDBRANCH  11  12
ENDBRANCH  10  11
ENDBRANCH   9  10
ENDBRANCH   1   9
TORSDOF 10
ENDMDL
MODEL 8
REMARK VINA RESULT:      -4.6      4.013      5.407
REMARK  Name = *****
REMARK                            x       y       z     vdW  Elec       q    Type
REMARK                         _______ _______ _______ _____ _____    ______ ____
ROOT
ATOM      1  C   LIG    1       23.399 -16.476   4.070  0.00  0.00    +0.000 C 
ENDROOT
BRANCH   1   2
ATOM      2  C   LIG    1       23.453 -15.012   4.509  0.00  0.00    +0.000 C 
BRANCH   2   3
ATOM      3  C   LIG    1       24.377 -14.199   3.602  0.00  0.00    +0.011 C 
BRANCH   3   4
ATOM      4  C   LIG    1       25.811 -14.213   4.113  0.00  0.00    +0.120 C 
BRANCH   4   6
ATOM      5  O   LIG    1       26.537 -14.262   1.815  0.00  0.00    -0.251 OA
ATOM      6  C   LIG    1       26.779 -13.992   2.980  0.00  0.00    +0.305 C 
BRANCH   6   7
ATOM      7  O   LIG    1       27.970 -13.498   3.380  0.00  0.00    -0.481 OA
ATOM      8  H   LIG    1       27.966 -13.132   4.284  0.00  0.00    +0.295 HD
ENDBRANCH   6   7
ENDBRANCH   4   6
ENDBRANCH   3   4
ENDBRANCH   2   3
ENDBRANCH   1   2
BRANCH   1   9
ATOM      9  C   LIG    1       22.307 -17.251   4.813  0.00  0.00    +0.000 C 
BRANCH   9  10
ATOM     10  C   LIG    1       22.245 -18.704   4.338  0.00  0.00    +0.011 C 
BRANCH  10  11
ATOM     11  C   LIG    1       22.659 -19.680   5.440  0.00  0.00    +0.120 C 
BRANCH  11  12
ATOM     12  C   LIG    1       23.818 -20.551   5.009  0.00  0.00    +0.305 C 
ATOM     13  O   LIG    1       24.969 -20.440   5.394  0.00  0.00    -0.251 OA
BRANCH  12  14
ATOM     14  O   LIG    1       23.441 -21.505   4.124  0.00  0.00    -0.481 OA
ATOM     15  H   LIG    1       23.963 -21.508   3.300  0.00  0.00    +0.295 HD
ENDBRANCH  12  14
ENDBRANCH  11  12
ENDBRANCH  10  11
ENDBRANCH   9  10
ENDBRANCH   1   9
TORSDOF 10
ENDMDL
MODEL 9
REMARK VINA RESULT:      -4.6      4.231      6.044
REMARK  Name = *****
REMARK                            x       y       z     vdW  Elec       q    Type
REMARK                         _______ _______ _______ _____ _____    ______ ____
ROOT
ATOM      1  C   LIG    1       25.207 -17.696   3.375  0.00  0.00    +0.000 C 
ENDROOT
BRANCH   1   2
ATOM      2  C   LIG    1       25.626 -19.131   3.699  0.00  0.00    +0.000 C 
BRANCH   2   3
ATOM      3  C   LIG    1       24.431 -20.083   3.632  0.00  0.00    +0.011 C 
BRANCH   3   4
ATOM      4  C   LIG    1       23.215 -19.498   4.338  0.00  0.00    +0.120 C 
BRANCH   4   6
ATOM      5  O   LIG    1       23.084 -20.399   6.570  0.00  0.00    -0.251 OA
ATOM      6  C   LIG    1       22.720 -20.439   5.406  0.00  0.00    +0.305 C 
BRANCH   6   7
ATOM      7  O   LIG    1       21.855 -21.368   4.946  0.00  0.00    -0.481 OA
ATOM      8  H   LIG    1       22.264 -22.043   4.373  0.00  0.00    +0.295 HD
ENDBRANCH   6   7
ENDBRANCH   4   6
ENDBRANCH   3   4
ENDBRANCH   2   3
ENDBRANCH   1   2
BRANCH   1   9
ATOM      9  C   LIG    1       26.407 -16.746   3.355  0.00  0.00    +0.000 C 
BRANCH   9  10
ATOM     10  C   LIG    1       25.955 -15.289   3.463  0.00  0.00    +0.011 C 
BRANCH  10  11
ATOM     11  C   LIG    1       26.976 -14.330   2.851  0.00  0.00    +0.120 C 
BRANCH  11  12
ATOM     12  C   LIG    1       27.805 -13.643   3.913  0.00  0.00    +0.305 C 
ATOM     13  O   LIG    1       28.924 -13.185   3.753  0.00  0.00    -0.251 OA
BRANCH  12  14
ATOM     14  O   LIG    1       27.164 -13.580   5.105  0.00  0.00    -0.481 OA
ATOM     15  H   LIG    1       27.390 -12.792   5.633  0.00  0.00    +0.295 HD
ENDBRANCH  12  14
ENDBRANCH  11  12
ENDBRANCH  10  11
ENDBRANCH   9  10
ENDBRANCH   1   9
TORSDOF 10
ENDMDL
