MODEL 1
REMARK VINA RESULT:      -5.4      0.000      0.000
REMARK  Name = *****
REMARK                            x       y       z     vdW  Elec       q    Type
REMARK                         _______ _______ _______ _____ _____    ______ ____
ROOT
ATOM      1  C   LIG    1       21.772 -31.277  11.200  0.00  0.00    +0.134 C 
ATOM      2  C   LIG    1       22.267 -30.149  10.271  0.00  0.00    +0.079 C 
ATOM      3  C   LIG    1       23.737 -30.316   9.860  0.00  0.00    +0.158 C 
ATOM      4  C   LIG    1       24.581 -30.409  11.120  0.00  0.00    +0.030 A 
ATOM      5  C   LIG    1       24.077 -30.987  12.307  0.00  0.00    +0.007 A 
ATOM      6  C   LIG    1       24.943 -31.141  13.404  0.00  0.00    +0.132 A 
ATOM      7  C   LIG    1       26.271 -30.679  13.371  0.00  0.00    +0.078 A 
ATOM      8  C   LIG    1       27.202 -30.891  14.494  0.00  0.00    +0.198 C 
ATOM      9  O   LIG    1       26.865 -31.524  15.498  0.00  0.00    -0.286 OA
ATOM     10  C   LIG    1       28.600 -30.441  14.391  0.00  0.00    +0.037 A 
ATOM     11  C   LIG    1       29.063 -29.756  13.262  0.00  0.00    +0.075 A 
ATOM     12  C   LIG    1       30.438 -29.455  13.158  0.00  0.00    +0.132 A 
ATOM     13  C   LIG    1       31.290 -29.751  14.232  0.00  0.00    +0.046 A 
ATOM     14  C   LIG    1       30.809 -30.389  15.372  0.00  0.00    +0.004 A 
ATOM     15  C   LIG    1       28.074 -29.383  12.234  0.00  0.00    +0.202 C 
ATOM     16  O   LIG    1       28.303 -28.522  11.376  0.00  0.00    -0.286 OA
ATOM     17  C   LIG    1       29.472 -30.750  15.442  0.00  0.00    +0.012 A 
ATOM     18  C   LIG    1       26.726 -29.997  12.244  0.00  0.00    +0.078 A 
ATOM     19  C   LIG    1       25.881 -29.872  11.127  0.00  0.00    +0.135 A 
ATOM     20  C   LIG    1       22.586 -31.259  12.499  0.00  0.00    +0.082 C 
ENDROOT
BRANCH   1  21
ATOM     21  O   LIG    1       21.915 -32.566  10.597  0.00  0.00    -0.381 OA
ATOM     22  H   LIG    1       22.223 -33.182  11.295  0.00  0.00    +0.211 HD
ENDBRANCH   1  21
BRANCH  19  23
ATOM     23  O   LIG    1       26.281 -29.193  10.002  0.00  0.00    -0.506 OA
ATOM     24  H   LIG    1       26.504 -28.266  10.255  0.00  0.00    +0.292 HD
ENDBRANCH  19  23
BRANCH   6  25
ATOM     25  O   LIG    1       24.421 -31.691  14.544  0.00  0.00    -0.506 OA
ATOM     26  H   LIG    1       25.021 -31.477  15.281  0.00  0.00    +0.292 HD
ENDBRANCH   6  25
BRANCH  12  27
ATOM     27  O   LIG    1       30.911 -28.887  12.000  0.00  0.00    -0.494 OA
ATOM     28  C   LIG    1       32.323 -28.969  11.798  0.00  0.00    +0.277 C 
ENDBRANCH  12  27
BRANCH   1  29
ATOM     29  C   LIG    1       20.273 -31.024  11.505  0.00  0.00    +0.202 C 
ATOM     30  O   LIG    1       19.423 -31.046  10.605  0.00  0.00    -0.291 OA
BRANCH  29  31
ATOM     31  C   LIG    1       19.880 -30.739  12.952  0.00  0.00    +0.309 C 
BRANCH  31  32
ATOM     32  O   LIG    1       19.211 -29.469  13.021  0.00  0.00    -0.457 OA
BRANCH  32  33
ATOM     33  C   LIG    1       19.525 -28.645  14.018  0.00  0.00    +0.307 C 
ATOM     34  O   LIG    1       18.702 -28.034  14.694  0.00  0.00    -0.251 OA
BRANCH  33  35
ATOM     35  C   LIG    1       21.004 -28.531  14.195  0.00  0.00    +0.120 C 
BRANCH  35  36
ATOM     36  C   LIG    1       21.697 -27.680  13.106  0.00  0.00    +0.011 C 
BRANCH  36  38
ATOM     37  C   LIG    1       24.202 -27.226  13.280  0.00  0.00    +0.004 C 
ATOM     38  C   LIG    1       22.801 -26.797  13.698  0.00  0.00    -0.003 C 
ENDBRANCH  36  38
ENDBRANCH  35  36
ENDBRANCH  33  35
ENDBRANCH  32  33
ENDBRANCH  31  32
ENDBRANCH  29  31
ENDBRANCH   1  29
BRANCH   3  39
ATOM     39  O   LIG    1       23.825 -31.514   9.064  0.00  0.00    -0.343 OA
BRANCH  39  40
ATOM     40  C   LIG    1       24.028 -31.321   7.649  0.00  0.00    +0.253 C 
ATOM     41  O   LIG    1       24.518 -32.491   6.990  0.00  0.00    -0.346 OA
ATOM     42  C   LIG    1       24.583 -32.263   5.569  0.00  0.00    +0.148 C 
ATOM     43  C   LIG    1       24.769 -33.606   4.854  0.00  0.00    +0.040 C 
ATOM     44  C   LIG    1       25.758 -31.318   5.285  0.00  0.00    +0.163 C 
ATOM     45  C   LIG    1       25.760 -30.051   6.170  0.00  0.00    +0.109 C 
ATOM     46  C   LIG    1       25.061 -30.192   7.531  0.00  0.00    +0.086 C 
BRANCH  45  47
ATOM     47  N   LIG    1       25.431 -28.806   5.468  0.00  0.00    -0.302 N 
ATOM     48  H   LIG    1       25.038 -28.896   4.533  0.00  0.00    +0.149 HD
ATOM     49  C   LIG    1       25.672 -27.516   5.920  0.00  0.00    +0.318 C 
ATOM     50  O   LIG    1       26.185 -27.306   7.018  0.00  0.00    -0.266 OA
BRANCH  49  51
ATOM     51  C   LIG    1       25.288 -26.408   4.896  0.00  0.00    +0.469 C 
ATOM     52  F   LIG    1       25.655 -25.167   5.318  0.00  0.00    -0.162 F 
ATOM     53  F   LIG    1       23.957 -26.361   4.629  0.00  0.00    -0.162 F 
ATOM     54  F   LIG    1       25.918 -26.597   3.698  0.00  0.00    -0.162 F 
ENDBRANCH  49  51
ENDBRANCH  45  47
BRANCH  44  55
ATOM     55  O   LIG    1       26.999 -32.017   5.529  0.00  0.00    -0.387 OA
ATOM     56  H   LIG    1       26.768 -32.848   5.990  0.00  0.00    +0.210 HD
ENDBRANCH  44  55
ENDBRANCH  39  40
ENDBRANCH   3  39
TORSDOF 16
ENDMDL
MODEL 2
REMARK VINA RESULT:      -5.2      4.019      7.282
REMARK  Name = *****
REMARK                            x       y       z     vdW  Elec       q    Type
REMARK                         _______ _______ _______ _____ _____    ______ ____
ROOT
ATOM      1  C   LIG    1       21.633 -31.328  13.238  0.00  0.00    +0.134 C 
ATOM      2  C   LIG    1       23.078 -31.550  13.733  0.00  0.00    +0.079 C 
ATOM      3  C   LIG    1       24.133 -31.022  12.751  0.00  0.00    +0.158 C 
ATOM      4  C   LIG    1       23.902 -31.677  11.399  0.00  0.00    +0.030 A 
ATOM      5  C   LIG    1       22.607 -32.041  10.966  0.00  0.00    +0.007 A 
ATOM      6  C   LIG    1       22.447 -32.543   9.662  0.00  0.00    +0.132 A 
ATOM      7  C   LIG    1       23.545 -32.750   8.807  0.00  0.00    +0.078 A 
ATOM      8  C   LIG    1       23.380 -33.218   7.420  0.00  0.00    +0.198 C 
ATOM      9  O   LIG    1       22.262 -33.409   6.934  0.00  0.00    -0.286 OA
ATOM     10  C   LIG    1       24.554 -33.366   6.544  0.00  0.00    +0.037 A 
ATOM     11  C   LIG    1       25.849 -33.123   7.015  0.00  0.00    +0.075 A 
ATOM     12  C   LIG    1       26.928 -33.158   6.107  0.00  0.00    +0.132 A 
ATOM     13  C   LIG    1       26.695 -33.539   4.777  0.00  0.00    +0.046 A 
ATOM     14  C   LIG    1       25.408 -33.825   4.329  0.00  0.00    +0.004 A 
ATOM     15  C   LIG    1       26.013 -32.844   8.454  0.00  0.00    +0.202 C 
ATOM     16  O   LIG    1       27.106 -32.932   9.026  0.00  0.00    -0.286 OA
ATOM     17  C   LIG    1       24.339 -33.719   5.205  0.00  0.00    +0.012 A 
ATOM     18  C   LIG    1       24.832 -32.508   9.283  0.00  0.00    +0.078 A 
ATOM     19  C   LIG    1       25.001 -31.970  10.571  0.00  0.00    +0.135 A 
ATOM     20  C   LIG    1       21.422 -32.096  11.928  0.00  0.00    +0.082 C 
ENDROOT
BRANCH   1  21
ATOM     21  O   LIG    1       21.357 -29.946  12.999  0.00  0.00    -0.381 OA
ATOM     22  H   LIG    1       20.384 -29.834  13.019  0.00  0.00    +0.211 HD
ENDBRANCH   1  21
BRANCH  19  23
ATOM     23  O   LIG    1       26.251 -31.731  11.087  0.00  0.00    -0.506 OA
ATOM     24  H   LIG    1       26.405 -32.352  11.838  0.00  0.00    +0.292 HD
ENDBRANCH  19  23
BRANCH   6  25
ATOM     25  O   LIG    1       21.183 -32.901   9.276  0.00  0.00    -0.506 OA
ATOM     26  H   LIG    1       20.551 -32.375   9.798  0.00  0.00    +0.292 HD
ENDBRANCH   6  25
BRANCH  12  27
ATOM     27  O   LIG    1       28.182 -32.808   6.545  0.00  0.00    -0.494 OA
ATOM     28  C   LIG    1       29.216 -33.763   6.303  0.00  0.00    +0.277 C 
ENDBRANCH  12  27
BRANCH   1  29
ATOM     29  C   LIG    1       20.666 -31.857  14.329  0.00  0.00    +0.202 C 
ATOM     30  O   LIG    1       20.606 -33.062  14.603  0.00  0.00    -0.291 OA
BRANCH  29  31
ATOM     31  C   LIG    1       19.783 -30.841  15.050  0.00  0.00    +0.309 C 
BRANCH  31  32
ATOM     32  O   LIG    1       18.805 -30.326  14.131  0.00  0.00    -0.457 OA
BRANCH  32  33
ATOM     33  C   LIG    1       18.186 -29.189  14.441  0.00  0.00    +0.307 C 
ATOM     34  O   LIG    1       17.010 -28.951  14.184  0.00  0.00    -0.251 OA
BRANCH  33  35
ATOM     35  C   LIG    1       19.108 -28.225  15.114  0.00  0.00    +0.120 C 
BRANCH  35  36
ATOM     36  C   LIG    1       19.172 -26.842  14.425  0.00  0.00    +0.011 C 
BRANCH  36  38
ATOM     37  C   LIG    1       21.482 -26.485  13.402  0.00  0.00    +0.004 C 
ATOM     38  C   LIG    1       20.032 -26.883  13.158  0.00  0.00    -0.003 C 
ENDBRANCH  36  38
ENDBRANCH  35  36
ENDBRANCH  33  35
ENDBRANCH  32  33
ENDBRANCH  31  32
ENDBRANCH  29  31
ENDBRANCH   1  29
BRANCH   3  39
ATOM     39  O   LIG    1       23.980 -29.590  12.687  0.00  0.00    -0.343 OA
BRANCH  39  40
ATOM     40  C   LIG    1       24.921 -28.818  13.460  0.00  0.00    +0.253 C 
ATOM     41  O   LIG    1       24.616 -27.422  13.481  0.00  0.00    -0.346 OA
ATOM     42  C   LIG    1       25.523 -26.733  14.364  0.00  0.00    +0.148 C 
ATOM     43  C   LIG    1       24.979 -25.329  14.645  0.00  0.00    +0.040 C 
ATOM     44  C   LIG    1       26.899 -26.668  13.687  0.00  0.00    +0.163 C 
ATOM     45  C   LIG    1       27.388 -28.033  13.151  0.00  0.00    +0.109 C 
ATOM     46  C   LIG    1       26.285 -29.038  12.791  0.00  0.00    +0.086 C 
BRANCH  45  47
ATOM     47  N   LIG    1       28.503 -28.627  13.897  0.00  0.00    -0.302 N 
ATOM     48  H   LIG    1       28.560 -28.407  14.890  0.00  0.00    +0.149 HD
ATOM     49  C   LIG    1       29.529 -29.398  13.371  0.00  0.00    +0.318 C 
ATOM     50  O   LIG    1       29.573 -29.680  12.174  0.00  0.00    -0.266 OA
BRANCH  49  51
ATOM     51  C   LIG    1       30.612 -29.802  14.414  0.00  0.00    +0.469 C 
ATOM     52  F   LIG    1       31.563 -30.617  13.881  0.00  0.00    -0.162 F 
ATOM     53  F   LIG    1       30.101 -30.442  15.498  0.00  0.00    -0.162 F 
ATOM     54  F   LIG    1       31.280 -28.708  14.889  0.00  0.00    -0.162 F 
ENDBRANCH  49  51
ENDBRANCH  45  47
BRANCH  44  55
ATOM     55  O   LIG    1       26.834 -25.761  12.565  0.00  0.00    -0.387 OA
ATOM     56  H   LIG    1       27.224 -24.915  12.863  0.00  0.00    +0.210 HD
ENDBRANCH  44  55
ENDBRANCH  39  40
ENDBRANCH   3  39
TORSDOF 16
ENDMDL
MODEL 3
REMARK VINA RESULT:      -3.2      7.153     11.186
REMARK  Name = *****
REMARK                            x       y       z     vdW  Elec       q    Type
REMARK                         _______ _______ _______ _____ _____    ______ ____
ROOT
ATOM      1  C   LIG    1       24.700 -21.721   5.713  0.00  0.00    +0.134 C 
ATOM      2  C   LIG    1       25.104 -21.710   7.203  0.00  0.00    +0.079 C 
ATOM      3  C   LIG    1       26.179 -22.755   7.538  0.00  0.00    +0.158 C 
ATOM      4  C   LIG    1       25.670 -24.121   7.110  0.00  0.00    +0.030 A 
ATOM      5  C   LIG    1       24.812 -24.276   5.998  0.00  0.00    +0.007 A 
ATOM      6  C   LIG    1       24.465 -25.576   5.588  0.00  0.00    +0.132 A 
ATOM      7  C   LIG    1       24.896 -26.715   6.291  0.00  0.00    +0.078 A 
ATOM      8  C   LIG    1       24.587 -28.081   5.834  0.00  0.00    +0.198 C 
ATOM      9  O   LIG    1       23.970 -28.284   4.785  0.00  0.00    -0.286 OA
ATOM     10  C   LIG    1       25.108 -29.244   6.571  0.00  0.00    +0.037 A 
ATOM     11  C   LIG    1       25.855 -29.088   7.744  0.00  0.00    +0.075 A 
ATOM     12  C   LIG    1       26.436 -30.225   8.345  0.00  0.00    +0.132 A 
ATOM     13  C   LIG    1       26.166 -31.496   7.817  0.00  0.00    +0.046 A 
ATOM     14  C   LIG    1       25.382 -31.644   6.676  0.00  0.00    +0.004 A 
ATOM     15  C   LIG    1       25.991 -27.726   8.293  0.00  0.00    +0.202 C 
ATOM     16  O   LIG    1       26.341 -27.513   9.460  0.00  0.00    -0.286 OA
ATOM     17  C   LIG    1       24.872 -30.521   6.044  0.00  0.00    +0.012 A 
ATOM     18  C   LIG    1       25.638 -26.552   7.460  0.00  0.00    +0.078 A 
ATOM     19  C   LIG    1       26.023 -25.260   7.857  0.00  0.00    +0.135 A 
ATOM     20  C   LIG    1       24.097 -23.086   5.362  0.00  0.00    +0.082 C 
ENDROOT
BRANCH   1  21
ATOM     21  O   LIG    1       25.820 -21.489   4.855  0.00  0.00    -0.381 OA
ATOM     22  H   LIG    1       26.378 -20.805   5.281  0.00  0.00    +0.211 HD
ENDBRANCH   1  21
BRANCH  19  23
ATOM     23  O   LIG    1       26.740 -25.051   9.010  0.00  0.00    -0.506 OA
ATOM     24  H   LIG    1       27.679 -25.304   8.848  0.00  0.00    +0.292 HD
ENDBRANCH  19  23
BRANCH   6  25
ATOM     25  O   LIG    1       23.621 -25.693   4.517  0.00  0.00    -0.506 OA
ATOM     26  H   LIG    1       23.601 -24.835   4.056  0.00  0.00    +0.292 HD
ENDBRANCH   6  25
BRANCH  12  27
ATOM     27  O   LIG    1       27.263 -30.058   9.430  0.00  0.00    -0.494 OA
ATOM     28  C   LIG    1       26.759 -30.540  10.677  0.00  0.00    +0.277 C 
ENDBRANCH  12  27
BRANCH   1  29
ATOM     29  C   LIG    1       23.652 -20.600   5.493  0.00  0.00    +0.202 C 
ATOM     30  O   LIG    1       22.893 -20.244   6.404  0.00  0.00    -0.291 OA
BRANCH  29  31
ATOM     31  C   LIG    1       23.581 -19.955   4.111  0.00  0.00    +0.309 C 
BRANCH  31  32
ATOM     32  O   LIG    1       23.528 -18.526   4.257  0.00  0.00    -0.457 OA
BRANCH  32  33
ATOM     33  C   LIG    1       22.335 -17.936   4.253  0.00  0.00    +0.307 C 
ATOM     34  O   LIG    1       21.289 -18.495   3.939  0.00  0.00    -0.251 OA
BRANCH  33  35
ATOM     35  C   LIG    1       22.430 -16.499   4.650  0.00  0.00    +0.120 C 
BRANCH  35  36
ATOM     36  C   LIG    1       23.761 -15.827   4.240  0.00  0.00    +0.011 C 
BRANCH  36  38
ATOM     37  C   LIG    1       24.974 -13.593   4.018  0.00  0.00    +0.004 C 
ATOM     38  C   LIG    1       23.642 -14.298   4.237  0.00  0.00    -0.003 C 
ENDBRANCH  36  38
ENDBRANCH  35  36
ENDBRANCH  33  35
ENDBRANCH  32  33
ENDBRANCH  31  32
ENDBRANCH  29  31
ENDBRANCH   1  29
BRANCH   3  39
ATOM     39  O   LIG    1       27.376 -22.380   6.828  0.00  0.00    -0.343 OA
BRANCH  39  40
ATOM     40  C   LIG    1       27.806 -21.013   6.989  0.00  0.00    +0.253 C 
ATOM     41  O   LIG    1       27.940 -20.319   5.746  0.00  0.00    -0.346 OA
ATOM     42  C   LIG    1       28.255 -18.934   5.988  0.00  0.00    +0.148 C 
ATOM     43  C   LIG    1       28.055 -18.141   4.693  0.00  0.00    +0.040 C 
ATOM     44  C   LIG    1       29.710 -18.847   6.470  0.00  0.00    +0.163 C 
ATOM     45  C   LIG    1       30.038 -19.823   7.623  0.00  0.00    +0.109 C 
ATOM     46  C   LIG    1       29.171 -21.089   7.687  0.00  0.00    +0.086 C 
BRANCH  45  47
ATOM     47  N   LIG    1       30.247 -19.189   8.929  0.00  0.00    -0.302 N 
ATOM     48  H   LIG    1       29.619 -19.467   9.681  0.00  0.00    +0.149 HD
ATOM     49  C   LIG    1       31.168 -18.194   9.224  0.00  0.00    +0.318 C 
ATOM     50  O   LIG    1       31.940 -17.759   8.371  0.00  0.00    -0.266 OA
BRANCH  49  51
ATOM     51  C   LIG    1       31.077 -17.666  10.685  0.00  0.00    +0.469 C 
ATOM     52  F   LIG    1       32.304 -17.410  11.219  0.00  0.00    -0.162 F 
ATOM     53  F   LIG    1       30.447 -18.524  11.529  0.00  0.00    -0.162 F 
ATOM     54  F   LIG    1       30.389 -16.486  10.748  0.00  0.00    -0.162 F 
ENDBRANCH  49  51
ENDBRANCH  45  47
BRANCH  44  55
ATOM     55  O   LIG    1       30.593 -19.163   5.372  0.00  0.00    -0.387 OA
ATOM     56  H   LIG    1       31.502 -19.170   5.734  0.00  0.00    +0.210 HD
ENDBRANCH  44  55
ENDBRANCH  39  40
ENDBRANCH   3  39
TORSDOF 16
ENDMDL
MODEL 4
REMARK VINA RESULT:      -2.7      8.642     13.610
REMARK  Name = *****
REMARK                            x       y       z     vdW  Elec       q    Type
REMARK                         _______ _______ _______ _____ _____    ______ ____
ROOT
ATOM      1  C   LIG    1       24.560 -22.832   6.744  0.00  0.00    +0.134 C 
ATOM      2  C   LIG    1       25.813 -22.881   5.845  0.00  0.00    +0.079 C 
ATOM      3  C   LIG    1       26.596 -21.560   5.840  0.00  0.00    +0.158 C 
ATOM      4  C   LIG    1       25.654 -20.445   5.418  0.00  0.00    +0.030 A 
ATOM      5  C   LIG    1       24.276 -20.484   5.729  0.00  0.00    +0.007 A 
ATOM      6  C   LIG    1       23.479 -19.372   5.407  0.00  0.00    +0.132 A 
ATOM      7  C   LIG    1       24.002 -18.256   4.730  0.00  0.00    +0.078 A 
ATOM      8  C   LIG    1       23.188 -17.061   4.443  0.00  0.00    +0.198 C 
ATOM      9  O   LIG    1       22.018 -16.974   4.823  0.00  0.00    -0.286 OA
ATOM     10  C   LIG    1       23.795 -15.893   3.783  0.00  0.00    +0.037 A 
ATOM     11  C   LIG    1       25.130 -15.906   3.364  0.00  0.00    +0.075 A 
ATOM     12  C   LIG    1       25.699 -14.721   2.850  0.00  0.00    +0.132 A 
ATOM     13  C   LIG    1       24.889 -13.591   2.670  0.00  0.00    +0.046 A 
ATOM     14  C   LIG    1       23.548 -13.604   3.046  0.00  0.00    +0.004 A 
ATOM     15  C   LIG    1       25.873 -17.173   3.484  0.00  0.00    +0.202 C 
ATOM     16  O   LIG    1       26.924 -17.386   2.868  0.00  0.00    -0.286 OA
ATOM     17  C   LIG    1       23.009 -14.745   3.619  0.00  0.00    +0.012 A 
ATOM     18  C   LIG    1       25.332 -18.275   4.314  0.00  0.00    +0.078 A 
ATOM     19  C   LIG    1       26.148 -19.365   4.665  0.00  0.00    +0.135 A 
ATOM     20  C   LIG    1       23.596 -21.764   6.213  0.00  0.00    +0.082 C 
ENDROOT
BRANCH   1  21
ATOM     21  O   LIG    1       24.886 -22.509   8.099  0.00  0.00    -0.381 OA
ATOM     22  H   LIG    1       25.686 -21.943   8.079  0.00  0.00    +0.211 HD
ENDBRANCH   1  21
BRANCH  19  23
ATOM     23  O   LIG    1       27.460 -19.434   4.263  0.00  0.00    -0.506 OA
ATOM     24  H   LIG    1       27.668 -18.631   3.728  0.00  0.00    +0.292 HD
ENDBRANCH  19  23
BRANCH   6  25
ATOM     25  O   LIG    1       22.145 -19.446   5.706  0.00  0.00    -0.506 OA
ATOM     26  H   LIG    1       22.062 -19.726   6.635  0.00  0.00    +0.292 HD
ENDBRANCH   6  25
BRANCH  12  27
ATOM     27  O   LIG    1       27.039 -14.701   2.546  0.00  0.00    -0.494 OA
ATOM     28  C   LIG    1       27.874 -13.988   3.460  0.00  0.00    +0.277 C 
ENDBRANCH  12  27
BRANCH   1  29
ATOM     29  C   LIG    1       23.885 -24.228   6.704  0.00  0.00    +0.202 C 
ATOM     30  O   LIG    1       22.653 -24.344   6.678  0.00  0.00    -0.291 OA
BRANCH  29  31
ATOM     31  C   LIG    1       24.792 -25.456   6.707  0.00  0.00    +0.309 C 
BRANCH  31  32
ATOM     32  O   LIG    1       24.360 -26.367   5.683  0.00  0.00    -0.457 OA
BRANCH  32  33
ATOM     33  C   LIG    1       25.274 -27.140   5.101  0.00  0.00    +0.307 C 
ATOM     34  O   LIG    1       26.362 -26.740   4.698  0.00  0.00    -0.251 OA
BRANCH  33  35
ATOM     35  C   LIG    1       24.799 -28.551   4.970  0.00  0.00    +0.120 C 
BRANCH  35  36
ATOM     36  C   LIG    1       23.991 -29.052   6.189  0.00  0.00    +0.011 C 
BRANCH  36  38
ATOM     37  C   LIG    1       24.208 -29.908   8.583  0.00  0.00    +0.004 C 
ATOM     38  C   LIG    1       24.901 -29.692   7.244  0.00  0.00    -0.003 C 
ENDBRANCH  36  38
ENDBRANCH  35  36
ENDBRANCH  33  35
ENDBRANCH  32  33
ENDBRANCH  31  32
ENDBRANCH  29  31
ENDBRANCH   1  29
BRANCH   3  39
ATOM     39  O   LIG    1       27.105 -21.359   7.172  0.00  0.00    -0.343 OA
BRANCH  39  40
ATOM     40  C   LIG    1       28.008 -20.247   7.344  0.00  0.00    +0.253 C 
ATOM     41  O   LIG    1       28.723 -19.917   6.150  0.00  0.00    -0.346 OA
ATOM     42  C   LIG    1       29.512 -18.731   6.362  0.00  0.00    +0.148 C 
ATOM     43  C   LIG    1       29.987 -18.197   5.006  0.00  0.00    +0.040 C 
ATOM     44  C   LIG    1       30.701 -19.095   7.260  0.00  0.00    +0.163 C 
ATOM     45  C   LIG    1       30.297 -19.871   8.535  0.00  0.00    +0.109 C 
ATOM     46  C   LIG    1       28.997 -20.683   8.433  0.00  0.00    +0.086 C 
BRANCH  45  47
ATOM     47  N   LIG    1       30.417 -19.111   9.785  0.00  0.00    -0.302 N 
ATOM     48  H   LIG    1       29.670 -19.227  10.466  0.00  0.00    +0.149 HD
ATOM     49  C   LIG    1       31.410 -18.194  10.099  0.00  0.00    +0.318 C 
ATOM     50  O   LIG    1       32.331 -17.952   9.321  0.00  0.00    -0.266 OA
BRANCH  49  51
ATOM     51  C   LIG    1       31.202 -17.488  11.471  0.00  0.00    +0.469 C 
ATOM     52  F   LIG    1       32.272 -16.724  11.825  0.00  0.00    -0.162 F 
ATOM     53  F   LIG    1       30.976 -18.355  12.492  0.00  0.00    -0.162 F 
ATOM     54  F   LIG    1       30.131 -16.639  11.438  0.00  0.00    -0.162 F 
ENDBRANCH  49  51
ENDBRANCH  45  47
BRANCH  44  55
ATOM     55  O   LIG    1       31.617 -19.931   6.519  0.00  0.00    -0.387 OA
ATOM     56  H   LIG    1       32.276 -20.265   7.160  0.00  0.00    +0.210 HD
ENDBRANCH  44  55
ENDBRANCH  39  40
ENDBRANCH   3  39
TORSDOF 16
ENDMDL
MODEL 5
REMARK VINA RESULT:      -2.5      6.615     10.752
REMARK  Name = *****
REMARK                            x       y       z     vdW  Elec       q    Type
REMARK                         _______ _______ _______ _____ _____    ______ ____
ROOT
ATOM      1  C   LIG    1       24.486 -22.198   6.099  0.00  0.00    +0.134 C 
ATOM      2  C   LIG    1       24.988 -22.266   7.557  0.00  0.00    +0.079 C 
ATOM      3  C   LIG    1       26.088 -23.318   7.760  0.00  0.00    +0.158 C 
ATOM      4  C   LIG    1       25.560 -24.663   7.290  0.00  0.00    +0.030 A 
ATOM      5  C   LIG    1       24.631 -24.763   6.230  0.00  0.00    +0.007 A 
ATOM      6  C   LIG    1       24.265 -26.041   5.771  0.00  0.00    +0.132 A 
ATOM      7  C   LIG    1       24.748 -27.214   6.378  0.00  0.00    +0.078 A 
ATOM      8  C   LIG    1       24.417 -28.555   5.865  0.00  0.00    +0.198 C 
ATOM      9  O   LIG    1       23.733 -28.704   4.850  0.00  0.00    -0.286 OA
ATOM     10  C   LIG    1       24.993 -29.753   6.499  0.00  0.00    +0.037 A 
ATOM     11  C   LIG    1       25.815 -29.655   7.628  0.00  0.00    +0.075 A 
ATOM     12  C   LIG    1       26.441 -30.819   8.124  0.00  0.00    +0.132 A 
ATOM     13  C   LIG    1       26.143 -32.060   7.543  0.00  0.00    +0.046 A 
ATOM     14  C   LIG    1       25.286 -32.152   6.450  0.00  0.00    +0.004 A 
ATOM     15  C   LIG    1       25.979 -28.325   8.243  0.00  0.00    +0.202 C 
ATOM     16  O   LIG    1       26.405 -28.175   9.394  0.00  0.00    -0.286 OA
ATOM     17  C   LIG    1       24.729 -31.000   5.918  0.00  0.00    +0.012 A 
ATOM     18  C   LIG    1       25.565 -27.110   7.503  0.00  0.00    +0.078 A 
ATOM     19  C   LIG    1       25.969 -25.838   7.946  0.00  0.00    +0.135 A 
ATOM     20  C   LIG    1       23.868 -23.546   5.711  0.00  0.00    +0.082 C 
ENDROOT
BRANCH   1  21
ATOM     21  O   LIG    1       25.545 -21.907   5.183  0.00  0.00    -0.381 OA
ATOM     22  H   LIG    1       25.209 -21.239   4.551  0.00  0.00    +0.211 HD
ENDBRANCH   1  21
BRANCH  19  23
ATOM     23  O   LIG    1       26.759 -25.688   9.060  0.00  0.00    -0.506 OA
ATOM     24  H   LIG    1       27.469 -26.372   9.037  0.00  0.00    +0.292 HD
ENDBRANCH  19  23
BRANCH   6  25
ATOM     25  O   LIG    1       23.352 -26.106   4.753  0.00  0.00    -0.506 OA
ATOM     26  H   LIG    1       22.464 -26.155   5.150  0.00  0.00    +0.292 HD
ENDBRANCH   6  25
BRANCH  12  27
ATOM     27  O   LIG    1       27.337 -30.706   9.159  0.00  0.00    -0.494 OA
ATOM     28  C   LIG    1       26.894 -31.202  10.423  0.00  0.00    +0.277 C 
ENDBRANCH  12  27
BRANCH   1  29
ATOM     29  C   LIG    1       23.419 -21.076   6.012  0.00  0.00    +0.202 C 
ATOM     30  O   LIG    1       23.166 -20.355   6.986  0.00  0.00    -0.291 OA
BRANCH  29  31
ATOM     31  C   LIG    1       22.684 -20.895   4.686  0.00  0.00    +0.309 C 
BRANCH  31  32
ATOM     32  O   LIG    1       23.525 -20.172   3.772  0.00  0.00    -0.457 OA
BRANCH  32  33
ATOM     33  C   LIG    1       23.546 -18.844   3.850  0.00  0.00    +0.307 C 
ATOM     34  O   LIG    1       24.501 -18.147   3.522  0.00  0.00    -0.251 OA
BRANCH  33  35
ATOM     35  C   LIG    1       22.272 -18.305   4.416  0.00  0.00    +0.120 C 
BRANCH  35  36
ATOM     36  C   LIG    1       21.258 -17.847   3.342  0.00  0.00    +0.011 C 
BRANCH  36  38
ATOM     37  C   LIG    1       18.903 -18.210   2.430  0.00  0.00    +0.004 C 
ATOM     38  C   LIG    1       20.015 -18.743   3.324  0.00  0.00    -0.003 C 
ENDBRANCH  36  38
ENDBRANCH  35  36
ENDBRANCH  33  35
ENDBRANCH  32  33
ENDBRANCH  31  32
ENDBRANCH  29  31
ENDBRANCH   1  29
BRANCH   3  39
ATOM     39  O   LIG    1       27.233 -22.893   6.996  0.00  0.00    -0.343 OA
BRANCH  39  40
ATOM     40  C   LIG    1       27.579 -21.497   7.097  0.00  0.00    +0.253 C 
ATOM     41  O   LIG    1       27.601 -20.832   5.831  0.00  0.00    -0.346 OA
ATOM     42  C   LIG    1       27.836 -19.424   6.019  0.00  0.00    +0.148 C 
ATOM     43  C   LIG    1       27.513 -18.683   4.716  0.00  0.00    +0.040 C 
ATOM     44  C   LIG    1       29.305 -19.228   6.417  0.00  0.00    +0.163 C 
ATOM     45  C   LIG    1       29.758 -20.146   7.575  0.00  0.00    +0.109 C 
ATOM     46  C   LIG    1       28.982 -21.463   7.720  0.00  0.00    +0.086 C 
BRANCH  45  47
ATOM     47  N   LIG    1       29.995 -19.461   8.851  0.00  0.00    -0.302 N 
ATOM     48  H   LIG    1       29.364 -19.687   9.617  0.00  0.00    +0.149 HD
ATOM     49  C   LIG    1       30.945 -18.481   9.096  0.00  0.00    +0.318 C 
ATOM     50  O   LIG    1       31.724 -18.108   8.220  0.00  0.00    -0.266 OA
BRANCH  49  51
ATOM     51  C   LIG    1       30.880 -17.886  10.533  0.00  0.00    +0.469 C 
ATOM     52  F   LIG    1       30.438 -18.794  11.447  0.00  0.00    -0.162 F 
ATOM     53  F   LIG    1       30.071 -16.799  10.628  0.00  0.00    -0.162 F 
ATOM     54  F   LIG    1       32.115 -17.490  10.966  0.00  0.00    -0.162 F 
ENDBRANCH  49  51
ENDBRANCH  45  47
BRANCH  44  55
ATOM     55  O   LIG    1       30.147 -19.518   5.280  0.00  0.00    -0.387 OA
ATOM     56  H   LIG    1       30.865 -20.099   5.602  0.00  0.00    +0.210 HD
ENDBRANCH  44  55
ENDBRANCH  39  40
ENDBRANCH   3  39
TORSDOF 16
ENDMDL
