MODEL 1
REMARK VINA RESULT:      24.9      0.000      0.000
REMARK  Name = *****
REMARK                            x       y       z     vdW  Elec       q    Type
REMARK                         _______ _______ _______ _____ _____    ______ ____
ROOT
ATOM      1  C   LIG    1       23.827 -18.163   3.848  0.00  0.00    +0.165 C 
ATOM      2  C   LIG    1       24.005 -16.610   3.628  0.00  0.00    +0.012 C 
ATOM      3  C   LIG    1       25.091 -16.421   2.562  0.00  0.00    +0.015 C 
ATOM      4  C   LIG    1       24.366 -16.109   5.055  0.00  0.00    +0.007 C 
ATOM      5  C   LIG    1       23.983 -14.648   5.413  0.00  0.00    +0.034 C 
ATOM      6  C   LIG    1       23.939 -13.664   4.223  0.00  0.00    +0.153 C 
ATOM      7  F   LIG    1       23.184 -12.599   4.751  0.00  0.00    -0.238 F 
ATOM      8  C   LIG    1       22.966 -14.254   3.144  0.00  0.00    +0.154 C 
ATOM      9  C   LIG    1       25.344 -12.968   3.848  0.00  0.00    +0.044 C 
ATOM     10  C   LIG    1       25.095 -11.461   3.541  0.00  0.00    +0.023 C 
ATOM     11  C   LIG    1       26.273 -13.034   5.076  0.00  0.00    -0.053 C 
ATOM     12  C   LIG    1       27.591 -13.304   5.021  0.00  0.00    +0.051 C 
ATOM     13  C   LIG    1       28.267 -13.603   3.744  0.00  0.00    +0.179 C 
ATOM     14  O   LIG    1       29.475 -13.787   3.688  0.00  0.00    -0.288 OA
ATOM     15  C   LIG    1       27.413 -13.698   2.547  0.00  0.00    +0.047 C 
ATOM     16  C   LIG    1       25.594 -12.891   6.406  0.00  0.00    +0.032 C 
ATOM     17  C   LIG    1       26.098 -13.429   2.608  0.00  0.00    -0.009 C 
ATOM     18  C   LIG    1       24.766 -14.145   6.651  0.00  0.00    +0.011 C 
ATOM     19  C   LIG    1       23.587 -17.053   6.021  0.00  0.00    +0.039 C 
ATOM     20  C   LIG    1       22.762 -15.807   3.159  0.00  0.00    +0.044 C 
ATOM     21  C   LIG    1       23.195 -18.288   5.229  0.00  0.00    +0.162 C 
ATOM     22  O   LIG    1       21.793 -18.355   4.961  0.00  0.00    -0.342 OA
ATOM     23  C   LIG    1       21.738 -19.088   3.736  0.00  0.00    +0.172 C 
ATOM     24  C   LIG    1       21.701 -20.596   4.003  0.00  0.00    +0.065 C 
ATOM     25  C   LIG    1       20.259 -20.872   4.418  0.00  0.00    +0.005 C 
ATOM     26  C   LIG    1       19.428 -19.733   3.822  0.00  0.00    +0.005 C 
ATOM     27  C   LIG    1       20.407 -18.869   3.028  0.00  0.00    +0.065 C 
ATOM     28  O   LIG    1       22.870 -18.729   2.945  0.00  0.00    -0.331 OA
ENDROOT
BRANCH   1  29
ATOM     29  C   LIG    1       25.161 -18.980   3.888  0.00  0.00    +0.205 C 
ATOM     30  O   LIG    1       26.219 -18.485   3.478  0.00  0.00    -0.291 OA
BRANCH  29  31
ATOM     31  C   LIG    1       25.124 -20.426   4.402  0.00  0.00    +0.309 C 
BRANCH  31  32
ATOM     32  O   LIG    1       26.377 -20.769   5.011  0.00  0.00    -0.457 OA
BRANCH  32  34
ATOM     33  C   LIG    1       25.062 -20.859   6.958  0.00  0.00    +0.136 C 
ATOM     34  C   LIG    1       26.425 -20.595   6.369  0.00  0.00    +0.304 C 
ATOM     35  O   LIG    1       27.380 -20.194   7.000  0.00  0.00    -0.251 OA
ENDBRANCH  32  34
ENDBRANCH  31  32
ENDBRANCH  29  31
ENDBRANCH   1  29
BRANCH   8  36
ATOM     36  O   LIG    1       23.221 -13.800   1.819  0.00  0.00    -0.389 OA
ATOM     37  H   LIG    1       23.189 -14.582   1.238  0.00  0.00    +0.210 HD
ENDBRANCH   8  36
TORSDOF 5
ENDMDL
MODEL 2
REMARK VINA RESULT:      25.3      2.087      6.946
REMARK  Name = *****
REMARK                            x       y       z     vdW  Elec       q    Type
REMARK                         _______ _______ _______ _____ _____    ______ ____
ROOT
ATOM      1  C   LIG    1       25.414 -15.258   4.097  0.00  0.00    +0.165 C 
ATOM      2  C   LIG    1       24.580 -16.563   4.401  0.00  0.00    +0.012 C 
ATOM      3  C   LIG    1       24.840 -16.941   5.864  0.00  0.00    +0.015 C 
ATOM      4  C   LIG    1       25.120 -17.562   3.340  0.00  0.00    +0.007 C 
ATOM      5  C   LIG    1       24.159 -18.684   2.865  0.00  0.00    +0.034 C 
ATOM      6  C   LIG    1       23.102 -19.132   3.898  0.00  0.00    +0.153 C 
ATOM      7  F   LIG    1       22.161 -19.796   3.087  0.00  0.00    -0.238 F 
ATOM      8  C   LIG    1       22.305 -17.862   4.357  0.00  0.00    +0.154 C 
ATOM      9  C   LIG    1       23.580 -20.283   4.923  0.00  0.00    +0.044 C 
ATOM     10  C   LIG    1       22.427 -21.317   5.094  0.00  0.00    +0.023 C 
ATOM     11  C   LIG    1       24.775 -21.032   4.302  0.00  0.00    -0.053 C 
ATOM     12  C   LIG    1       25.861 -21.435   4.988  0.00  0.00    +0.051 C 
ATOM     13  C   LIG    1       26.017 -21.151   6.427  0.00  0.00    +0.179 C 
ATOM     14  O   LIG    1       26.975 -21.571   7.062  0.00  0.00    -0.288 OA
ATOM     15  C   LIG    1       24.979 -20.313   7.055  0.00  0.00    +0.047 C 
ATOM     16  C   LIG    1       24.726 -21.202   2.812  0.00  0.00    +0.032 C 
ATOM     17  C   LIG    1       23.899 -19.913   6.365  0.00  0.00    -0.009 C 
ATOM     18  C   LIG    1       24.930 -19.836   2.174  0.00  0.00    +0.011 C 
ATOM     19  C   LIG    1       25.470 -16.681   2.102  0.00  0.00    +0.039 C 
ATOM     20  C   LIG    1       23.041 -16.486   4.219  0.00  0.00    +0.044 C 
ATOM     21  C   LIG    1       25.571 -15.245   2.581  0.00  0.00    +0.162 C 
ATOM     22  O   LIG    1       24.487 -14.430   2.131  0.00  0.00    -0.342 OA
ATOM     23  C   LIG    1       24.378 -13.446   3.161  0.00  0.00    +0.172 C 
ATOM     24  C   LIG    1       25.308 -12.261   2.886  0.00  0.00    +0.065 C 
ATOM     25  C   LIG    1       24.582 -11.451   1.816  0.00  0.00    +0.005 C 
ATOM     26  C   LIG    1       23.102 -11.815   1.949  0.00  0.00    +0.005 C 
ATOM     27  C   LIG    1       23.010 -12.776   3.134  0.00  0.00    +0.065 C 
ATOM     28  O   LIG    1       24.685 -14.066   4.409  0.00  0.00    -0.331 OA
ENDROOT
BRANCH   1  29
ATOM     29  C   LIG    1       26.859 -15.245   4.699  0.00  0.00    +0.205 C 
ATOM     30  O   LIG    1       27.627 -16.199   4.523  0.00  0.00    -0.291 OA
BRANCH  29  31
ATOM     31  C   LIG    1       27.289 -14.044   5.553  0.00  0.00    +0.309 C 
BRANCH  31  32
ATOM     32  O   LIG    1       28.646 -13.685   5.258  0.00  0.00    -0.457 OA
BRANCH  32  34
ATOM     33  C   LIG    1       28.303 -12.875   3.077  0.00  0.00    +0.136 C 
ATOM     34  C   LIG    1       28.791 -12.572   4.472  0.00  0.00    +0.304 C 
ATOM     35  O   LIG    1       29.317 -11.532   4.804  0.00  0.00    -0.251 OA
ENDBRANCH  32  34
ENDBRANCH  31  32
ENDBRANCH  29  31
ENDBRANCH   1  29
BRANCH   8  36
ATOM     36  O   LIG    1       21.711 -17.980   5.645  0.00  0.00    -0.389 OA
ATOM     37  H   LIG    1       20.745 -18.022   5.512  0.00  0.00    +0.210 HD
ENDBRANCH   8  36
TORSDOF 5
ENDMDL
