MODEL 1
REMARK VINA RESULT:       4.7      0.000      0.000
REMARK  Name = *****
REMARK                            x       y       z     vdW  Elec       q    Type
REMARK                         _______ _______ _______ _____ _____    ______ ____
ROOT
ATOM      1  C   LIG    1       25.820 -14.735   1.812  0.00  0.00    +0.015 C 
ATOM      2  C   LIG    1       25.947 -14.793   3.368  0.00  0.00    +0.012 C 
ATOM      3  C   LIG    1       26.305 -13.364   3.904  0.00  0.00    +0.157 C 
ATOM      4  C   LIG    1       24.931 -12.630   3.777  0.00  0.00    +0.154 C 
ATOM      5  C   LIG    1       23.831 -13.713   3.855  0.00  0.00    +0.039 C 
ATOM      6  C   LIG    1       24.591 -15.027   4.069  0.00  0.00    +0.007 C 
ATOM      7  C   LIG    1       23.931 -16.369   3.695  0.00  0.00    +0.034 C 
ATOM      8  C   LIG    1       22.559 -16.496   4.382  0.00  0.00    +0.011 C 
ATOM      9  C   LIG    1       21.927 -17.869   4.174  0.00  0.00    +0.032 C 
ATOM     10  C   LIG    1       22.877 -18.949   4.621  0.00  0.00    -0.053 C 
ATOM     11  C   LIG    1       24.250 -18.963   3.926  0.00  0.00    +0.044 C 
ATOM     12  C   LIG    1       24.030 -19.363   2.450  0.00  0.00    +0.023 C 
ATOM     13  C   LIG    1       25.149 -20.045   4.527  0.00  0.00    -0.009 C 
ATOM     14  C   LIG    1       24.804 -20.873   5.523  0.00  0.00    +0.047 C 
ATOM     15  C   LIG    1       23.466 -20.805   6.135  0.00  0.00    +0.179 C 
ATOM     16  O   LIG    1       23.137 -21.572   7.038  0.00  0.00    -0.288 OA
ATOM     17  C   LIG    1       22.533 -19.785   5.619  0.00  0.00    +0.051 C 
ATOM     18  C   LIG    1       24.899 -17.531   4.116  0.00  0.00    +0.153 C 
ATOM     19  F   LIG    1       25.089 -17.384   5.481  0.00  0.00    -0.238 F 
ATOM     20  C   LIG    1       26.319 -17.348   3.488  0.00  0.00    +0.154 C 
ATOM     21  C   LIG    1       26.914 -15.940   3.734  0.00  0.00    +0.044 C 
ENDROOT
BRANCH   3  22
ATOM     22  C   LIG    1       26.843 -13.292   5.370  0.00  0.00    +0.193 C 
ATOM     23  O   LIG    1       26.125 -13.337   6.374  0.00  0.00    -0.292 OA
BRANCH  22  24
ATOM     24  C   LIG    1       28.358 -13.163   5.550  0.00  0.00    +0.233 C 
BRANCH  24  25
ATOM     25  O   LIG    1       28.809 -11.815   5.505  0.00  0.00    -0.387 OA
ATOM     26  H   LIG    1       29.530 -11.793   4.843  0.00  0.00    +0.210 HD
ENDBRANCH  24  25
ENDBRANCH  22  24
ENDBRANCH   3  22
BRANCH   3  27
ATOM     27  O   LIG    1       27.269 -12.755   3.037  0.00  0.00    -0.378 OA
ATOM     28  H   LIG    1       27.374 -13.330   2.256  0.00  0.00    +0.211 HD
ENDBRANCH   3  27
BRANCH   4  29
ATOM     29  O   LIG    1       24.775 -11.603   4.741  0.00  0.00    -0.389 OA
ATOM     30  H   LIG    1       25.435 -10.910   4.553  0.00  0.00    +0.210 HD
ENDBRANCH   4  29
BRANCH  20  31
ATOM     31  O   LIG    1       26.331 -17.634   2.091  0.00  0.00    -0.389 OA
ATOM     32  H   LIG    1       25.424 -17.514   1.758  0.00  0.00    +0.210 HD
ENDBRANCH  20  31
TORSDOF 6
ENDMDL
MODEL 2
REMARK VINA RESULT:       7.2      1.698      6.733
REMARK  Name = *****
REMARK                            x       y       z     vdW  Elec       q    Type
REMARK                         _______ _______ _______ _____ _____    ______ ____
ROOT
ATOM      1  C   LIG    1       22.053 -17.985   2.937  0.00  0.00    +0.015 C 
ATOM      2  C   LIG    1       23.016 -18.185   4.151  0.00  0.00    +0.012 C 
ATOM      3  C   LIG    1       22.942 -19.679   4.619  0.00  0.00    +0.157 C 
ATOM      4  C   LIG    1       23.769 -20.396   3.504  0.00  0.00    +0.154 C 
ATOM      5  C   LIG    1       24.755 -19.353   2.931  0.00  0.00    +0.039 C 
ATOM      6  C   LIG    1       24.505 -18.085   3.756  0.00  0.00    +0.007 C 
ATOM      7  C   LIG    1       24.897 -16.708   3.187  0.00  0.00    +0.034 C 
ATOM      8  C   LIG    1       26.375 -16.710   2.757  0.00  0.00    +0.011 C 
ATOM      9  C   LIG    1       26.863 -15.329   2.332  0.00  0.00    +0.032 C 
ATOM     10  C   LIG    1       26.603 -14.328   3.427  0.00  0.00    -0.053 C 
ATOM     11  C   LIG    1       25.135 -14.184   3.868  0.00  0.00    +0.044 C 
ATOM     12  C   LIG    1       24.350 -13.547   2.700  0.00  0.00    +0.023 C 
ATOM     13  C   LIG    1       25.017 -13.208   5.039  0.00  0.00    -0.009 C 
ATOM     14  C   LIG    1       26.040 -12.561   5.615  0.00  0.00    +0.047 C 
ATOM     15  C   LIG    1       27.419 -12.744   5.132  0.00  0.00    +0.179 C 
ATOM     16  O   LIG    1       28.360 -12.142   5.644  0.00  0.00    -0.288 OA
ATOM     17  C   LIG    1       27.627 -13.673   4.005  0.00  0.00    +0.051 C 
ATOM     18  C   LIG    1       24.616 -15.621   4.285  0.00  0.00    +0.153 C 
ATOM     19  F   LIG    1       25.379 -15.991   5.382  0.00  0.00    -0.238 F 
ATOM     20  C   LIG    1       23.136 -15.681   4.784  0.00  0.00    +0.154 C 
ATOM     21  C   LIG    1       22.697 -17.105   5.208  0.00  0.00    +0.044 C 
ENDROOT
BRANCH   3  22
ATOM     22  C   LIG    1       23.529 -19.989   6.035  0.00  0.00    +0.193 C 
ATOM     23  O   LIG    1       22.849 -20.081   7.062  0.00  0.00    -0.292 OA
BRANCH  22  24
ATOM     24  C   LIG    1       25.043 -20.194   6.131  0.00  0.00    +0.233 C 
BRANCH  24  25
ATOM     25  O   LIG    1       25.399 -21.416   6.766  0.00  0.00    -0.387 OA
ATOM     26  H   LIG    1       25.229 -22.122   6.110  0.00  0.00    +0.210 HD
ENDBRANCH  24  25
ENDBRANCH  22  24
ENDBRANCH   3  22
BRANCH   3  27
ATOM     27  O   LIG    1       21.581 -20.125   4.586  0.00  0.00    -0.378 OA
ATOM     28  H   LIG    1       21.565 -21.004   4.164  0.00  0.00    +0.211 HD
ENDBRANCH   3  27
BRANCH   4  29
ATOM     29  O   LIG    1       24.407 -21.572   3.974  0.00  0.00    -0.389 OA
ATOM     30  H   LIG    1       24.528 -22.173   3.216  0.00  0.00    +0.210 HD
ENDBRANCH   4  29
BRANCH  20  31
ATOM     31  O   LIG    1       22.221 -15.167   3.819  0.00  0.00    -0.389 OA
ATOM     32  H   LIG    1       21.429 -14.863   4.297  0.00  0.00    +0.210 HD
ENDBRANCH  20  31
TORSDOF 6
ENDMDL
