MODEL 1
REMARK VINA RESULT:      -3.3      0.000      0.000
REMARK  Name = *****
REMARK                            x       y       z     vdW  Elec       q    Type
REMARK                         _______ _______ _______ _____ _____    ______ ____
ROOT
ATOM      1  C   LIG    1       30.929 -19.061   8.476  0.00  0.00    +0.159 C 
ATOM      2  O   LIG    1       32.084 -19.441   9.233  0.00  0.00    -0.370 OA
ATOM      3  C   LIG    1       31.853 -18.034   9.079  0.00  0.00    +0.193 C 
ENDROOT
BRANCH   1   5
ATOM      4 CL   LIG    1       29.651 -18.568   6.181  0.00  0.00    -0.123 Cl
ATOM      5  C   LIG    1       30.988 -19.378   7.023  0.00  0.00    +0.142 C 
ENDBRANCH   1   5
TORSDOF 1
ENDMDL
MODEL 2
REMARK VINA RESULT:      -3.2      2.528      2.941
REMARK  Name = *****
REMARK                            x       y       z     vdW  Elec       q    Type
REMARK                         _______ _______ _______ _____ _____    ______ ____
ROOT
ATOM      1  C   LIG    1       31.570 -18.096   8.937  0.00  0.00    +0.159 C 
ATOM      2  O   LIG    1       32.031 -19.432   9.171  0.00  0.00    -0.370 OA
ATOM      3  C   LIG    1       31.493 -19.159   7.870  0.00  0.00    +0.193 C 
ENDROOT
BRANCH   1   5
ATOM      4 CL   LIG    1       30.809 -16.543  10.974  0.00  0.00    -0.123 Cl
ATOM      5  C   LIG    1       30.358 -17.699   9.704  0.00  0.00    +0.142 C 
ENDBRANCH   1   5
TORSDOF 1
ENDMDL
MODEL 3
REMARK VINA RESULT:      -3.1      1.935      2.265
REMARK  Name = *****
REMARK                            x       y       z     vdW  Elec       q    Type
REMARK                         _______ _______ _______ _____ _____    ______ ____
ROOT
ATOM      1  C   LIG    1       31.051 -19.778   8.097  0.00  0.00    +0.159 C 
ATOM      2  O   LIG    1       31.916 -19.906   9.232  0.00  0.00    -0.370 OA
ATOM      3  C   LIG    1       31.183 -21.078   8.848  0.00  0.00    +0.193 C 
ENDROOT
BRANCH   1   5
ATOM      4 CL   LIG    1       30.281 -17.586   9.419  0.00  0.00    -0.123 Cl
ATOM      5  C   LIG    1       29.866 -18.900   8.298  0.00  0.00    +0.142 C 
ENDBRANCH   1   5
TORSDOF 1
ENDMDL
MODEL 4
REMARK VINA RESULT:      -3.0      2.130      2.607
REMARK  Name = *****
REMARK                            x       y       z     vdW  Elec       q    Type
REMARK                         _______ _______ _______ _____ _____    ______ ____
ROOT
ATOM      1  C   LIG    1       30.958 -18.703   7.845  0.00  0.00    +0.159 C 
ATOM      2  O   LIG    1       31.819 -19.635   7.180  0.00  0.00    -0.370 OA
ATOM      3  C   LIG    1       30.825 -20.189   8.053  0.00  0.00    +0.193 C 
ENDROOT
BRANCH   1   5
ATOM      4 CL   LIG    1       30.386 -16.986   9.813  0.00  0.00    -0.123 Cl
ATOM      5  C   LIG    1       31.619 -17.847   8.869  0.00  0.00    +0.142 C 
ENDBRANCH   1   5
TORSDOF 1
ENDMDL
MODEL 5
REMARK VINA RESULT:      -3.0      1.845      2.049
REMARK  Name = *****
REMARK                            x       y       z     vdW  Elec       q    Type
REMARK                         _______ _______ _______ _____ _____    ______ ____
ROOT
ATOM      1  C   LIG    1       30.453 -18.100   9.466  0.00  0.00    +0.159 C 
ATOM      2  O   LIG    1       30.608 -18.659  10.775  0.00  0.00    -0.370 OA
ATOM      3  C   LIG    1       30.476 -17.232  10.698  0.00  0.00    +0.193 C 
ENDROOT
BRANCH   1   5
ATOM      4 CL   LIG    1       31.290 -19.278   7.217  0.00  0.00    -0.123 Cl
ATOM      5  C   LIG    1       31.649 -18.204   8.585  0.00  0.00    +0.142 C 
ENDBRANCH   1   5
TORSDOF 1
ENDMDL
MODEL 6
REMARK VINA RESULT:      -3.0      1.649      1.649
REMARK  Name = *****
REMARK                            x       y       z     vdW  Elec       q    Type
REMARK                         _______ _______ _______ _____ _____    ______ ____
ROOT
ATOM      1  C   LIG    1       30.733 -18.858   9.104  0.00  0.00    +0.159 C 
ATOM      2  O   LIG    1       32.049 -19.418   9.186  0.00  0.00    -0.370 OA
ATOM      3  C   LIG    1       31.959 -18.051   8.761  0.00  0.00    +0.193 C 
ENDROOT
BRANCH   1   5
ATOM      4 CL   LIG    1       29.883 -21.195   8.126  0.00  0.00    -0.123 Cl
ATOM      5  C   LIG    1       29.868 -19.422   8.032  0.00  0.00    +0.142 C 
ENDBRANCH   1   5
TORSDOF 1
ENDMDL
MODEL 7
REMARK VINA RESULT:      -3.0      6.190      6.427
REMARK  Name = *****
REMARK                            x       y       z     vdW  Elec       q    Type
REMARK                         _______ _______ _______ _____ _____    ______ ____
ROOT
ATOM      1  C   LIG    1       25.463 -20.716   7.931  0.00  0.00    +0.159 C 
ATOM      2  O   LIG    1       25.881 -20.932   9.284  0.00  0.00    -0.370 OA
ATOM      3  C   LIG    1       26.778 -21.376   8.257  0.00  0.00    +0.193 C 
ENDROOT
BRANCH   1   5
ATOM      4 CL   LIG    1       23.187 -20.507   6.545  0.00  0.00    -0.123 Cl
ATOM      5  C   LIG    1       24.293 -21.525   7.491  0.00  0.00    +0.142 C 
ENDBRANCH   1   5
TORSDOF 1
ENDMDL
MODEL 8
REMARK VINA RESULT:      -3.0      7.978      8.302
REMARK  Name = *****
REMARK                            x       y       z     vdW  Elec       q    Type
REMARK                         _______ _______ _______ _____ _____    ______ ____
ROOT
ATOM      1  C   LIG    1       23.589 -20.748   6.872  0.00  0.00    +0.159 C 
ATOM      2  O   LIG    1       23.138 -21.601   7.930  0.00  0.00    -0.370 OA
ATOM      3  C   LIG    1       24.399 -21.932   7.333  0.00  0.00    +0.193 C 
ENDROOT
BRANCH   1   5
ATOM      4 CL   LIG    1       22.423 -19.170   5.056  0.00  0.00    -0.123 Cl
ATOM      5  C   LIG    1       22.789 -20.815   5.618  0.00  0.00    +0.142 C 
ENDBRANCH   1   5
TORSDOF 1
ENDMDL
MODEL 9
REMARK VINA RESULT:      -2.9      8.612      9.038
REMARK  Name = *****
REMARK                            x       y       z     vdW  Elec       q    Type
REMARK                         _______ _______ _______ _____ _____    ______ ____
ROOT
ATOM      1  C   LIG    1       23.881 -23.388   6.926  0.00  0.00    +0.159 C 
ATOM      2  O   LIG    1       22.652 -24.100   6.744  0.00  0.00    -0.370 OA
ATOM      3  C   LIG    1       23.852 -24.784   6.360  0.00  0.00    +0.193 C 
ENDROOT
BRANCH   1   5
ATOM      4 CL   LIG    1       23.201 -20.812   6.705  0.00  0.00    -0.123 Cl
ATOM      5  C   LIG    1       24.070 -22.209   6.037  0.00  0.00    +0.142 C 
ENDBRANCH   1   5
TORSDOF 1
ENDMDL
