MODEL 1
REMARK VINA RESULT:       7.7      0.000      0.000
REMARK  Name = *****
REMARK                            x       y       z     vdW  Elec       q    Type
REMARK                         _______ _______ _______ _____ _____    ______ ____
ROOT
ATOM      1  C   LIG    1       26.808 -11.845   4.470  0.00  0.00    +0.042 C 
ATOM      2  C   LIG    1       26.698 -13.274   3.946  0.00  0.00    +0.069 C 
ATOM      3  C   LIG    1       25.646 -14.194   4.654  0.00  0.00    -0.000 C 
ATOM      4  C   LIG    1       25.713 -14.062   6.197  0.00  0.00    +0.014 C 
ATOM      5  C   LIG    1       26.139 -15.648   4.288  0.00  0.00    +0.001 C 
ATOM      6  C   LIG    1       25.328 -16.368   3.201  0.00  0.00    -0.004 C 
ATOM      7  C   LIG    1       23.817 -16.173   3.399  0.00  0.00    -0.001 C 
ATOM      8  C   LIG    1       23.539 -14.677   3.235  0.00  0.00    +0.005 C 
ATOM      9  C   LIG    1       22.967 -17.228   4.345  0.00  0.00    -0.022 C 
ATOM     10  C   LIG    1       21.536 -16.586   4.383  0.00  0.00    +0.012 C 
ATOM     11  C   LIG    1       23.274 -18.457   3.304  0.00  0.00    +0.001 C 
ATOM     12  C   LIG    1       22.766 -19.939   3.499  0.00  0.00    +0.059 C 
ATOM     13  C   LIG    1       22.837 -20.263   4.916  0.00  0.00    +0.040 A 
ATOM     14  C   LIG    1       22.981 -19.379   5.972  0.00  0.00    -0.006 A 
ATOM     15  C   LIG    1       23.117 -20.281   7.061  0.00  0.00    +0.138 A 
ATOM     16  N   LIG    1       23.160 -21.572   6.692  0.00  0.00    -0.182 NA
ATOM     17  N   LIG    1       23.047 -21.527   5.363  0.00  0.00    -0.281 N 
ATOM     18  H   LIG    1       23.194 -22.371   4.812  0.00  0.00    +0.189 HD
ATOM     19  C   LIG    1       24.748 -18.726   3.747  0.00  0.00    +0.005 C 
ATOM     20  C   LIG    1       23.133 -17.816   5.862  0.00  0.00    +0.045 C 
ATOM     21  C   LIG    1       25.693 -17.831   2.977  0.00  0.00    +0.004 C 
ATOM     22  C   LIG    1       27.620 -15.491   3.844  0.00  0.00    +0.007 C 
ATOM     23  C   LIG    1       24.185 -13.827   4.291  0.00  0.00    +0.010 C 
ATOM     24  C   LIG    1       28.009 -14.044   4.119  0.00  0.00    +0.035 C 
ENDROOT
BRANCH   2  25
ATOM     25  O   LIG    1       26.416 -13.139   2.547  0.00  0.00    -0.388 OA
ATOM     26  H   LIG    1       25.899 -13.901   2.243  0.00  0.00    +0.210 HD
ENDBRANCH   2  25
TORSDOF 1
ENDMDL
MODEL 2
REMARK VINA RESULT:       9.2      1.672      2.011
REMARK  Name = *****
REMARK                            x       y       z     vdW  Elec       q    Type
REMARK                         _______ _______ _______ _____ _____    ______ ____
ROOT
ATOM      1  C   LIG    1       23.471 -11.508   4.595  0.00  0.00    +0.042 C 
ATOM      2  C   LIG    1       24.235 -12.720   4.067  0.00  0.00    +0.069 C 
ATOM      3  C   LIG    1       23.904 -14.095   4.741  0.00  0.00    -0.000 C 
ATOM      4  C   LIG    1       23.839 -13.980   6.285  0.00  0.00    +0.014 C 
ATOM      5  C   LIG    1       25.166 -14.976   4.391  0.00  0.00    +0.001 C 
ATOM      6  C   LIG    1       24.961 -16.014   3.277  0.00  0.00    -0.004 C 
ATOM      7  C   LIG    1       23.619 -16.746   3.425  0.00  0.00    -0.001 C 
ATOM      8  C   LIG    1       22.520 -15.694   3.252  0.00  0.00    +0.005 C 
ATOM      9  C   LIG    1       23.525 -18.117   4.342  0.00  0.00    -0.022 C 
ATOM     10  C   LIG    1       21.989 -18.437   4.333  0.00  0.00    +0.012 C 
ATOM     11  C   LIG    1       24.522 -18.912   3.312  0.00  0.00    +0.001 C 
ATOM     12  C   LIG    1       24.975 -20.414   3.490  0.00  0.00    +0.059 C 
ATOM     13  C   LIG    1       25.185 -20.662   4.908  0.00  0.00    +0.040 A 
ATOM     14  C   LIG    1       24.755 -19.883   5.968  0.00  0.00    -0.006 A 
ATOM     15  C   LIG    1       25.365 -20.554   7.062  0.00  0.00    +0.138 A 
ATOM     16  N   LIG    1       26.167 -21.568   6.694  0.00  0.00    -0.182 NA
ATOM     17  N   LIG    1       26.085 -21.572   5.362  0.00  0.00    -0.281 N 
ATOM     18  H   LIG    1       26.714 -22.157   4.816  0.00  0.00    +0.189 HD
ATOM     19  C   LIG    1       25.861 -18.274   3.803  0.00  0.00    +0.005 C 
ATOM     20  C   LIG    1       23.963 -18.526   5.864  0.00  0.00    +0.045 C 
ATOM     21  C   LIG    1       26.121 -16.981   3.066  0.00  0.00    +0.004 C 
ATOM     22  C   LIG    1       26.284 -13.972   3.996  0.00  0.00    +0.007 C 
ATOM     23  C   LIG    1       22.516 -14.648   4.329  0.00  0.00    +0.010 C 
ATOM     24  C   LIG    1       25.743 -12.577   4.284  0.00  0.00    +0.035 C 
ENDROOT
BRANCH   2  25
ATOM     25  O   LIG    1       23.965 -12.748   2.660  0.00  0.00    -0.388 OA
ATOM     26  H   LIG    1       24.143 -11.877   2.275  0.00  0.00    +0.210 HD
ENDBRANCH   2  25
TORSDOF 1
ENDMDL
