MODEL 1
REMARK VINA RESULT:      -3.9      0.000      0.000
REMARK  Name = *****
REMARK                            x       y       z     vdW  Elec       q    Type
REMARK                         _______ _______ _______ _____ _____    ______ ____
ROOT
ATOM      1  N   LIG    1       26.168 -19.115   4.342  0.00  0.00    -0.298 N 
ATOM      2  C   LIG    1       24.872 -19.616   4.656  0.00  0.00    +0.049 A 
ATOM      3  C   LIG    1       24.700 -20.715   5.528  0.00  0.00    +0.034 A 
ATOM      4  C   LIG    1       23.419 -21.212   5.831  0.00  0.00    +0.018 A 
ATOM      5  C   LIG    1       22.282 -20.617   5.296  0.00  0.00    +0.020 A 
ATOM      6  C   LIG    1       22.419 -19.508   4.469  0.00  0.00    +0.054 A 
ATOM      7  S   LIG    1       26.067 -21.572   6.274  0.00  0.00    -0.086 S 
ATOM      8  C   LIG    1       27.337 -20.330   6.153  0.00  0.00    +0.034 A 
ATOM      9  C   LIG    1       28.409 -20.453   7.059  0.00  0.00    +0.017 A 
ATOM     10  C   LIG    1       29.475 -19.564   7.021  0.00  0.00    +0.001 A 
ATOM     11  C   LIG    1       29.472 -18.548   6.077  0.00  0.00    +0.002 A 
ATOM     12  C   LIG    1       28.401 -18.417   5.180  0.00  0.00    +0.024 A 
ATOM     13  C   LIG    1       23.696 -19.010   4.169  0.00  0.00    +0.043 A 
ATOM     14  C   LIG    1       27.302 -19.300   5.185  0.00  0.00    +0.048 A 
ENDROOT
BRANCH   6  15
ATOM     15  C   LIG    1       21.254 -18.872   3.926  0.00  0.00    +0.099 C 
ATOM     16  N   LIG    1       20.315 -18.364   3.480  0.00  0.00    -0.191 NA
ENDBRANCH   6  15
BRANCH   1  17
ATOM     17  C   LIG    1       26.360 -18.449   3.019  0.00  0.00    +0.115 C 
BRANCH  17  19
ATOM     18  C   LIG    1       24.659 -16.656   3.737  0.00  0.00    +0.010 C 
ATOM     19  C   LIG    1       25.979 -16.948   3.002  0.00  0.00    +0.018 C 
BRANCH  19  20
ATOM     20  C   LIG    1       27.084 -16.092   3.685  0.00  0.00    +0.088 C 
BRANCH  20  21
ATOM     21  N   LIG    1       26.844 -14.638   3.752  0.00  0.00    -0.308 NA
ATOM     22  C   LIG    1       26.788 -14.078   2.396  0.00  0.00    +0.104 C 
ATOM     23  C   LIG    1       27.875 -13.947   4.528  0.00  0.00    +0.104 C 
ENDBRANCH  20  21
ENDBRANCH  19  20
ENDBRANCH  17  19
ENDBRANCH   1  17
TORSDOF 5
ENDMDL
MODEL 2
REMARK VINA RESULT:      -2.2      2.833      5.240
REMARK  Name = *****
REMARK                            x       y       z     vdW  Elec       q    Type
REMARK                         _______ _______ _______ _____ _____    ______ ____
ROOT
ATOM      1  N   LIG    1       25.369 -15.777   3.315  0.00  0.00    -0.298 N 
ATOM      2  C   LIG    1       24.411 -16.739   3.743  0.00  0.00    +0.049 A 
ATOM      3  C   LIG    1       23.237 -16.354   4.428  0.00  0.00    +0.034 A 
ATOM      4  C   LIG    1       22.295 -17.308   4.856  0.00  0.00    +0.018 A 
ATOM      5  C   LIG    1       22.485 -18.660   4.594  0.00  0.00    +0.020 A 
ATOM      6  C   LIG    1       23.610 -19.064   3.884  0.00  0.00    +0.054 A 
ATOM      7  S   LIG    1       22.874 -14.661   4.834  0.00  0.00    -0.086 S 
ATOM      8  C   LIG    1       23.900 -13.814   3.652  0.00  0.00    +0.034 A 
ATOM      9  C   LIG    1       23.522 -12.493   3.341  0.00  0.00    +0.017 A 
ATOM     10  C   LIG    1       24.279 -11.726   2.465  0.00  0.00    +0.001 A 
ATOM     11  C   LIG    1       25.417 -12.279   1.896  0.00  0.00    +0.002 A 
ATOM     12  C   LIG    1       25.790 -13.598   2.196  0.00  0.00    +0.024 A 
ATOM     13  C   LIG    1       24.548 -18.113   3.455  0.00  0.00    +0.043 A 
ATOM     14  C   LIG    1       25.049 -14.408   3.081  0.00  0.00    +0.048 A 
ENDROOT
BRANCH   6  15
ATOM     15  C   LIG    1       23.809 -20.453   3.588  0.00  0.00    +0.099 C 
ATOM     16  N   LIG    1       23.978 -21.572   3.345  0.00  0.00    -0.191 NA
ENDBRANCH   6  15
BRANCH   1  17
ATOM     17  C   LIG    1       26.794 -16.209   3.200  0.00  0.00    +0.115 C 
BRANCH  17  19
ATOM     18  C   LIG    1       28.662 -17.006   4.780  0.00  0.00    +0.010 C 
ATOM     19  C   LIG    1       27.657 -15.891   4.446  0.00  0.00    +0.018 C 
BRANCH  19  20
ATOM     20  C   LIG    1       28.474 -14.585   4.231  0.00  0.00    +0.088 C 
BRANCH  20  21
ATOM     21  N   LIG    1       27.802 -13.321   4.585  0.00  0.00    -0.308 NA
ATOM     22  C   LIG    1       28.798 -12.255   4.752  0.00  0.00    +0.104 C 
ATOM     23  C   LIG    1       27.006 -13.446   5.807  0.00  0.00    +0.104 C 
ENDBRANCH  20  21
ENDBRANCH  19  20
ENDBRANCH  17  19
ENDBRANCH   1  17
TORSDOF 5
ENDMDL
