MODEL 1
REMARK VINA RESULT:       0.9      0.000      0.000
REMARK  Name = *****
REMARK                            x       y       z     vdW  Elec       q    Type
REMARK                         _______ _______ _______ _____ _____    ______ ____
ROOT
ATOM      1  C   LIG    1       23.521 -21.570   3.181  0.00  0.00    +0.019 C 
ATOM      2  C   LIG    1       23.791 -20.222   3.885  0.00  0.00    +0.029 C 
ATOM      3  C   LIG    1       23.199 -20.339   5.280  0.00  0.00    +0.140 C 
ATOM      4  O   LIG    1       23.776 -20.828   6.243  0.00  0.00    -0.297 OA
ATOM      5  C   LIG    1       21.778 -19.826   5.340  0.00  0.00    +0.075 C 
ATOM      6  C   LIG    1       21.525 -19.346   3.909  0.00  0.00    +0.012 C 
ATOM      7  C   LIG    1       22.914 -19.089   3.295  0.00  0.00    +0.006 C 
ATOM      8  C   LIG    1       23.435 -17.631   3.486  0.00  0.00    +0.001 C 
ATOM      9  C   LIG    1       24.967 -17.543   3.275  0.00  0.00    +0.023 C 
ATOM     10  C   LIG    1       25.518 -16.144   3.491  0.00  0.00    -0.041 A 
ATOM     11  C   LIG    1       24.798 -15.176   4.204  0.00  0.00    -0.040 A 
ATOM     12  C   LIG    1       23.421 -15.443   4.745  0.00  0.00    +0.036 C 
ATOM     13  C   LIG    1       25.340 -13.892   4.379  0.00  0.00    +0.052 A 
ATOM     14  C   LIG    1       26.599 -13.573   3.871  0.00  0.00    +0.159 A 
ATOM     15  C   LIG    1       27.334 -14.546   3.198  0.00  0.00    +0.049 A 
ATOM     16  C   LIG    1       26.793 -15.818   2.997  0.00  0.00    +0.008 A 
ATOM     17  C   LIG    1       25.700 -18.539   4.186  0.00  0.00    +0.009 C 
ATOM     18  C   LIG    1       23.052 -16.924   4.798  0.00  0.00    +0.009 C 
ATOM     19  C   LIG    1       25.298 -19.966   3.861  0.00  0.00    +0.015 C 
ENDROOT
BRANCH  14  20
ATOM     20  O   LIG    1       27.201 -12.349   4.015  0.00  0.00    -0.325 OA
BRANCH  20  21
ATOM     21  S   LIG    1       28.803 -12.220   4.290  0.00  0.00    +0.251 S 
ATOM     22  O   LIG    1       29.030 -11.907   5.684  0.00  0.00    -0.108 OA
ATOM     23  O   LIG    1       29.410 -11.447   3.226  0.00  0.00    -0.108 OA
BRANCH  21  24
ATOM     24  O   LIG    1       29.330 -13.720   4.055  0.00  0.00    -0.222 OA
ATOM     25  H   LIG    1       29.625 -14.056   4.924  0.00  0.00    +0.248 HD
ENDBRANCH  21  24
ENDBRANCH  20  21
ENDBRANCH  14  20
TORSDOF 3
ENDMDL
