MODEL 1
REMARK VINA RESULT:      -5.3      0.000      0.000
REMARK  Name = *****
REMARK                            x       y       z     vdW  Elec       q    Type
REMARK                         _______ _______ _______ _____ _____    ______ ____
ROOT
ATOM      1  C   LIG    1       22.632 -19.490   4.311  0.00  0.00    +0.131 A 
ATOM      2  N   LIG    1       22.364 -18.175   4.463  0.00  0.00    -0.252 NA
ATOM      3  C   LIG    1       23.367 -17.324   4.169  0.00  0.00    +0.089 A 
ATOM      4  C   LIG    1       24.631 -17.799   3.701  0.00  0.00    +0.089 A 
ATOM      5  C   LIG    1       25.651 -16.894   3.416  0.00  0.00    +0.034 A 
ATOM      6  C   LIG    1       25.433 -15.545   3.631  0.00  0.00    -0.037 A 
ATOM      7  C   LIG    1       26.378 -14.373   3.494  0.00  0.00    +0.034 C 
ATOM      8  C   LIG    1       26.157 -13.641   2.145  0.00  0.00    +0.089 C 
ATOM      9  N   LIG    1       25.197 -12.526   2.224  0.00  0.00    -0.315 NA
ATOM     10  H   LIG    1       24.945 -12.198   1.293  0.00  0.00    +0.122 HD
ATOM     11  C   LIG    1       23.992 -12.836   3.012  0.00  0.00    +0.089 C 
ATOM     12  C   LIG    1       24.291 -13.593   4.327  0.00  0.00    +0.034 C 
ATOM     13  C   LIG    1       25.804 -13.509   4.641  0.00  0.00    +0.019 C 
ATOM     14  C   LIG    1       24.207 -15.085   4.109  0.00  0.00    -0.037 A 
ATOM     15  N   LIG    1       24.870 -19.116   3.549  0.00  0.00    -0.252 NA
ATOM     16  C   LIG    1       23.164 -15.960   4.356  0.00  0.00    +0.034 A 
ATOM     17  C   LIG    1       23.855 -19.948   3.871  0.00  0.00    +0.131 A 
ENDROOT
TORSDOF 0
ENDMDL
MODEL 2
REMARK VINA RESULT:      -5.1      1.033      2.478
REMARK  Name = *****
REMARK                            x       y       z     vdW  Elec       q    Type
REMARK                         _______ _______ _______ _____ _____    ______ ____
ROOT
ATOM      1  C   LIG    1       23.404 -19.674   3.913  0.00  0.00    +0.131 A 
ATOM      2  N   LIG    1       24.555 -19.058   3.565  0.00  0.00    -0.252 NA
ATOM      3  C   LIG    1       24.578 -17.717   3.702  0.00  0.00    +0.089 A 
ATOM      4  C   LIG    1       23.449 -17.003   4.211  0.00  0.00    +0.089 A 
ATOM      5  C   LIG    1       23.501 -15.616   4.330  0.00  0.00    +0.034 A 
ATOM      6  C   LIG    1       24.638 -14.947   3.913  0.00  0.00    -0.037 A 
ATOM      7  C   LIG    1       24.924 -13.464   3.847  0.00  0.00    +0.034 C 
ATOM      8  C   LIG    1       25.760 -13.009   5.070  0.00  0.00    +0.089 C 
ATOM      9  N   LIG    1       27.215 -13.037   4.841  0.00  0.00    -0.315 NA
ATOM     10  H   LIG    1       27.723 -12.912   5.715  0.00  0.00    +0.122 HD
ATOM     11  C   LIG    1       27.680 -14.245   4.137  0.00  0.00    +0.089 C 
ATOM     12  C   LIG    1       26.779 -14.654   2.948  0.00  0.00    +0.034 C 
ATOM     13  C   LIG    1       25.829 -13.485   2.593  0.00  0.00    +0.019 C 
ATOM     14  C   LIG    1       25.729 -15.644   3.396  0.00  0.00    -0.037 A 
ATOM     15  N   LIG    1       22.316 -17.644   4.560  0.00  0.00    -0.252 NA
ATOM     16  C   LIG    1       25.719 -17.024   3.310  0.00  0.00    +0.034 A 
ATOM     17  C   LIG    1       22.312 -18.984   4.392  0.00  0.00    +0.131 A 
ENDROOT
TORSDOF 0
ENDMDL
MODEL 3
REMARK VINA RESULT:      -4.9      1.536      5.350
REMARK  Name = *****
REMARK                            x       y       z     vdW  Elec       q    Type
REMARK                         _______ _______ _______ _____ _____    ______ ____
ROOT
ATOM      1  C   LIG    1       24.932 -13.508   3.525  0.00  0.00    +0.131 A 
ATOM      2  N   LIG    1       23.986 -14.388   3.921  0.00  0.00    -0.252 NA
ATOM      3  C   LIG    1       24.316 -15.692   3.848  0.00  0.00    +0.089 A 
ATOM      4  C   LIG    1       25.607 -16.108   3.397  0.00  0.00    +0.089 A 
ATOM      5  C   LIG    1       25.914 -17.464   3.322  0.00  0.00    +0.034 A 
ATOM      6  C   LIG    1       24.942 -18.392   3.649  0.00  0.00    -0.037 A 
ATOM      7  C   LIG    1       24.974 -19.902   3.574  0.00  0.00    +0.034 C 
ATOM      8  C   LIG    1       25.264 -20.518   4.966  0.00  0.00    +0.089 C 
ATOM      9  N   LIG    1       24.052 -20.841   5.739  0.00  0.00    -0.315 NA
ATOM     10  H   LIG    1       24.287 -21.065   6.705  0.00  0.00    +0.122 HD
ATOM     11  C   LIG    1       23.018 -19.793   5.684  0.00  0.00    +0.089 C 
ATOM     12  C   LIG    1       22.807 -19.206   4.268  0.00  0.00    +0.034 C 
ATOM     13  C   LIG    1       23.485 -20.122   3.221  0.00  0.00    +0.019 C 
ATOM     14  C   LIG    1       23.675 -17.986   4.067  0.00  0.00    -0.037 A 
ATOM     15  N   LIG    1       26.537 -15.209   3.018  0.00  0.00    -0.252 NA
ATOM     16  C   LIG    1       23.362 -16.644   4.192  0.00  0.00    +0.034 A 
ATOM     17  C   LIG    1       26.173 -13.909   3.081  0.00  0.00    +0.131 A 
ENDROOT
TORSDOF 0
ENDMDL
