MODEL 1
REMARK VINA RESULT:       2.0      0.000      0.000
REMARK  Name = *****
REMARK                            x       y       z     vdW  Elec       q    Type
REMARK                         _______ _______ _______ _____ _____    ______ ____
ROOT
ATOM      1  C   LIG    1       23.638 -13.931   4.126  0.00  0.00    +0.027 C 
ATOM      2  C   LIG    1       23.581 -12.399   4.035  0.00  0.00    +0.121 C 
ATOM      3  C   LIG    1       23.898 -12.154   2.567  0.00  0.00    +0.063 C 
ATOM      4  C   LIG    1       25.052 -13.117   2.295  0.00  0.00    +0.120 C 
ATOM      5  C   LIG    1       24.890 -14.288   3.292  0.00  0.00    +0.024 C 
ENDROOT
BRANCH   4   6
ATOM      6  O   LIG    1       26.291 -12.459   2.556  0.00  0.00    -0.391 OA
ATOM      7  H   LIG    1       26.992 -13.127   2.398  0.00  0.00    +0.210 HD
ENDBRANCH   4   6
BRANCH   2   8
ATOM      8  O   LIG    1       24.596 -11.781   4.824  0.00  0.00    -0.391 OA
ATOM      9  H   LIG    1       24.331 -10.852   4.955  0.00  0.00    +0.210 HD
ENDBRANCH   2   8
BRANCH   1  10
ATOM     10  C   LIG    1       23.692 -14.492   5.556  0.00  0.00    +0.033 C 
BRANCH  10  12
ATOM     11  C   LIG    1       21.668 -16.022   5.474  0.00  0.00    -0.031 C 
ATOM     12  C   LIG    1       22.343 -14.990   5.997  0.00  0.00    -0.031 C 
BRANCH  11  13
ATOM     13  C   LIG    1       22.111 -16.918   4.352  0.00  0.00    +0.027 C 
BRANCH  13  14
ATOM     14  C   LIG    1       22.433 -18.298   4.918  0.00  0.00    +0.015 C 
BRANCH  14  15
ATOM     15  C   LIG    1       23.720 -18.878   4.359  0.00  0.00    +0.121 C 
BRANCH  15  17
ATOM     16  O   LIG    1       24.306 -21.125   3.680  0.00  0.00    -0.251 OA
ATOM     17  C   LIG    1       23.652 -20.380   4.398  0.00  0.00    +0.307 C 
BRANCH  17  18
ATOM     18  O   LIG    1       22.685 -20.769   5.275  0.00  0.00    -0.465 OA
BRANCH  18  19
ATOM     19  C   LIG    1       23.009 -20.608   6.660  0.00  0.00    +0.232 C 
BRANCH  19  20
ATOM     20  C   LIG    1       24.253 -21.438   6.967  0.00  0.00    +0.045 C 
BRANCH  20  21
ATOM     21  C   LIG    1       25.549 -20.632   6.786  0.00  0.00    +0.051 C 
BRANCH  21  22
ATOM     22  C   LIG    1       26.775 -21.523   6.983  0.00  0.00    +0.321 C 
BRANCH  22  23
ATOM     23  O   LIG    1       27.656 -21.308   5.886  0.00  0.00    -0.217 OA
BRANCH  23  24
ATOM     24  N   LIG    1       28.643 -20.336   6.161  0.00  0.00    +0.284 N 
ATOM     25  O   LIG    1       28.606 -19.298   5.489  0.00  0.00    -0.534 OA
ATOM     26  O   LIG    1       29.400 -20.667   7.062  0.00  0.00    +0.093 OA
ENDBRANCH  23  24
ENDBRANCH  22  23
ENDBRANCH  21  22
ENDBRANCH  20  21
ENDBRANCH  19  20
ENDBRANCH  18  19
ENDBRANCH  17  18
ENDBRANCH  15  17
ENDBRANCH  14  15
ENDBRANCH  13  14
ENDBRANCH  11  13
ENDBRANCH  10  12
ENDBRANCH   1  10
BRANCH   5  27
ATOM     27  C   LIG    1       24.756 -15.653   2.598  0.00  0.00    +0.009 C 
BRANCH  27  28
ATOM     28  C   LIG    1       26.080 -16.433   2.516  0.00  0.00    +0.032 C 
BRANCH  28  29
ATOM     29  C   LIG    1       26.351 -17.286   3.762  0.00  0.00    +0.115 C 
BRANCH  29  30
ATOM     30  O   LIG    1       26.412 -18.659   3.375  0.00  0.00    -0.392 OA
ATOM     31  H   LIG    1       26.330 -19.196   4.182  0.00  0.00    +0.210 HD
ENDBRANCH  29  30
BRANCH  29  32
ATOM     32  C   LIG    1       27.650 -16.888   4.467  0.00  0.00    +0.036 C 
BRANCH  32  33
ATOM     33  C   LIG    1       28.386 -15.785   3.700  0.00  0.00    +0.037 C 
BRANCH  33  34
ATOM     34  C   LIG    1       28.227 -14.438   4.362  0.00  0.00    -0.047 A 
ATOM     35  C   LIG    1       28.987 -13.343   3.933  0.00  0.00    +0.003 A 
ATOM     36  C   LIG    1       28.838 -12.097   4.544  0.00  0.00    +0.000 A 
ATOM     37  C   LIG    1       27.932 -11.938   5.592  0.00  0.00    +0.000 A 
ATOM     38  C   LIG    1       27.179 -13.024   6.033  0.00  0.00    +0.000 A 
ATOM     39  C   LIG    1       27.328 -14.270   5.422  0.00  0.00    +0.003 A 
ENDBRANCH  33  34
ENDBRANCH  32  33
ENDBRANCH  29  32
ENDBRANCH  28  29
ENDBRANCH  27  28
ENDBRANCH   5  27
TORSDOF 22
ENDMDL
MODEL 2
REMARK VINA RESULT:       3.9      1.839      5.280
REMARK  Name = *****
REMARK                            x       y       z     vdW  Elec       q    Type
REMARK                         _______ _______ _______ _____ _____    ______ ____
ROOT
ATOM      1  C   LIG    1       22.696 -18.372   4.294  0.00  0.00    +0.027 C 
ATOM      2  C   LIG    1       21.940 -19.182   3.230  0.00  0.00    +0.121 C 
ATOM      3  C   LIG    1       21.189 -18.096   2.475  0.00  0.00    +0.063 C 
ATOM      4  C   LIG    1       20.660 -17.197   3.591  0.00  0.00    +0.120 C 
ATOM      5  C   LIG    1       21.638 -17.353   4.779  0.00  0.00    +0.024 C 
ENDROOT
BRANCH   4   6
ATOM      6  O   LIG    1       19.369 -17.651   3.994  0.00  0.00    -0.391 OA
ATOM      7  H   LIG    1       19.510 -18.519   4.429  0.00  0.00    +0.210 HD
ENDBRANCH   4   6
BRANCH   2   8
ATOM      8  O   LIG    1       20.986 -20.066   3.814  0.00  0.00    -0.391 OA
ATOM      9  H   LIG    1       21.354 -20.967   3.752  0.00  0.00    +0.210 HD
ENDBRANCH   2   8
BRANCH   1  10
ATOM     10  C   LIG    1       23.292 -19.205   5.439  0.00  0.00    +0.033 C 
BRANCH  10  12
ATOM     11  C   LIG    1       24.391 -21.483   5.652  0.00  0.00    -0.031 C 
ATOM     12  C   LIG    1       23.674 -20.581   4.969  0.00  0.00    -0.031 C 
BRANCH  11  13
ATOM     13  C   LIG    1       24.952 -21.331   7.037  0.00  0.00    +0.027 C 
BRANCH  13  14
ATOM     14  C   LIG    1       26.474 -21.403   6.967  0.00  0.00    +0.015 C 
BRANCH  14  15
ATOM     15  C   LIG    1       27.098 -20.142   6.395  0.00  0.00    +0.121 C 
BRANCH  15  17
ATOM     16  O   LIG    1       29.035 -21.167   5.369  0.00  0.00    -0.251 OA
ATOM     17  C   LIG    1       28.568 -20.367   6.169  0.00  0.00    +0.307 C 
BRANCH  17  18
ATOM     18  O   LIG    1       29.283 -19.623   7.059  0.00  0.00    -0.465 OA
BRANCH  18  19
ATOM     19  C   LIG    1       29.475 -18.251   6.700  0.00  0.00    +0.232 C 
BRANCH  19  20
ATOM     20  C   LIG    1       29.224 -18.102   5.201  0.00  0.00    +0.045 C 
BRANCH  20  21
ATOM     21  C   LIG    1       28.034 -17.178   4.900  0.00  0.00    +0.051 C 
BRANCH  21  22
ATOM     22  C   LIG    1       27.493 -17.429   3.493  0.00  0.00    +0.321 C 
BRANCH  22  23
ATOM     23  O   LIG    1       26.793 -18.668   3.505  0.00  0.00    -0.217 OA
BRANCH  23  24
ATOM     24  N   LIG    1       25.525 -18.584   2.890  0.00  0.00    +0.284 N 
ATOM     25  O   LIG    1       25.021 -17.457   2.799  0.00  0.00    -0.534 OA
ATOM     26  O   LIG    1       25.106 -19.668   2.511  0.00  0.00    +0.093 OA
ENDBRANCH  23  24
ENDBRANCH  22  23
ENDBRANCH  21  22
ENDBRANCH  20  21
ENDBRANCH  19  20
ENDBRANCH  18  19
ENDBRANCH  17  18
ENDBRANCH  15  17
ENDBRANCH  14  15
ENDBRANCH  13  14
ENDBRANCH  11  13
ENDBRANCH  10  12
ENDBRANCH   1  10
BRANCH   5  27
ATOM     27  C   LIG    1       22.271 -16.022   5.214  0.00  0.00    +0.009 C 
BRANCH  27  28
ATOM     28  C   LIG    1       23.176 -15.391   4.140  0.00  0.00    +0.032 C 
BRANCH  28  29
ATOM     29  C   LIG    1       23.347 -13.876   4.316  0.00  0.00    +0.115 C 
BRANCH  29  30
ATOM     30  O   LIG    1       24.080 -13.633   5.516  0.00  0.00    -0.392 OA
ATOM     31  H   LIG    1       24.843 -14.236   5.522  0.00  0.00    +0.210 HD
ENDBRANCH  29  30
BRANCH  29  32
ATOM     32  C   LIG    1       24.068 -13.232   3.129  0.00  0.00    +0.036 C 
BRANCH  32  33
ATOM     33  C   LIG    1       25.299 -14.046   2.714  0.00  0.00    +0.037 C 
BRANCH  33  34
ATOM     34  C   LIG    1       26.531 -13.631   3.480  0.00  0.00    -0.047 A 
ATOM     35  C   LIG    1       26.493 -13.512   4.875  0.00  0.00    +0.003 A 
ATOM     36  C   LIG    1       27.634 -13.129   5.582  0.00  0.00    +0.000 A 
ATOM     37  C   LIG    1       28.819 -12.858   4.900  0.00  0.00    +0.000 A 
ATOM     38  C   LIG    1       28.864 -12.963   3.511  0.00  0.00    +0.000 A 
ATOM     39  C   LIG    1       27.723 -13.345   2.803  0.00  0.00    +0.003 A 
ENDBRANCH  33  34
ENDBRANCH  32  33
ENDBRANCH  29  32
ENDBRANCH  28  29
ENDBRANCH  27  28
ENDBRANCH   5  27
TORSDOF 22
ENDMDL
MODEL 3
REMARK VINA RESULT:       4.4      2.120      7.553
REMARK  Name = *****
REMARK                            x       y       z     vdW  Elec       q    Type
REMARK                         _______ _______ _______ _____ _____    ______ ____
ROOT
ATOM      1  C   LIG    1       26.623 -18.539   3.685  0.00  0.00    +0.027 C 
ATOM      2  C   LIG    1       28.060 -18.149   4.062  0.00  0.00    +0.121 C 
ATOM      3  C   LIG    1       28.587 -19.433   4.683  0.00  0.00    +0.063 C 
ATOM      4  C   LIG    1       27.429 -19.897   5.562  0.00  0.00    +0.120 C 
ATOM      5  C   LIG    1       26.139 -19.335   4.920  0.00  0.00    +0.024 C 
ENDROOT
BRANCH   4   6
ATOM      6  O   LIG    1       27.571 -19.340   6.869  0.00  0.00    -0.391 OA
ATOM      7  H   LIG    1       26.839 -19.713   7.404  0.00  0.00    +0.210 HD
ENDBRANCH   4   6
BRANCH   2   8
ATOM      8  O   LIG    1       28.089 -17.123   5.053  0.00  0.00    -0.391 OA
ATOM      9  H   LIG    1       28.870 -16.569   4.868  0.00  0.00    +0.210 HD
ENDBRANCH   2   8
BRANCH   1  10
ATOM     10  C   LIG    1       25.702 -17.359   3.337  0.00  0.00    +0.033 C 
BRANCH  10  12
ATOM     11  C   LIG    1       25.958 -14.850   3.053  0.00  0.00    -0.031 C 
ATOM     12  C   LIG    1       26.461 -16.061   3.322  0.00  0.00    -0.031 C 
BRANCH  11  13
ATOM     13  C   LIG    1       24.530 -14.515   2.729  0.00  0.00    +0.027 C 
BRANCH  13  14
ATOM     14  C   LIG    1       24.474 -13.119   2.116  0.00  0.00    +0.015 C 
BRANCH  14  15
ATOM     15  C   LIG    1       23.866 -12.089   3.050  0.00  0.00    +0.121 C 
BRANCH  15  17
ATOM     16  O   LIG    1       23.386 -12.494   5.387  0.00  0.00    -0.251 OA
ATOM     17  C   LIG    1       24.200 -12.443   4.474  0.00  0.00    +0.307 C 
BRANCH  17  18
ATOM     18  O   LIG    1       25.547 -12.594   4.601  0.00  0.00    -0.465 OA
BRANCH  18  19
ATOM     19  C   LIG    1       26.010 -12.897   5.921  0.00  0.00    +0.232 C 
BRANCH  19  20
ATOM     20  C   LIG    1       27.463 -13.357   5.832  0.00  0.00    +0.045 C 
BRANCH  20  21
ATOM     21  C   LIG    1       28.452 -12.224   6.144  0.00  0.00    +0.051 C 
BRANCH  21  22
ATOM     22  C   LIG    1       29.338 -11.926   4.935  0.00  0.00    +0.321 C 
BRANCH  22  23
ATOM     23  O   LIG    1       28.519 -11.946   3.772  0.00  0.00    -0.217 OA
BRANCH  23  24
ATOM     24  N   LIG    1       28.604 -13.165   3.065  0.00  0.00    +0.284 N 
ATOM     25  O   LIG    1       29.433 -13.989   3.471  0.00  0.00    -0.534 OA
ATOM     26  O   LIG    1       27.810 -13.235   2.138  0.00  0.00    +0.093 OA
ENDBRANCH  23  24
ENDBRANCH  22  23
ENDBRANCH  21  22
ENDBRANCH  20  21
ENDBRANCH  19  20
ENDBRANCH  18  19
ENDBRANCH  17  18
ENDBRANCH  15  17
ENDBRANCH  14  15
ENDBRANCH  13  14
ENDBRANCH  11  13
ENDBRANCH  10  12
ENDBRANCH   1  10
BRANCH   5  27
ATOM     27  C   LIG    1       25.129 -20.432   4.544  0.00  0.00    +0.009 C 
BRANCH  27  28
ATOM     28  C   LIG    1       25.045 -21.570   5.577  0.00  0.00    +0.032 C 
BRANCH  28  29
ATOM     29  C   LIG    1       24.140 -21.231   6.769  0.00  0.00    +0.115 C 
BRANCH  29  30
ATOM     30  O   LIG    1       24.268 -19.840   7.062  0.00  0.00    -0.392 OA
ATOM     31  H   LIG    1       23.943 -19.699   7.968  0.00  0.00    +0.210 HD
ENDBRANCH  29  30
BRANCH  29  32
ATOM     32  C   LIG    1       22.672 -21.571   6.497  0.00  0.00    +0.036 C 
BRANCH  32  33
ATOM     33  C   LIG    1       22.352 -21.507   5.000  0.00  0.00    +0.037 C 
BRANCH  33  34
ATOM     34  C   LIG    1       21.871 -20.138   4.586  0.00  0.00    -0.047 A 
ATOM     35  C   LIG    1       22.630 -18.999   4.885  0.00  0.00    +0.003 A 
ATOM     36  C   LIG    1       22.185 -17.734   4.499  0.00  0.00    +0.000 A 
ATOM     37  C   LIG    1       20.977 -17.596   3.817  0.00  0.00    +0.000 A 
ATOM     38  C   LIG    1       20.210 -18.723   3.524  0.00  0.00    +0.000 A 
ATOM     39  C   LIG    1       20.654 -19.988   3.910  0.00  0.00    +0.003 A 
ENDBRANCH  33  34
ENDBRANCH  32  33
ENDBRANCH  29  32
ENDBRANCH  28  29
ENDBRANCH  27  28
ENDBRANCH   5  27
TORSDOF 22
ENDMDL
MODEL 4
REMARK VINA RESULT:       4.4      2.121      6.028
REMARK  Name = *****
REMARK                            x       y       z     vdW  Elec       q    Type
REMARK                         _______ _______ _______ _____ _____    ______ ____
ROOT
ATOM      1  C   LIG    1       23.122 -19.289   5.243  0.00  0.00    +0.027 C 
ATOM      2  C   LIG    1       22.839 -20.399   4.220  0.00  0.00    +0.121 C 
ATOM      3  C   LIG    1       22.732 -19.617   2.921  0.00  0.00    +0.063 C 
ATOM      4  C   LIG    1       21.895 -18.401   3.314  0.00  0.00    +0.120 C 
ATOM      5  C   LIG    1       22.148 -18.164   4.821  0.00  0.00    +0.024 C 
ENDROOT
BRANCH   4   6
ATOM      6  O   LIG    1       20.512 -18.694   3.120  0.00  0.00    -0.391 OA
ATOM      7  H   LIG    1       20.224 -18.153   2.354  0.00  0.00    +0.210 HD
ENDBRANCH   4   6
BRANCH   2   8
ATOM      8  O   LIG    1       21.589 -21.041   4.465  0.00  0.00    -0.391 OA
ATOM      9  H   LIG    1       21.014 -20.848   3.701  0.00  0.00    +0.210 HD
ENDBRANCH   2   8
BRANCH   1  10
ATOM     10  C   LIG    1       22.953 -19.705   6.713  0.00  0.00    +0.033 C 
BRANCH  10  12
ATOM     11  C   LIG    1       24.668 -21.544   7.056  0.00  0.00    -0.031 C 
ATOM     12  C   LIG    1       23.403 -21.123   6.933  0.00  0.00    -0.031 C 
BRANCH  11  13
ATOM     13  C   LIG    1       25.910 -20.700   7.023  0.00  0.00    +0.027 C 
BRANCH  13  14
ATOM     14  C   LIG    1       25.938 -19.910   5.719  0.00  0.00    +0.015 C 
BRANCH  14  15
ATOM     15  C   LIG    1       27.234 -20.089   4.949  0.00  0.00    +0.121 C 
BRANCH  15  17
ATOM     16  O   LIG    1       28.435 -20.182   7.047  0.00  0.00    -0.251 OA
ATOM     17  C   LIG    1       28.401 -19.854   5.868  0.00  0.00    +0.307 C 
BRANCH  17  18
ATOM     18  O   LIG    1       29.356 -19.136   5.215  0.00  0.00    -0.465 OA
BRANCH  18  19
ATOM     19  C   LIG    1       29.255 -17.714   5.345  0.00  0.00    +0.232 C 
BRANCH  19  20
ATOM     20  C   LIG    1       28.328 -17.192   4.250  0.00  0.00    +0.045 C 
BRANCH  20  21
ATOM     21  C   LIG    1       27.453 -16.026   4.737  0.00  0.00    +0.051 C 
BRANCH  21  22
ATOM     22  C   LIG    1       28.174 -14.691   4.554  0.00  0.00    +0.321 C 
BRANCH  22  23
ATOM     23  O   LIG    1       27.217 -13.727   4.131  0.00  0.00    -0.217 OA
BRANCH  23  24
ATOM     24  N   LIG    1       27.228 -13.524   2.734  0.00  0.00    +0.284 N 
ATOM     25  O   LIG    1       27.374 -12.359   2.340  0.00  0.00    -0.534 OA
ATOM     26  O   LIG    1       27.105 -14.562   2.100  0.00  0.00    +0.093 OA
ENDBRANCH  23  24
ENDBRANCH  22  23
ENDBRANCH  21  22
ENDBRANCH  20  21
ENDBRANCH  19  20
ENDBRANCH  18  19
ENDBRANCH  17  18
ENDBRANCH  15  17
ENDBRANCH  14  15
ENDBRANCH  13  14
ENDBRANCH  11  13
ENDBRANCH  10  12
ENDBRANCH   1  10
BRANCH   5  27
ATOM     27  C   LIG    1       22.710 -16.766   5.122  0.00  0.00    +0.009 C 
BRANCH  27  28
ATOM     28  C   LIG    1       22.535 -15.769   3.962  0.00  0.00    +0.032 C 
BRANCH  28  29
ATOM     29  C   LIG    1       23.753 -14.857   3.766  0.00  0.00    +0.115 C 
BRANCH  29  30
ATOM     30  O   LIG    1       24.933 -15.660   3.771  0.00  0.00    -0.392 OA
ATOM     31  H   LIG    1       25.698 -15.060   3.742  0.00  0.00    +0.210 HD
ENDBRANCH  29  30
BRANCH  29  32
ATOM     32  C   LIG    1       23.676 -14.057   2.464  0.00  0.00    +0.036 C 
BRANCH  32  33
ATOM     33  C   LIG    1       23.982 -12.574   2.701  0.00  0.00    +0.037 C 
BRANCH  33  34
ATOM     34  C   LIG    1       24.053 -12.243   4.171  0.00  0.00    -0.047 A 
ATOM     35  C   LIG    1       25.246 -12.423   4.883  0.00  0.00    +0.003 A 
ATOM     36  C   LIG    1       25.311 -12.115   6.242  0.00  0.00    +0.000 A 
ATOM     37  C   LIG    1       24.183 -11.628   6.902  0.00  0.00    +0.000 A 
ATOM     38  C   LIG    1       22.988 -11.455   6.206  0.00  0.00    +0.000 A 
ATOM     39  C   LIG    1       22.923 -11.764   4.846  0.00  0.00    +0.003 A 
ENDBRANCH  33  34
ENDBRANCH  32  33
ENDBRANCH  29  32
ENDBRANCH  28  29
ENDBRANCH  27  28
ENDBRANCH   5  27
TORSDOF 22
ENDMDL
MODEL 5
REMARK VINA RESULT:       4.5      2.793      7.289
REMARK  Name = *****
REMARK                            x       y       z     vdW  Elec       q    Type
REMARK                         _______ _______ _______ _____ _____    ______ ____
ROOT
ATOM      1  C   LIG    1       23.370 -18.209   4.384  0.00  0.00    +0.027 C 
ATOM      2  C   LIG    1       21.991 -17.734   4.865  0.00  0.00    +0.121 C 
ATOM      3  C   LIG    1       21.089 -18.880   4.432  0.00  0.00    +0.063 C 
ATOM      4  C   LIG    1       21.586 -19.202   3.025  0.00  0.00    +0.120 C 
ATOM      5  C   LIG    1       23.074 -18.784   2.979  0.00  0.00    +0.024 C 
ENDROOT
BRANCH   4   6
ATOM      6  O   LIG    1       20.860 -18.422   2.075  0.00  0.00    -0.391 OA
ATOM      7  H   LIG    1       20.705 -17.551   2.500  0.00  0.00    +0.210 HD
ENDBRANCH   4   6
BRANCH   2   8
ATOM      8  O   LIG    1       21.571 -16.550   4.189  0.00  0.00    -0.391 OA
ATOM      9  H   LIG    1       20.817 -16.796   3.622  0.00  0.00    +0.210 HD
ENDBRANCH   2   8
BRANCH   1  10
ATOM     10  C   LIG    1       24.459 -17.125   4.369  0.00  0.00    +0.033 C 
BRANCH  10  12
ATOM     11  C   LIG    1       26.598 -16.688   3.075  0.00  0.00    -0.031 C 
ATOM     12  C   LIG    1       25.529 -17.441   3.360  0.00  0.00    -0.031 C 
BRANCH  11  13
ATOM     13  C   LIG    1       26.978 -15.380   3.707  0.00  0.00    +0.027 C 
BRANCH  13  14
ATOM     14  C   LIG    1       27.923 -14.632   2.771  0.00  0.00    +0.015 C 
BRANCH  14  15
ATOM     15  C   LIG    1       28.739 -13.568   3.484  0.00  0.00    +0.121 C 
BRANCH  15  17
ATOM     16  O   LIG    1       27.555 -12.233   5.118  0.00  0.00    -0.251 OA
ATOM     17  C   LIG    1       27.828 -12.464   3.947  0.00  0.00    +0.307 C 
BRANCH  17  18
ATOM     18  O   LIG    1       27.284 -11.840   2.866  0.00  0.00    -0.465 OA
BRANCH  18  19
ATOM     19  C   LIG    1       26.422 -12.648   2.058  0.00  0.00    +0.232 C 
BRANCH  19  20
ATOM     20  C   LIG    1       25.111 -11.895   1.844  0.00  0.00    +0.045 C 
BRANCH  20  21
ATOM     21  C   LIG    1       23.973 -12.450   2.714  0.00  0.00    +0.051 C 
BRANCH  21  22
ATOM     22  C   LIG    1       23.968 -11.787   4.091  0.00  0.00    +0.321 C 
BRANCH  22  23
ATOM     23  O   LIG    1       23.184 -12.591   4.965  0.00  0.00    -0.217 OA
BRANCH  23  24
ATOM     24  N   LIG    1       23.885 -13.719   5.445  0.00  0.00    +0.284 N 
ATOM     25  O   LIG    1       25.118 -13.626   5.504  0.00  0.00    -0.534 OA
ATOM     26  O   LIG    1       23.147 -14.641   5.758  0.00  0.00    +0.093 OA
ENDBRANCH  23  24
ENDBRANCH  22  23
ENDBRANCH  21  22
ENDBRANCH  20  21
ENDBRANCH  19  20
ENDBRANCH  18  19
ENDBRANCH  17  18
ENDBRANCH  15  17
ENDBRANCH  14  15
ENDBRANCH  13  14
ENDBRANCH  11  13
ENDBRANCH  10  12
ENDBRANCH   1  10
BRANCH   5  27
ATOM     27  C   LIG    1       24.013 -19.948   2.619  0.00  0.00    +0.009 C 
BRANCH  27  28
ATOM     28  C   LIG    1       24.830 -20.471   3.814  0.00  0.00    +0.032 C 
BRANCH  28  29
ATOM     29  C   LIG    1       23.962 -20.799   5.036  0.00  0.00    +0.115 C 
BRANCH  29  30
ATOM     30  O   LIG    1       22.835 -21.563   4.607  0.00  0.00    -0.392 OA
ATOM     31  H   LIG    1       22.877 -22.425   5.055  0.00  0.00    +0.210 HD
ENDBRANCH  29  30
BRANCH  29  32
ATOM     32  C   LIG    1       24.735 -21.572   6.107  0.00  0.00    +0.036 C 
BRANCH  32  33
ATOM     33  C   LIG    1       25.467 -20.622   7.062  0.00  0.00    +0.037 C 
BRANCH  33  34
ATOM     34  C   LIG    1       26.850 -20.282   6.566  0.00  0.00    -0.047 A 
ATOM     35  C   LIG    1       27.962 -21.012   7.006  0.00  0.00    +0.003 A 
ATOM     36  C   LIG    1       29.241 -20.697   6.544  0.00  0.00    +0.000 A 
ATOM     37  C   LIG    1       29.419 -19.648   5.643  0.00  0.00    +0.000 A 
ATOM     38  C   LIG    1       28.321 -18.909   5.208  0.00  0.00    +0.000 A 
ATOM     39  C   LIG    1       27.042 -19.223   5.669  0.00  0.00    +0.003 A 
ENDBRANCH  33  34
ENDBRANCH  32  33
ENDBRANCH  29  32
ENDBRANCH  28  29
ENDBRANCH  27  28
ENDBRANCH   5  27
TORSDOF 22
ENDMDL
MODEL 6
REMARK VINA RESULT:       4.7      2.400      5.732
REMARK  Name = *****
REMARK                            x       y       z     vdW  Elec       q    Type
REMARK                         _______ _______ _______ _____ _____    ______ ____
ROOT
ATOM      1  C   LIG    1       27.375 -19.537   4.221  0.00  0.00    +0.027 C 
ATOM      2  C   LIG    1       26.401 -20.201   3.235  0.00  0.00    +0.121 C 
ATOM      3  C   LIG    1       26.038 -19.044   2.318  0.00  0.00    +0.063 C 
ATOM      4  C   LIG    1       25.821 -17.884   3.287  0.00  0.00    +0.120 C 
ATOM      5  C   LIG    1       26.696 -18.182   4.528  0.00  0.00    +0.024 C 
ENDROOT
BRANCH   4   6
ATOM      6  O   LIG    1       24.452 -17.849   3.688  0.00  0.00    -0.391 OA
ATOM      7  H   LIG    1       24.439 -17.431   4.575  0.00  0.00    +0.210 HD
ENDBRANCH   4   6
BRANCH   2   8
ATOM      8  O   LIG    1       25.214 -20.653   3.883  0.00  0.00    -0.391 OA
ATOM      9  H   LIG    1       24.465 -20.190   3.463  0.00  0.00    +0.210 HD
ENDBRANCH   2   8
BRANCH   1  10
ATOM     10  C   LIG    1       27.672 -20.357   5.487  0.00  0.00    +0.033 C 
BRANCH  10  12
ATOM     11  C   LIG    1       25.681 -20.120   7.043  0.00  0.00    -0.031 C 
ATOM     12  C   LIG    1       26.931 -19.811   6.676  0.00  0.00    -0.031 C 
BRANCH  11  13
ATOM     13  C   LIG    1       24.753 -21.090   6.368  0.00  0.00    +0.027 C 
BRANCH  13  14
ATOM     14  C   LIG    1       23.313 -20.709   6.697  0.00  0.00    +0.015 C 
BRANCH  14  15
ATOM     15  C   LIG    1       22.343 -21.056   5.583  0.00  0.00    +0.121 C 
BRANCH  15  17
ATOM     16  O   LIG    1       22.640 -20.194   3.341  0.00  0.00    -0.251 OA
ATOM     17  C   LIG    1       22.392 -19.990   4.523  0.00  0.00    +0.307 C 
BRANCH  17  18
ATOM     18  O   LIG    1       22.223 -18.768   5.099  0.00  0.00    -0.465 OA
BRANCH  18  19
ATOM     19  C   LIG    1       21.478 -17.821   4.327  0.00  0.00    +0.232 C 
BRANCH  19  20
ATOM     20  C   LIG    1       21.754 -16.423   4.875  0.00  0.00    +0.045 C 
BRANCH  20  21
ATOM     21  C   LIG    1       22.813 -15.674   4.052  0.00  0.00    +0.051 C 
BRANCH  21  22
ATOM     22  C   LIG    1       23.733 -14.860   4.962  0.00  0.00    +0.321 C 
BRANCH  22  23
ATOM     23  O   LIG    1       23.175 -13.559   5.102  0.00  0.00    -0.217 OA
BRANCH  23  24
ATOM     24  N   LIG    1       24.147 -12.575   5.386  0.00  0.00    +0.284 N 
ATOM     25  O   LIG    1       25.322 -12.957   5.458  0.00  0.00    -0.534 OA
ATOM     26  O   LIG    1       23.672 -11.455   5.505  0.00  0.00    +0.093 OA
ENDBRANCH  23  24
ENDBRANCH  22  23
ENDBRANCH  21  22
ENDBRANCH  20  21
ENDBRANCH  19  20
ENDBRANCH  18  19
ENDBRANCH  17  18
ENDBRANCH  15  17
ENDBRANCH  14  15
ENDBRANCH  13  14
ENDBRANCH  11  13
ENDBRANCH  10  12
ENDBRANCH   1  10
BRANCH   5  27
ATOM     27  C   LIG    1       27.719 -17.073   4.821  0.00  0.00    +0.009 C 
BRANCH  27  28
ATOM     28  C   LIG    1       27.869 -16.057   3.674  0.00  0.00    +0.032 C 
BRANCH  28  29
ATOM     29  C   LIG    1       27.529 -14.622   4.098  0.00  0.00    +0.115 C 
BRANCH  29  30
ATOM     30  O   LIG    1       27.281 -14.605   5.504  0.00  0.00    -0.392 OA
ATOM     31  H   LIG    1       26.319 -14.533   5.632  0.00  0.00    +0.210 HD
ENDBRANCH  29  30
BRANCH  29  32
ATOM     32  C   LIG    1       28.648 -13.635   3.757  0.00  0.00    +0.036 C 
BRANCH  32  33
ATOM     33  C   LIG    1       28.110 -12.424   2.988  0.00  0.00    +0.037 C 
BRANCH  33  34
ATOM     34  C   LIG    1       26.668 -12.611   2.583  0.00  0.00    -0.047 A 
ATOM     35  C   LIG    1       25.797 -11.515   2.536  0.00  0.00    +0.003 A 
ATOM     36  C   LIG    1       24.464 -11.690   2.159  0.00  0.00    +0.000 A 
ATOM     37  C   LIG    1       23.991 -12.959   1.833  0.00  0.00    +0.000 A 
ATOM     38  C   LIG    1       24.848 -14.058   1.888  0.00  0.00    +0.000 A 
ATOM     39  C   LIG    1       26.180 -13.884   2.264  0.00  0.00    +0.003 A 
ENDBRANCH  33  34
ENDBRANCH  32  33
ENDBRANCH  29  32
ENDBRANCH  28  29
ENDBRANCH  27  28
ENDBRANCH   5  27
TORSDOF 22
ENDMDL
MODEL 7
REMARK VINA RESULT:       4.8      2.524      6.405
REMARK  Name = *****
REMARK                            x       y       z     vdW  Elec       q    Type
REMARK                         _______ _______ _______ _____ _____    ______ ____
ROOT
ATOM      1  C   LIG    1       27.898 -13.746   3.670  0.00  0.00    +0.027 C 
ATOM      2  C   LIG    1       27.825 -12.476   4.531  0.00  0.00    +0.121 C 
ATOM      3  C   LIG    1       28.750 -12.820   5.688  0.00  0.00    +0.063 C 
ATOM      4  C   LIG    1       28.370 -14.261   6.021  0.00  0.00    +0.120 C 
ATOM      5  C   LIG    1       27.826 -14.884   4.715  0.00  0.00    +0.024 C 
ENDROOT
BRANCH   4   6
ATOM      6  O   LIG    1       27.330 -14.264   7.000  0.00  0.00    -0.391 OA
ATOM      7  H   LIG    1       26.903 -15.145   6.938  0.00  0.00    +0.210 HD
ENDBRANCH   4   6
BRANCH   2   8
ATOM      8  O   LIG    1       26.514 -12.261   5.050  0.00  0.00    -0.391 OA
ATOM      9  H   LIG    1       25.897 -12.301   4.296  0.00  0.00    +0.210 HD
ENDBRANCH   2   8
BRANCH   1  10
ATOM     10  C   LIG    1       26.812 -13.858   2.588  0.00  0.00    +0.033 C 
BRANCH  10  12
ATOM     11  C   LIG    1       25.091 -12.162   1.812  0.00  0.00    -0.031 C 
ATOM     12  C   LIG    1       26.344 -12.500   2.144  0.00  0.00    -0.031 C 
BRANCH  11  13
ATOM     13  C   LIG    1       23.880 -13.049   1.829  0.00  0.00    +0.027 C 
BRANCH  13  14
ATOM     14  C   LIG    1       23.338 -13.122   3.253  0.00  0.00    +0.015 C 
BRANCH  14  15
ATOM     15  C   LIG    1       23.596 -14.463   3.914  0.00  0.00    +0.121 C 
BRANCH  15  17
ATOM     16  O   LIG    1       25.072 -13.499   5.571  0.00  0.00    -0.251 OA
ATOM     17  C   LIG    1       24.140 -14.244   5.300  0.00  0.00    +0.307 C 
BRANCH  17  18
ATOM     18  O   LIG    1       23.505 -15.074   6.173  0.00  0.00    -0.465 OA
BRANCH  18  19
ATOM     19  C   LIG    1       22.075 -15.020   6.146  0.00  0.00    +0.232 C 
BRANCH  19  20
ATOM     20  C   LIG    1       21.567 -16.085   5.178  0.00  0.00    +0.045 C 
BRANCH  20  21
ATOM     21  C   LIG    1       22.365 -17.394   5.282  0.00  0.00    +0.051 C 
BRANCH  21  22
ATOM     22  C   LIG    1       21.951 -18.372   4.184  0.00  0.00    +0.321 C 
BRANCH  22  23
ATOM     23  O   LIG    1       20.945 -17.749   3.394  0.00  0.00    -0.217 OA
BRANCH  23  24
ATOM     24  N   LIG    1       19.969 -18.660   2.935  0.00  0.00    +0.284 N 
ATOM     25  O   LIG    1       19.352 -18.347   1.908  0.00  0.00    -0.534 OA
ATOM     26  O   LIG    1       19.886 -19.661   3.631  0.00  0.00    +0.093 OA
ENDBRANCH  23  24
ENDBRANCH  22  23
ENDBRANCH  21  22
ENDBRANCH  20  21
ENDBRANCH  19  20
ENDBRANCH  18  19
ENDBRANCH  17  18
ENDBRANCH  15  17
ENDBRANCH  14  15
ENDBRANCH  13  14
ENDBRANCH  11  13
ENDBRANCH  10  12
ENDBRANCH   1  10
BRANCH   5  27
ATOM     27  C   LIG    1       28.611 -16.129   4.272  0.00  0.00    +0.009 C 
BRANCH  27  28
ATOM     28  C   LIG    1       27.911 -17.455   4.622  0.00  0.00    +0.032 C 
BRANCH  28  29
ATOM     29  C   LIG    1       28.820 -18.430   5.382  0.00  0.00    +0.115 C 
BRANCH  29  30
ATOM     30  O   LIG    1       29.122 -17.873   6.661  0.00  0.00    -0.392 OA
ATOM     31  H   LIG    1       29.790 -17.179   6.529  0.00  0.00    +0.210 HD
ENDBRANCH  29  30
BRANCH  29  32
ATOM     32  C   LIG    1       28.177 -19.808   5.554  0.00  0.00    +0.036 C 
BRANCH  32  33
ATOM     33  C   LIG    1       27.096 -19.788   6.640  0.00  0.00    +0.037 C 
BRANCH  33  34
ATOM     34  C   LIG    1       25.795 -20.375   6.150  0.00  0.00    -0.047 A 
ATOM     35  C   LIG    1       25.546 -20.500   4.778  0.00  0.00    +0.003 A 
ATOM     36  C   LIG    1       24.343 -21.045   4.326  0.00  0.00    +0.000 A 
ATOM     37  C   LIG    1       23.379 -21.465   5.241  0.00  0.00    +0.000 A 
ATOM     38  C   LIG    1       23.613 -21.335   6.609  0.00  0.00    +0.000 A 
ATOM     39  C   LIG    1       24.815 -20.790   7.061  0.00  0.00    +0.003 A 
ENDBRANCH  33  34
ENDBRANCH  32  33
ENDBRANCH  29  32
ENDBRANCH  28  29
ENDBRANCH  27  28
ENDBRANCH   5  27
TORSDOF 22
ENDMDL
