MODEL 1
REMARK VINA RESULT:      -2.7      0.000      0.000
REMARK  Name = *****
REMARK                            x       y       z     vdW  Elec       q    Type
REMARK                         _______ _______ _______ _____ _____    ______ ____
ROOT
ATOM      1  C   LIG    1       23.013 -20.601   4.888  0.00  0.00    +0.070 A 
ATOM      2  C   LIG    1       22.961 -19.397   4.233  0.00  0.00    +0.036 A 
ATOM      3  C   LIG    1       21.707 -19.042   3.565  0.00  0.00    +0.012 A 
ATOM      4  C   LIG    1       20.469 -19.718   3.662  0.00  0.00    +0.001 A 
ATOM      5  C   LIG    1       20.419 -20.818   4.423  0.00  0.00    +0.001 A 
ATOM      6  C   LIG    1       21.656 -21.202   4.926  0.00  0.00    +0.015 A 
ENDROOT
BRANCH   1   7
ATOM      7  C   LIG    1       24.509 -21.208   5.505  0.00  0.00    +0.340 C 
ATOM      8  O   LIG    1       25.435 -21.407   4.853  0.00  0.00    -0.245 OA
BRANCH   7   9
ATOM      9  O   LIG    1       24.885 -21.000   6.840  0.00  0.00    -0.461 OA
BRANCH   9  10
ATOM     10  C   LIG    1       26.344 -20.445   7.058  0.00  0.00    +0.232 C 
BRANCH  10  11
ATOM     11  C   LIG    1       27.699 -21.341   7.043  0.00  0.00    +0.041 C 
BRANCH  11  12
ATOM     12  C   LIG    1       29.158 -20.797   6.751  0.00  0.00    +0.003 C 
BRANCH  12  13
ATOM     13  C   LIG    1       29.475 -19.304   6.883  0.00  0.00    -0.000 C 
BRANCH  13  15
ATOM     14  C   LIG    1       28.100 -18.560   5.007  0.00  0.00    +0.004 C 
ATOM     15  C   LIG    1       29.463 -18.556   5.543  0.00  0.00    -0.003 C 
ENDBRANCH  13  15
ENDBRANCH  12  13
ENDBRANCH  11  12
ENDBRANCH  10  11
ENDBRANCH   9  10
ENDBRANCH   7   9
ENDBRANCH   1   7
BRANCH   2  16
ATOM     16  C   LIG    1       24.127 -18.563   3.896  0.00  0.00    +0.197 C 
ATOM     17  O   LIG    1       25.144 -19.241   3.690  0.00  0.00    -0.286 OA
BRANCH  16  18
ATOM     18  C   LIG    1       24.288 -17.069   3.881  0.00  0.00    +0.064 A 
ATOM     19  C   LIG    1       23.514 -16.030   4.368  0.00  0.00    +0.129 A 
ATOM     20  C   LIG    1       24.062 -14.773   4.723  0.00  0.00    +0.069 A 
ATOM     21  C   LIG    1       25.249 -14.336   4.165  0.00  0.00    +0.033 A 
ATOM     22  C   LIG    1       25.829 -15.279   3.315  0.00  0.00    +0.024 A 
ATOM     23  C   LIG    1       25.416 -16.618   3.232  0.00  0.00    +0.017 A 
BRANCH  19  24
ATOM     24  O   LIG    1       22.145 -16.123   4.498  0.00  0.00    -0.506 OA
ATOM     25  H   LIG    1       21.970 -15.460   5.225  0.00  0.00    +0.292 HD
ENDBRANCH  19  24
BRANCH  21  26
ATOM     26  N   LIG    1       25.766 -13.069   4.400  0.00  0.00    -0.330 N 
BRANCH  26  27
ATOM     27  C   LIG    1       24.986 -11.868   4.023  0.00  0.00    +0.102 C 
ATOM     28  C   LIG    1       24.368 -11.957   2.631  0.00  0.00    +0.024 C 
ENDBRANCH  26  27
BRANCH  26  29
ATOM     29  C   LIG    1       27.182 -12.834   4.741  0.00  0.00    +0.102 C 
ATOM     30  C   LIG    1       28.192 -13.319   3.716  0.00  0.00    +0.024 C 
ENDBRANCH  26  29
ENDBRANCH  21  26
ENDBRANCH  16  18
ENDBRANCH   2  16
TORSDOF 13
ENDMDL
MODEL 2
REMARK VINA RESULT:      -2.3      2.354      6.493
REMARK  Name = *****
REMARK                            x       y       z     vdW  Elec       q    Type
REMARK                         _______ _______ _______ _____ _____    ______ ____
ROOT
ATOM      1  C   LIG    1       26.096 -13.708   3.442  0.00  0.00    +0.070 A 
ATOM      2  C   LIG    1       24.781 -14.094   3.485  0.00  0.00    +0.036 A 
ATOM      3  C   LIG    1       23.795 -13.220   2.845  0.00  0.00    +0.012 A 
ATOM      4  C   LIG    1       24.058 -12.099   2.023  0.00  0.00    +0.001 A 
ATOM      5  C   LIG    1       25.338 -11.769   1.812  0.00  0.00    +0.001 A 
ATOM      6  C   LIG    1       26.237 -12.533   2.546  0.00  0.00    +0.015 A 
ENDROOT
BRANCH   1   7
ATOM      7  C   LIG    1       27.293 -14.549   4.362  0.00  0.00    +0.340 C 
ATOM      8  O   LIG    1       27.546 -14.305   5.457  0.00  0.00    -0.245 OA
BRANCH   7   9
ATOM      9  O   LIG    1       27.650 -15.871   4.060  0.00  0.00    -0.461 OA
BRANCH   9  10
ATOM     10  C   LIG    1       28.489 -16.620   5.164  0.00  0.00    +0.232 C 
BRANCH  10  11
ATOM     11  C   LIG    1       29.029 -18.149   5.053  0.00  0.00    +0.041 C 
BRANCH  11  12
ATOM     12  C   LIG    1       29.475 -19.057   6.273  0.00  0.00    +0.003 C 
BRANCH  12  13
ATOM     13  C   LIG    1       28.898 -20.466   6.449  0.00  0.00    -0.000 C 
BRANCH  13  15
ATOM     14  C   LIG    1       26.500 -20.418   6.904  0.00  0.00    +0.004 C 
ATOM     15  C   LIG    1       27.495 -20.631   5.851  0.00  0.00    -0.003 C 
ENDBRANCH  13  15
ENDBRANCH  12  13
ENDBRANCH  11  12
ENDBRANCH  10  11
ENDBRANCH   9  10
ENDBRANCH   7   9
ENDBRANCH   1   7
BRANCH   2  16
ATOM     16  C   LIG    1       24.233 -15.149   4.356  0.00  0.00    +0.197 C 
ATOM     17  O   LIG    1       24.101 -14.768   5.528  0.00  0.00    -0.286 OA
BRANCH  16  18
ATOM     18  C   LIG    1       23.934 -16.594   4.070  0.00  0.00    +0.064 A 
ATOM     19  C   LIG    1       24.722 -17.664   3.681  0.00  0.00    +0.129 A 
ATOM     20  C   LIG    1       24.380 -19.007   3.971  0.00  0.00    +0.069 A 
ATOM     21  C   LIG    1       23.064 -19.370   4.195  0.00  0.00    +0.033 A 
ATOM     22  C   LIG    1       22.190 -18.281   4.170  0.00  0.00    +0.024 A 
ATOM     23  C   LIG    1       22.606 -16.940   4.186  0.00  0.00    +0.017 A 
BRANCH  19  24
ATOM     24  O   LIG    1       25.874 -17.506   2.942  0.00  0.00    -0.506 OA
ATOM     25  H   LIG    1       26.507 -17.160   3.633  0.00  0.00    +0.292 HD
ENDBRANCH  19  24
BRANCH  21  26
ATOM     26  N   LIG    1       22.669 -20.688   4.374  0.00  0.00    -0.330 N 
BRANCH  26  27
ATOM     27  C   LIG    1       21.435 -21.188   3.726  0.00  0.00    +0.102 C 
ATOM     28  C   LIG    1       20.156 -20.742   4.430  0.00  0.00    +0.024 C 
ENDBRANCH  26  27
BRANCH  26  29
ATOM     29  C   LIG    1       23.248 -21.562   5.412  0.00  0.00    +0.102 C 
ATOM     30  C   LIG    1       23.158 -21.038   6.835  0.00  0.00    +0.024 C 
ENDBRANCH  26  29
ENDBRANCH  21  26
ENDBRANCH  16  18
ENDBRANCH   2  16
TORSDOF 13
ENDMDL
MODEL 3
REMARK VINA RESULT:      -2.2      1.167      4.998
REMARK  Name = *****
REMARK                            x       y       z     vdW  Elec       q    Type
REMARK                         _______ _______ _______ _____ _____    ______ ____
ROOT
ATOM      1  C   LIG    1       26.817 -20.290   5.755  0.00  0.00    +0.070 A 
ATOM      2  C   LIG    1       27.160 -19.283   4.891  0.00  0.00    +0.036 A 
ATOM      3  C   LIG    1       28.403 -18.554   5.157  0.00  0.00    +0.012 A 
ATOM      4  C   LIG    1       29.395 -18.882   6.109  0.00  0.00    +0.001 A 
ATOM      5  C   LIG    1       29.188 -19.958   6.877  0.00  0.00    +0.001 A 
ATOM      6  C   LIG    1       27.940 -20.540   6.694  0.00  0.00    +0.015 A 
ENDROOT
BRANCH   1   7
ATOM      7  C   LIG    1       25.267 -21.048   5.658  0.00  0.00    +0.340 C 
ATOM      8  O   LIG    1       24.868 -21.568   4.714  0.00  0.00    -0.245 OA
BRANCH   7   9
ATOM      9  O   LIG    1       24.628 -21.550   6.801  0.00  0.00    -0.461 OA
BRANCH   9  10
ATOM     10  C   LIG    1       23.116 -21.138   6.973  0.00  0.00    +0.232 C 
BRANCH  10  11
ATOM     11  C   LIG    1       22.077 -20.859   5.755  0.00  0.00    +0.041 C 
BRANCH  11  12
ATOM     12  C   LIG    1       21.977 -19.516   4.921  0.00  0.00    +0.003 C 
BRANCH  12  13
ATOM     13  C   LIG    1       21.306 -19.500   3.544  0.00  0.00    -0.000 C 
BRANCH  13  15
ATOM     14  C   LIG    1       19.623 -17.968   2.659  0.00  0.00    +0.004 C 
ATOM     15  C   LIG    1       19.830 -19.082   3.587  0.00  0.00    -0.003 C 
ENDBRANCH  13  15
ENDBRANCH  12  13
ENDBRANCH  11  12
ENDBRANCH  10  11
ENDBRANCH   9  10
ENDBRANCH   7   9
ENDBRANCH   1   7
BRANCH   2  16
ATOM     16  C   LIG    1       26.262 -18.677   3.893  0.00  0.00    +0.197 C 
ATOM     17  O   LIG    1       25.800 -19.518   3.108  0.00  0.00    -0.286 OA
BRANCH  16  18
ATOM     18  C   LIG    1       25.928 -17.237   3.625  0.00  0.00    +0.064 A 
ATOM     19  C   LIG    1       24.749 -16.514   3.675  0.00  0.00    +0.129 A 
ATOM     20  C   LIG    1       24.720 -15.116   3.906  0.00  0.00    +0.069 A 
ATOM     21  C   LIG    1       25.816 -14.327   3.607  0.00  0.00    +0.033 A 
ATOM     22  C   LIG    1       26.906 -15.066   3.144  0.00  0.00    +0.024 A 
ATOM     23  C   LIG    1       26.996 -16.465   3.221  0.00  0.00    +0.017 A 
BRANCH  19  24
ATOM     24  O   LIG    1       23.516 -17.089   3.455  0.00  0.00    -0.506 OA
ATOM     25  H   LIG    1       22.977 -16.299   3.169  0.00  0.00    +0.292 HD
ENDBRANCH  19  24
BRANCH  21  26
ATOM     26  N   LIG    1       25.795 -12.944   3.714  0.00  0.00    -0.330 N 
BRANCH  26  27
ATOM     27  C   LIG    1       26.341 -12.284   4.923  0.00  0.00    +0.102 C 
ATOM     28  C   LIG    1       27.207 -13.205   5.777  0.00  0.00    +0.024 C 
ENDBRANCH  26  27
BRANCH  26  29
ATOM     29  C   LIG    1       24.996 -12.085   2.820  0.00  0.00    +0.102 C 
ATOM     30  C   LIG    1       23.660 -11.624   3.376  0.00  0.00    +0.024 C 
ENDBRANCH  26  29
ENDBRANCH  21  26
ENDBRANCH  16  18
ENDBRANCH   2  16
TORSDOF 13
ENDMDL
MODEL 4
REMARK VINA RESULT:      -2.1      2.673      7.697
REMARK  Name = *****
REMARK                            x       y       z     vdW  Elec       q    Type
REMARK                         _______ _______ _______ _____ _____    ______ ____
ROOT
ATOM      1  C   LIG    1       26.327 -13.666   4.610  0.00  0.00    +0.070 A 
ATOM      2  C   LIG    1       27.123 -14.563   3.944  0.00  0.00    +0.036 A 
ATOM      3  C   LIG    1       28.489 -14.146   3.619  0.00  0.00    +0.012 A 
ATOM      4  C   LIG    1       29.155 -12.982   4.068  0.00  0.00    +0.001 A 
ATOM      5  C   LIG    1       28.475 -12.143   4.859  0.00  0.00    +0.001 A 
ATOM      6  C   LIG    1       27.143 -12.499   5.031  0.00  0.00    +0.015 A 
ENDROOT
BRANCH   1   7
ATOM      7  C   LIG    1       24.642 -13.976   4.832  0.00  0.00    +0.340 C 
ATOM      8  O   LIG    1       24.090 -13.824   5.829  0.00  0.00    -0.245 OA
BRANCH   7   9
ATOM      9  O   LIG    1       23.741 -13.911   3.759  0.00  0.00    -0.461 OA
BRANCH   9  10
ATOM     10  C   LIG    1       22.794 -15.160   3.588  0.00  0.00    +0.232 C 
BRANCH  10  11
ATOM     11  C   LIG    1       22.386 -16.195   4.773  0.00  0.00    +0.041 C 
BRANCH  11  12
ATOM     12  C   LIG    1       22.466 -17.774   4.682  0.00  0.00    +0.003 C 
BRANCH  12  13
ATOM     13  C   LIG    1       21.377 -18.570   3.953  0.00  0.00    -0.000 C 
BRANCH  13  15
ATOM     14  C   LIG    1       19.506 -18.185   2.433  0.00  0.00    +0.004 C 
ATOM     15  C   LIG    1       20.093 -17.767   3.708  0.00  0.00    -0.003 C 
ENDBRANCH  13  15
ENDBRANCH  12  13
ENDBRANCH  11  12
ENDBRANCH  10  11
ENDBRANCH   9  10
ENDBRANCH   7   9
ENDBRANCH   1   7
BRANCH   2  16
ATOM     16  C   LIG    1       26.648 -15.787   3.277  0.00  0.00    +0.197 C 
ATOM     17  O   LIG    1       26.066 -15.543   2.210  0.00  0.00    -0.286 OA
BRANCH  16  18
ATOM     18  C   LIG    1       26.662 -17.218   3.736  0.00  0.00    +0.064 A 
ATOM     19  C   LIG    1       27.548 -17.956   4.502  0.00  0.00    +0.129 A 
ATOM     20  C   LIG    1       27.146 -19.091   5.249  0.00  0.00    +0.069 A 
ATOM     21  C   LIG    1       26.022 -19.813   4.892  0.00  0.00    +0.033 A 
ATOM     22  C   LIG    1       25.344 -19.256   3.805  0.00  0.00    +0.024 A 
ATOM     23  C   LIG    1       25.599 -17.974   3.294  0.00  0.00    +0.017 A 
BRANCH  19  24
ATOM     24  O   LIG    1       28.896 -17.674   4.557  0.00  0.00    -0.506 OA
ATOM     25  H   LIG    1       29.287 -18.591   4.625  0.00  0.00    +0.292 HD
ENDBRANCH  19  24
BRANCH  21  26
ATOM     26  N   LIG    1       25.654 -20.990   5.526  0.00  0.00    -0.330 N 
BRANCH  26  27
ATOM     27  C   LIG    1       24.305 -21.561   5.307  0.00  0.00    +0.102 C 
ATOM     28  C   LIG    1       23.243 -20.986   6.241  0.00  0.00    +0.024 C 
ENDBRANCH  26  27
BRANCH  26  29
ATOM     29  C   LIG    1       26.422 -21.569   6.644  0.00  0.00    +0.102 C 
ATOM     30  C   LIG    1       27.874 -21.133   6.738  0.00  0.00    +0.024 C 
ENDBRANCH  26  29
ENDBRANCH  21  26
ENDBRANCH  16  18
ENDBRANCH   2  16
TORSDOF 13
ENDMDL
MODEL 5
REMARK VINA RESULT:      -2.0      0.881      1.618
REMARK  Name = *****
REMARK                            x       y       z     vdW  Elec       q    Type
REMARK                         _______ _______ _______ _____ _____    ______ ____
ROOT
ATOM      1  C   LIG    1       22.349 -20.235   4.407  0.00  0.00    +0.070 A 
ATOM      2  C   LIG    1       22.611 -18.952   4.000  0.00  0.00    +0.036 A 
ATOM      3  C   LIG    1       21.515 -18.198   3.387  0.00  0.00    +0.012 A 
ATOM      4  C   LIG    1       20.153 -18.574   3.324  0.00  0.00    +0.001 A 
ATOM      5  C   LIG    1       19.809 -19.754   3.853  0.00  0.00    +0.001 A 
ATOM      6  C   LIG    1       20.893 -20.501   4.298  0.00  0.00    +0.015 A 
ENDROOT
BRANCH   1   7
ATOM      7  C   LIG    1       23.628 -21.275   4.926  0.00  0.00    +0.340 C 
ATOM      8  O   LIG    1       24.601 -21.434   4.335  0.00  0.00    -0.245 OA
BRANCH   7   9
ATOM      9  O   LIG    1       23.825 -21.568   6.283  0.00  0.00    -0.461 OA
BRANCH   9  10
ATOM     10  C   LIG    1       24.854 -20.641   7.037  0.00  0.00    +0.232 C 
BRANCH  10  11
ATOM     11  C   LIG    1       26.464 -20.855   7.061  0.00  0.00    +0.041 C 
BRANCH  11  12
ATOM     12  C   LIG    1       27.501 -20.142   6.098  0.00  0.00    +0.003 C 
BRANCH  12  13
ATOM     13  C   LIG    1       28.919 -19.817   6.581  0.00  0.00    -0.000 C 
BRANCH  13  15
ATOM     14  C   LIG    1       28.583 -18.031   4.951  0.00  0.00    +0.004 C 
ATOM     15  C   LIG    1       29.471 -18.502   6.016  0.00  0.00    -0.003 C 
ENDBRANCH  13  15
ENDBRANCH  12  13
ENDBRANCH  11  12
ENDBRANCH  10  11
ENDBRANCH   9  10
ENDBRANCH   7   9
ENDBRANCH   1   7
BRANCH   2  16
ATOM     16  C   LIG    1       23.954 -18.363   3.858  0.00  0.00    +0.197 C 
ATOM     17  O   LIG    1       24.847 -19.221   3.898  0.00  0.00    -0.286 OA
BRANCH  16  18
ATOM     18  C   LIG    1       24.388 -16.926   3.793  0.00  0.00    +0.064 A 
ATOM     19  C   LIG    1       23.809 -15.743   4.218  0.00  0.00    +0.129 A 
ATOM     20  C   LIG    1       24.572 -14.594   4.542  0.00  0.00    +0.069 A 
ATOM     21  C   LIG    1       25.832 -14.407   4.004  0.00  0.00    +0.033 A 
ATOM     22  C   LIG    1       26.245 -15.475   3.206  0.00  0.00    +0.024 A 
ATOM     23  C   LIG    1       25.594 -16.718   3.160  0.00  0.00    +0.017 A 
BRANCH  19  24
ATOM     24  O   LIG    1       22.444 -15.577   4.312  0.00  0.00    -0.506 OA
ATOM     25  H   LIG    1       22.299 -14.790   3.713  0.00  0.00    +0.292 HD
ENDBRANCH  19  24
BRANCH  21  26
ATOM     26  N   LIG    1       26.569 -13.248   4.206  0.00  0.00    -0.330 N 
BRANCH  26  27
ATOM     27  C   LIG    1       28.028 -13.242   3.951  0.00  0.00    +0.102 C 
ATOM     28  C   LIG    1       28.780 -12.183   4.752  0.00  0.00    +0.024 C 
ENDBRANCH  26  27
BRANCH  26  29
ATOM     29  C   LIG    1       26.041 -12.084   4.943  0.00  0.00    +0.102 C 
ATOM     30  C   LIG    1       24.539 -11.879   4.855  0.00  0.00    +0.024 C 
ENDBRANCH  26  29
ENDBRANCH  21  26
ENDBRANCH  16  18
ENDBRANCH   2  16
TORSDOF 13
ENDMDL
MODEL 6
REMARK VINA RESULT:      -1.2      1.661      2.483
REMARK  Name = *****
REMARK                            x       y       z     vdW  Elec       q    Type
REMARK                         _______ _______ _______ _____ _____    ______ ____
ROOT
ATOM      1  C   LIG    1       24.518 -20.064   4.602  0.00  0.00    +0.070 A 
ATOM      2  C   LIG    1       23.476 -19.302   5.065  0.00  0.00    +0.036 A 
ATOM      3  C   LIG    1       22.742 -19.793   6.233  0.00  0.00    +0.012 A 
ATOM      4  C   LIG    1       23.092 -20.884   7.062  0.00  0.00    +0.001 A 
ATOM      5  C   LIG    1       24.198 -21.572   6.751  0.00  0.00    +0.001 A 
ATOM      6  C   LIG    1       24.788 -21.166   5.560  0.00  0.00    +0.015 A 
ENDROOT
BRANCH   1   7
ATOM      7  C   LIG    1       25.291 -19.688   3.103  0.00  0.00    +0.340 C 
ATOM      8  O   LIG    1       24.996 -20.159   2.097  0.00  0.00    -0.245 OA
BRANCH   7   9
ATOM      9  O   LIG    1       25.925 -18.454   2.899  0.00  0.00    -0.461 OA
BRANCH   9  10
ATOM     10  C   LIG    1       26.902 -17.992   4.047  0.00  0.00    +0.232 C 
BRANCH  10  11
ATOM     11  C   LIG    1       27.497 -18.955   5.213  0.00  0.00    +0.041 C 
BRANCH  11  12
ATOM     12  C   LIG    1       29.031 -19.126   5.570  0.00  0.00    +0.003 C 
BRANCH  12  13
ATOM     13  C   LIG    1       29.459 -19.692   6.929  0.00  0.00    -0.000 C 
BRANCH  13  15
ATOM     14  C   LIG    1       27.799 -21.481   6.998  0.00  0.00    +0.004 C 
ATOM     15  C   LIG    1       29.236 -21.204   7.060  0.00  0.00    -0.003 C 
ENDBRANCH  13  15
ENDBRANCH  12  13
ENDBRANCH  11  12
ENDBRANCH  10  11
ENDBRANCH   9  10
ENDBRANCH   7   9
ENDBRANCH   1   7
BRANCH   2  16
ATOM     16  C   LIG    1       22.847 -18.190   4.331  0.00  0.00    +0.197 C 
ATOM     17  O   LIG    1       21.930 -18.576   3.592  0.00  0.00    -0.286 OA
BRANCH  16  18
ATOM     18  C   LIG    1       23.213 -16.734   4.263  0.00  0.00    +0.064 A 
ATOM     19  C   LIG    1       22.814 -15.624   4.986  0.00  0.00    +0.129 A 
ATOM     20  C   LIG    1       23.630 -14.475   5.132  0.00  0.00    +0.069 A 
ATOM     21  C   LIG    1       24.610 -14.180   4.200  0.00  0.00    +0.033 A 
ATOM     22  C   LIG    1       24.719 -15.150   3.203  0.00  0.00    +0.024 A 
ATOM     23  C   LIG    1       24.108 -16.413   3.266  0.00  0.00    +0.017 A 
BRANCH  19  24
ATOM     24  O   LIG    1       21.573 -15.531   5.578  0.00  0.00    -0.506 OA
ATOM     25  H   LIG    1       21.015 -16.076   4.954  0.00  0.00    +0.292 HD
ENDBRANCH  19  24
BRANCH  21  26
ATOM     26  N   LIG    1       25.357 -13.012   4.243  0.00  0.00    -0.330 N 
BRANCH  26  27
ATOM     27  C   LIG    1       24.709 -11.705   3.986  0.00  0.00    +0.102 C 
ATOM     28  C   LIG    1       23.900 -11.674   2.693  0.00  0.00    +0.024 C 
ENDBRANCH  26  27
BRANCH  26  29
ATOM     29  C   LIG    1       26.832 -13.007   4.246  0.00  0.00    +0.102 C 
ATOM     30  C   LIG    1       27.492 -14.320   4.633  0.00  0.00    +0.024 C 
ENDBRANCH  26  29
ENDBRANCH  21  26
ENDBRANCH  16  18
ENDBRANCH   2  16
TORSDOF 13
ENDMDL
MODEL 7
REMARK VINA RESULT:      -1.0      2.521      6.453
REMARK  Name = *****
REMARK                            x       y       z     vdW  Elec       q    Type
REMARK                         _______ _______ _______ _____ _____    ______ ____
ROOT
ATOM      1  C   LIG    1       26.269 -13.570   4.357  0.00  0.00    +0.070 A 
ATOM      2  C   LIG    1       25.092 -14.166   3.984  0.00  0.00    +0.036 A 
ATOM      3  C   LIG    1       23.845 -13.468   4.308  0.00  0.00    +0.012 A 
ATOM      4  C   LIG    1       23.712 -12.152   4.810  0.00  0.00    +0.001 A 
ATOM      5  C   LIG    1       24.833 -11.459   5.042  0.00  0.00    +0.001 A 
ATOM      6  C   LIG    1       25.993 -12.200   4.856  0.00  0.00    +0.015 A 
ENDROOT
BRANCH   1   7
ATOM      7  C   LIG    1       27.769 -14.419   4.225  0.00  0.00    +0.340 C 
ATOM      8  O   LIG    1       28.721 -13.965   3.768  0.00  0.00    -0.245 OA
BRANCH   7   9
ATOM      9  O   LIG    1       28.095 -15.463   5.102  0.00  0.00    -0.461 OA
BRANCH   9  10
ATOM     10  C   LIG    1       28.340 -16.868   4.428  0.00  0.00    +0.232 C 
BRANCH  10  11
ATOM     11  C   LIG    1       29.222 -18.072   5.069  0.00  0.00    +0.041 C 
BRANCH  11  12
ATOM     12  C   LIG    1       29.020 -18.692   6.513  0.00  0.00    +0.003 C 
BRANCH  12  13
ATOM     13  C   LIG    1       28.779 -20.195   6.691  0.00  0.00    -0.000 C 
BRANCH  13  15
ATOM     14  C   LIG    1       26.500 -20.455   5.854  0.00  0.00    +0.004 C 
ATOM     15  C   LIG    1       27.330 -20.543   7.058  0.00  0.00    -0.003 C 
ENDBRANCH  13  15
ENDBRANCH  12  13
ENDBRANCH  11  12
ENDBRANCH  10  11
ENDBRANCH   9  10
ENDBRANCH   7   9
ENDBRANCH   1   7
BRANCH   2  16
ATOM     16  C   LIG    1       24.949 -15.566   3.548  0.00  0.00    +0.197 C 
ATOM     17  O   LIG    1       25.627 -15.815   2.541  0.00  0.00    -0.286 OA
BRANCH  16  18
ATOM     18  C   LIG    1       24.051 -16.659   4.055  0.00  0.00    +0.064 A 
ATOM     19  C   LIG    1       22.832 -16.654   4.711  0.00  0.00    +0.129 A 
ATOM     20  C   LIG    1       21.919 -17.734   4.632  0.00  0.00    +0.069 A 
ATOM     21  C   LIG    1       22.358 -19.012   4.335  0.00  0.00    +0.033 A 
ATOM     22  C   LIG    1       23.728 -19.067   4.070  0.00  0.00    +0.024 A 
ATOM     23  C   LIG    1       24.532 -17.935   3.859  0.00  0.00    +0.017 A 
BRANCH  19  24
ATOM     24  O   LIG    1       22.436 -15.620   5.531  0.00  0.00    -0.506 OA
ATOM     25  H   LIG    1       23.271 -15.073   5.576  0.00  0.00    +0.292 HD
ENDBRANCH  19  24
BRANCH  21  26
ATOM     26  N   LIG    1       21.518 -20.116   4.354  0.00  0.00    -0.330 N 
BRANCH  26  27
ATOM     27  C   LIG    1       22.022 -21.424   4.833  0.00  0.00    +0.102 C 
ATOM     28  C   LIG    1       22.768 -21.336   6.162  0.00  0.00    +0.024 C 
ENDBRANCH  26  27
BRANCH  26  29
ATOM     29  C   LIG    1       20.222 -20.147   3.650  0.00  0.00    +0.102 C 
ATOM     30  C   LIG    1       19.675 -18.795   3.224  0.00  0.00    +0.024 C 
ENDBRANCH  26  29
ENDBRANCH  21  26
ENDBRANCH  16  18
ENDBRANCH   2  16
TORSDOF 13
ENDMDL
MODEL 8
REMARK VINA RESULT:      -0.9      2.624      6.463
REMARK  Name = *****
REMARK                            x       y       z     vdW  Elec       q    Type
REMARK                         _______ _______ _______ _____ _____    ______ ____
ROOT
ATOM      1  C   LIG    1       25.675 -13.974   3.835  0.00  0.00    +0.070 A 
ATOM      2  C   LIG    1       24.842 -15.064   3.845  0.00  0.00    +0.036 A 
ATOM      3  C   LIG    1       23.537 -14.915   4.494  0.00  0.00    +0.012 A 
ATOM      4  C   LIG    1       22.952 -13.716   4.964  0.00  0.00    +0.001 A 
ATOM      5  C   LIG    1       23.657 -12.586   4.833  0.00  0.00    +0.001 A 
ATOM      6  C   LIG    1       24.942 -12.787   4.343  0.00  0.00    +0.015 A 
ENDROOT
BRANCH   1   7
ATOM      7  C   LIG    1       27.312 -14.119   3.302  0.00  0.00    +0.340 C 
ATOM      8  O   LIG    1       27.698 -13.701   2.303  0.00  0.00    -0.245 OA
BRANCH   7   9
ATOM      9  O   LIG    1       28.367 -14.256   4.216  0.00  0.00    -0.461 OA
BRANCH   9  10
ATOM     10  C   LIG    1       28.341 -15.565   5.095  0.00  0.00    +0.232 C 
BRANCH  10  11
ATOM     11  C   LIG    1       28.722 -17.054   4.569  0.00  0.00    +0.041 C 
BRANCH  11  12
ATOM     12  C   LIG    1       29.153 -18.271   5.487  0.00  0.00    +0.003 C 
BRANCH  12  13
ATOM     13  C   LIG    1       28.446 -19.626   5.370  0.00  0.00    -0.000 C 
BRANCH  13  15
ATOM     14  C   LIG    1       27.573 -21.291   6.927  0.00  0.00    +0.004 C 
ATOM     15  C   LIG    1       27.448 -19.894   6.504  0.00  0.00    -0.003 C 
ENDBRANCH  13  15
ENDBRANCH  12  13
ENDBRANCH  11  12
ENDBRANCH  10  11
ENDBRANCH   9  10
ENDBRANCH   7   9
ENDBRANCH   1   7
BRANCH   2  16
ATOM     16  C   LIG    1       25.245 -16.443   3.521  0.00  0.00    +0.197 C 
ATOM     17  O   LIG    1       26.321 -16.485   2.907  0.00  0.00    -0.286 OA
BRANCH  16  18
ATOM     18  C   LIG    1       24.517 -17.744   3.714  0.00  0.00    +0.064 A 
ATOM     19  C   LIG    1       24.858 -19.063   3.472  0.00  0.00    +0.129 A 
ATOM     20  C   LIG    1       24.282 -20.143   4.186  0.00  0.00    +0.069 A 
ATOM     21  C   LIG    1       23.040 -20.015   4.782  0.00  0.00    +0.033 A 
ATOM     22  C   LIG    1       22.505 -18.732   4.650  0.00  0.00    +0.024 A 
ATOM     23  C   LIG    1       23.237 -17.618   4.207  0.00  0.00    +0.017 A 
BRANCH  19  24
ATOM     24  O   LIG    1       25.747 -19.430   2.485  0.00  0.00    -0.506 OA
ATOM     25  H   LIG    1       26.462 -18.742   2.598  0.00  0.00    +0.292 HD
ENDBRANCH  19  24
BRANCH  21  26
ATOM     26  N   LIG    1       22.391 -21.075   5.397  0.00  0.00    -0.330 N 
BRANCH  26  27
ATOM     27  C   LIG    1       21.099 -21.566   4.862  0.00  0.00    +0.102 C 
ATOM     28  C   LIG    1       20.354 -20.526   4.029  0.00  0.00    +0.024 C 
ENDBRANCH  26  27
BRANCH  26  29
ATOM     29  C   LIG    1       22.760 -21.571   6.736  0.00  0.00    +0.102 C 
ATOM     30  C   LIG    1       24.244 -21.540   7.060  0.00  0.00    +0.024 C 
ENDBRANCH  26  29
ENDBRANCH  21  26
ENDBRANCH  16  18
ENDBRANCH   2  16
TORSDOF 13
ENDMDL
MODEL 9
REMARK VINA RESULT:      -0.4      2.047      4.792
REMARK  Name = *****
REMARK                            x       y       z     vdW  Elec       q    Type
REMARK                         _______ _______ _______ _____ _____    ______ ____
ROOT
ATOM      1  C   LIG    1       23.435 -19.781   5.028  0.00  0.00    +0.070 A 
ATOM      2  C   LIG    1       24.747 -19.938   4.661  0.00  0.00    +0.036 A 
ATOM      3  C   LIG    1       25.628 -20.659   5.583  0.00  0.00    +0.012 A 
ATOM      4  C   LIG    1       25.246 -21.375   6.741  0.00  0.00    +0.001 A 
ATOM      5  C   LIG    1       23.946 -21.392   7.061  0.00  0.00    +0.001 A 
ATOM      6  C   LIG    1       23.163 -20.585   6.246  0.00  0.00    +0.015 A 
ENDROOT
BRANCH   1   7
ATOM      7  C   LIG    1       22.381 -18.754   4.121  0.00  0.00    +0.340 C 
ATOM      8  O   LIG    1       21.244 -18.909   4.050  0.00  0.00    -0.245 OA
BRANCH   7   9
ATOM      9  O   LIG    1       22.710 -17.416   3.865  0.00  0.00    -0.461 OA
BRANCH   9  10
ATOM     10  C   LIG    1       22.474 -16.415   5.061  0.00  0.00    +0.232 C 
BRANCH  10  11
ATOM     11  C   LIG    1       22.799 -14.823   5.028  0.00  0.00    +0.041 C 
BRANCH  11  12
ATOM     12  C   LIG    1       23.633 -14.079   3.906  0.00  0.00    +0.003 C 
BRANCH  12  13
ATOM     13  C   LIG    1       23.914 -12.576   4.010  0.00  0.00    -0.000 C 
BRANCH  13  15
ATOM     14  C   LIG    1       25.112 -12.103   1.936  0.00  0.00    +0.004 C 
ATOM     15  C   LIG    1       23.864 -11.849   2.660  0.00  0.00    -0.003 C 
ENDBRANCH  13  15
ENDBRANCH  12  13
ENDBRANCH  11  12
ENDBRANCH  10  11
ENDBRANCH   9  10
ENDBRANCH   7   9
ENDBRANCH   1   7
BRANCH   2  16
ATOM     16  C   LIG    1       25.416 -19.209   3.570  0.00  0.00    +0.197 C 
ATOM     17  O   LIG    1       25.487 -19.881   2.531  0.00  0.00    -0.286 OA
BRANCH  16  18
ATOM     18  C   LIG    1       26.100 -17.871   3.567  0.00  0.00    +0.064 A 
ATOM     19  C   LIG    1       25.710 -16.610   3.149  0.00  0.00    +0.129 A 
ATOM     20  C   LIG    1       26.257 -15.423   3.696  0.00  0.00    +0.069 A 
ATOM     21  C   LIG    1       27.511 -15.425   4.281  0.00  0.00    +0.033 A 
ATOM     22  C   LIG    1       28.089 -16.696   4.318  0.00  0.00    +0.024 A 
ATOM     23  C   LIG    1       27.391 -17.884   4.049  0.00  0.00    +0.017 A 
BRANCH  19  24
ATOM     24  O   LIG    1       24.795 -16.414   2.138  0.00  0.00    -0.506 OA
ATOM     25  H   LIG    1       25.387 -16.113   1.392  0.00  0.00    +0.292 HD
ENDBRANCH  19  24
BRANCH  21  26
ATOM     26  N   LIG    1       28.131 -14.268   4.729  0.00  0.00    -0.330 N 
BRANCH  26  27
ATOM     27  C   LIG    1       27.730 -13.664   6.021  0.00  0.00    +0.102 C 
ATOM     28  C   LIG    1       26.398 -12.921   5.956  0.00  0.00    +0.024 C 
ENDBRANCH  26  27
BRANCH  26  29
ATOM     29  C   LIG    1       28.975 -13.425   3.861  0.00  0.00    +0.102 C 
ATOM     30  C   LIG    1       28.300 -12.191   3.289  0.00  0.00    +0.024 C 
ENDBRANCH  26  29
ENDBRANCH  21  26
ENDBRANCH  16  18
ENDBRANCH   2  16
TORSDOF 13
ENDMDL
