MODEL 1
REMARK VINA RESULT:      -6.4      0.000      0.000
REMARK  Name = *****
REMARK                            x       y       z     vdW  Elec       q    Type
REMARK                         _______ _______ _______ _____ _____    ______ ____
ROOT
ATOM      1  C   LIG    1       28.442 -20.793   7.663  0.00  0.00    +0.220 C 
ATOM      2  N   LIG    1       29.468 -20.042   8.198  0.00  0.00    -0.288 N 
ATOM      3  C   LIG    1       30.870 -20.532   8.233  0.00  0.00    +0.184 C 
ATOM      4  C   LIG    1       31.678 -19.331   8.759  0.00  0.00    +0.035 C 
ATOM      5  C   LIG    1       30.822 -18.119   8.447  0.00  0.00    +0.021 C 
ATOM      6  C   LIG    1       29.402 -18.638   8.589  0.00  0.00    +0.109 C 
ATOM      7  O   LIG    1       28.656 -21.974   7.373  0.00  0.00    -0.275 OA
ENDROOT
BRANCH   1   9
ATOM      8  C   LIG    1       26.093 -20.681   8.547  0.00  0.00    +0.018 C 
ATOM      9  C   LIG    1       27.055 -20.166   7.467  0.00  0.00    +0.082 C 
BRANCH   9  10
ATOM     10  C   LIG    1       26.567 -20.448   6.036  0.00  0.00    +0.078 C 
BRANCH  10  11
ATOM     11  S   LIG    1       24.812 -20.941   5.933  0.00  0.00    -0.177 S 
ATOM     12  H   LIG    1       24.411 -19.972   5.097  0.00  0.00    +0.102 HD
ENDBRANCH  10  11
ENDBRANCH   9  10
ENDBRANCH   1   9
BRANCH   3  13
ATOM     13  C   LIG    1       31.243 -21.765   9.083  0.00  0.00    +0.326 C 
ATOM     14  O   LIG    1       30.788 -21.965  10.212  0.00  0.00    -0.249 OA
BRANCH  13  15
ATOM     15  O   LIG    1       32.203 -22.564   8.580  0.00  0.00    -0.479 OA
ATOM     16  H   LIG    1       31.857 -23.458   8.331  0.00  0.00    +0.295 HD
ENDBRANCH  13  15
ENDBRANCH   3  13
TORSDOF 5
ENDMDL
MODEL 2
REMARK VINA RESULT:      -5.9      1.690      1.723
REMARK  Name = *****
REMARK                            x       y       z     vdW  Elec       q    Type
REMARK                         _______ _______ _______ _____ _____    ______ ____
ROOT
ATOM      1  C   LIG    1       28.118 -20.859   7.941  0.00  0.00    +0.220 C 
ATOM      2  N   LIG    1       29.096 -20.026   7.440  0.00  0.00    -0.288 N 
ATOM      3  C   LIG    1       30.543 -20.294   7.648  0.00  0.00    +0.184 C 
ATOM      4  C   LIG    1       31.252 -19.221   6.803  0.00  0.00    +0.035 C 
ATOM      5  C   LIG    1       30.231 -18.808   5.761  0.00  0.00    +0.021 C 
ATOM      6  C   LIG    1       28.905 -18.937   6.489  0.00  0.00    +0.109 C 
ATOM      7  O   LIG    1       28.439 -21.747   8.737  0.00  0.00    -0.275 OA
ENDROOT
BRANCH   1   9
ATOM      8  C   LIG    1       25.753 -20.697   8.773  0.00  0.00    +0.018 C 
ATOM      9  C   LIG    1       26.653 -20.654   7.530  0.00  0.00    +0.082 C 
BRANCH   9  10
ATOM     10  C   LIG    1       26.271 -21.699   6.468  0.00  0.00    +0.078 C 
BRANCH  10  11
ATOM     11  S   LIG    1       25.603 -23.250   7.160  0.00  0.00    -0.177 S 
ATOM     12  H   LIG    1       26.169 -23.156   8.371  0.00  0.00    +0.102 HD
ENDBRANCH  10  11
ENDBRANCH   9  10
ENDBRANCH   1   9
BRANCH   3  13
ATOM     13  C   LIG    1       31.145 -20.255   9.069  0.00  0.00    +0.326 C 
ATOM     14  O   LIG    1       30.822 -19.415   9.913  0.00  0.00    -0.249 OA
BRANCH  13  15
ATOM     15  O   LIG    1       32.151 -21.116   9.311  0.00  0.00    -0.479 OA
ATOM     16  H   LIG    1       31.900 -21.814   9.968  0.00  0.00    +0.295 HD
ENDBRANCH  13  15
ENDBRANCH   3  13
TORSDOF 5
ENDMDL
MODEL 3
REMARK VINA RESULT:      -5.8      3.809      5.320
REMARK  Name = *****
REMARK                            x       y       z     vdW  Elec       q    Type
REMARK                         _______ _______ _______ _____ _____    ______ ____
ROOT
ATOM      1  C   LIG    1       25.091 -23.125   6.696  0.00  0.00    +0.220 C 
ATOM      2  N   LIG    1       25.343 -21.886   6.145  0.00  0.00    -0.288 N 
ATOM      3  C   LIG    1       26.547 -21.092   6.504  0.00  0.00    +0.184 C 
ATOM      4  C   LIG    1       26.499 -19.881   5.554  0.00  0.00    +0.035 C 
ATOM      5  C   LIG    1       25.650 -20.337   4.384  0.00  0.00    +0.021 C 
ATOM      6  C   LIG    1       24.642 -21.278   5.019  0.00  0.00    +0.109 C 
ATOM      7  O   LIG    1       25.780 -23.507   7.647  0.00  0.00    -0.275 OA
ENDROOT
BRANCH   1   9
ATOM      8  C   LIG    1       22.626 -23.595   6.818  0.00  0.00    +0.018 C 
ATOM      9  C   LIG    1       23.949 -23.990   6.146  0.00  0.00    +0.082 C 
BRANCH   9  10
ATOM     10  C   LIG    1       24.303 -25.476   6.329  0.00  0.00    +0.078 C 
BRANCH  10  11
ATOM     11  S   LIG    1       25.455 -26.125   5.070  0.00  0.00    -0.177 S 
ATOM     12  H   LIG    1       24.871 -25.568   4.000  0.00  0.00    +0.102 HD
ENDBRANCH  10  11
ENDBRANCH   9  10
ENDBRANCH   1   9
BRANCH   3  13
ATOM     13  C   LIG    1       26.728 -20.561   7.943  0.00  0.00    +0.326 C 
ATOM     14  O   LIG    1       27.826 -20.246   8.408  0.00  0.00    -0.249 OA
BRANCH  13  15
ATOM     15  O   LIG    1       25.632 -20.578   8.724  0.00  0.00    -0.479 OA
ATOM     16  H   LIG    1       24.856 -20.137   8.294  0.00  0.00    +0.295 HD
ENDBRANCH  13  15
ENDBRANCH   3  13
TORSDOF 5
ENDMDL
MODEL 4
REMARK VINA RESULT:      -5.7      5.734      7.267
REMARK  Name = *****
REMARK                            x       y       z     vdW  Elec       q    Type
REMARK                         _______ _______ _______ _____ _____    ______ ____
ROOT
ATOM      1  C   LIG    1       24.733 -24.906   6.436  0.00  0.00    +0.220 C 
ATOM      2  N   LIG    1       25.027 -23.613   6.817  0.00  0.00    -0.288 N 
ATOM      3  C   LIG    1       23.981 -22.678   7.308  0.00  0.00    +0.184 C 
ATOM      4  C   LIG    1       24.767 -21.432   7.756  0.00  0.00    +0.035 C 
ATOM      5  C   LIG    1       26.172 -21.934   8.026  0.00  0.00    +0.021 C 
ATOM      6  C   LIG    1       26.356 -23.045   7.008  0.00  0.00    +0.109 C 
ATOM      7  O   LIG    1       23.550 -25.241   6.324  0.00  0.00    -0.275 OA
ENDROOT
BRANCH   1   9
ATOM      8  C   LIG    1       25.706 -26.450   4.710  0.00  0.00    +0.018 C 
ATOM      9  C   LIG    1       25.871 -25.891   6.130  0.00  0.00    +0.082 C 
BRANCH   9  10
ATOM     10  C   LIG    1       25.902 -26.983   7.213  0.00  0.00    +0.078 C 
BRANCH  10  11
ATOM     11  S   LIG    1       24.980 -28.495   6.769  0.00  0.00    -0.177 S 
ATOM     12  H   LIG    1       23.922 -27.892   6.209  0.00  0.00    +0.102 HD
ENDBRANCH  10  11
ENDBRANCH   9  10
ENDBRANCH   1   9
BRANCH   3  13
ATOM     13  C   LIG    1       22.848 -22.214   6.368  0.00  0.00    +0.326 C 
ATOM     14  O   LIG    1       22.795 -21.078   5.890  0.00  0.00    -0.249 OA
BRANCH  13  15
ATOM     15  O   LIG    1       21.833 -23.080   6.190  0.00  0.00    -0.479 OA
ATOM     16  H   LIG    1       21.197 -22.778   5.493  0.00  0.00    +0.295 HD
ENDBRANCH  13  15
ENDBRANCH   3  13
TORSDOF 5
ENDMDL
MODEL 5
REMARK VINA RESULT:      -5.6      3.354      5.886
REMARK  Name = *****
REMARK                            x       y       z     vdW  Elec       q    Type
REMARK                         _______ _______ _______ _____ _____    ______ ____
ROOT
ATOM      1  C   LIG    1       27.762 -20.193   6.512  0.00  0.00    +0.220 C 
ATOM      2  N   LIG    1       26.453 -20.509   6.813  0.00  0.00    -0.288 N 
ATOM      3  C   LIG    1       25.504 -21.005   5.782  0.00  0.00    +0.184 C 
ATOM      4  C   LIG    1       24.238 -21.369   6.578  0.00  0.00    +0.035 C 
ATOM      5  C   LIG    1       24.722 -21.602   7.995  0.00  0.00    +0.021 C 
ATOM      6  C   LIG    1       25.872 -20.623   8.146  0.00  0.00    +0.109 C 
ATOM      7  O   LIG    1       28.107 -20.142   5.328  0.00  0.00    -0.275 OA
ENDROOT
BRANCH   1   9
ATOM      8  C   LIG    1       29.692 -18.744   7.213  0.00  0.00    +0.018 C 
ATOM      9  C   LIG    1       28.753 -19.880   7.643  0.00  0.00    +0.082 C 
BRANCH   9  10
ATOM     10  C   LIG    1       29.498 -21.168   8.036  0.00  0.00    +0.078 C 
BRANCH  10  11
ATOM     11  S   LIG    1       31.137 -20.877   8.786  0.00  0.00    -0.177 S 
ATOM     12  H   LIG    1       31.419 -19.734   8.145  0.00  0.00    +0.102 HD
ENDBRANCH  10  11
ENDBRANCH   9  10
ENDBRANCH   1   9
BRANCH   3  13
ATOM     13  C   LIG    1       25.084 -20.093   4.609  0.00  0.00    +0.326 C 
ATOM     14  O   LIG    1       23.974 -19.560   4.538  0.00  0.00    -0.249 OA
BRANCH  13  15
ATOM     15  O   LIG    1       25.953 -20.006   3.584  0.00  0.00    -0.479 OA
ATOM     16  H   LIG    1       25.551 -20.288   2.724  0.00  0.00    +0.295 HD
ENDBRANCH  13  15
ENDBRANCH   3  13
TORSDOF 5
ENDMDL
MODEL 6
REMARK VINA RESULT:      -5.6      4.157      6.429
REMARK  Name = *****
REMARK                            x       y       z     vdW  Elec       q    Type
REMARK                         _______ _______ _______ _____ _____    ______ ____
ROOT
ATOM      1  C   LIG    1       26.276 -21.019   6.241  0.00  0.00    +0.220 C 
ATOM      2  N   LIG    1       25.690 -22.231   6.540  0.00  0.00    -0.288 N 
ATOM      3  C   LIG    1       24.366 -22.624   5.991  0.00  0.00    +0.184 C 
ATOM      4  C   LIG    1       24.184 -24.083   6.450  0.00  0.00    +0.035 C 
ATOM      5  C   LIG    1       25.590 -24.588   6.710  0.00  0.00    +0.021 C 
ATOM      6  C   LIG    1       26.324 -23.358   7.214  0.00  0.00    +0.109 C 
ATOM      7  O   LIG    1       25.609 -20.161   5.655  0.00  0.00    -0.275 OA
ENDROOT
BRANCH   1   9
ATOM      8  C   LIG    1       27.755 -20.217   8.108  0.00  0.00    +0.018 C 
ATOM      9  C   LIG    1       27.726 -20.744   6.666  0.00  0.00    +0.082 C 
BRANCH   9  10
ATOM     10  C   LIG    1       28.378 -19.784   5.656  0.00  0.00    +0.078 C 
BRANCH  10  11
ATOM     11  S   LIG    1       29.739 -18.786   6.352  0.00  0.00    -0.177 S 
ATOM     12  H   LIG    1       30.279 -18.398   5.189  0.00  0.00    +0.102 HD
ENDBRANCH  10  11
ENDBRANCH   9  10
ENDBRANCH   1   9
BRANCH   3  13
ATOM     13  C   LIG    1       23.096 -21.839   6.385  0.00  0.00    +0.326 C 
ATOM     14  O   LIG    1       22.921 -21.367   7.510  0.00  0.00    -0.249 OA
BRANCH  13  15
ATOM     15  O   LIG    1       22.114 -21.802   5.466  0.00  0.00    -0.479 OA
ATOM     16  H   LIG    1       21.818 -22.706   5.191  0.00  0.00    +0.295 HD
ENDBRANCH  13  15
ENDBRANCH   3  13
TORSDOF 5
ENDMDL
MODEL 7
REMARK VINA RESULT:      -5.6      4.546      6.151
REMARK  Name = *****
REMARK                            x       y       z     vdW  Elec       q    Type
REMARK                         _______ _______ _______ _____ _____    ______ ____
ROOT
ATOM      1  C   LIG    1       25.539 -23.811   6.801  0.00  0.00    +0.220 C 
ATOM      2  N   LIG    1       24.640 -22.775   6.949  0.00  0.00    -0.288 N 
ATOM      3  C   LIG    1       25.081 -21.363   7.101  0.00  0.00    +0.184 C 
ATOM      4  C   LIG    1       23.773 -20.553   7.077  0.00  0.00    +0.035 C 
ATOM      5  C   LIG    1       22.776 -21.444   6.362  0.00  0.00    +0.021 C 
ATOM      6  C   LIG    1       23.196 -22.846   6.766  0.00  0.00    +0.109 C 
ATOM      7  O   LIG    1       26.740 -23.590   6.983  0.00  0.00    -0.275 OA
ENDROOT
BRANCH   1   9
ATOM      8  C   LIG    1       25.820 -26.268   7.243  0.00  0.00    +0.018 C 
ATOM      9  C   LIG    1       25.034 -25.217   6.447  0.00  0.00    +0.082 C 
BRANCH   9  10
ATOM     10  C   LIG    1       25.121 -25.419   4.924  0.00  0.00    +0.078 C 
BRANCH  10  11
ATOM     11  S   LIG    1       25.890 -26.999   4.428  0.00  0.00    -0.177 S 
ATOM     12  H   LIG    1       25.698 -27.653   5.582  0.00  0.00    +0.102 HD
ENDBRANCH  10  11
ENDBRANCH   9  10
ENDBRANCH   1   9
BRANCH   3  13
ATOM     13  C   LIG    1       25.888 -20.929   8.344  0.00  0.00    +0.326 C 
ATOM     14  O   LIG    1       26.903 -20.233   8.276  0.00  0.00    -0.249 OA
BRANCH  13  15
ATOM     15  O   LIG    1       25.498 -21.459   9.518  0.00  0.00    -0.479 OA
ATOM     16  H   LIG    1       25.850 -20.955  10.295  0.00  0.00    +0.295 HD
ENDBRANCH  13  15
ENDBRANCH   3  13
TORSDOF 5
ENDMDL
MODEL 8
REMARK VINA RESULT:      -5.5      4.157      6.901
REMARK  Name = *****
REMARK                            x       y       z     vdW  Elec       q    Type
REMARK                         _______ _______ _______ _____ _____    ______ ____
ROOT
ATOM      1  C   LIG    1       26.060 -20.656   5.999  0.00  0.00    +0.220 C 
ATOM      2  N   LIG    1       24.758 -21.080   6.165  0.00  0.00    -0.288 N 
ATOM      3  C   LIG    1       23.736 -20.928   5.098  0.00  0.00    +0.184 C 
ATOM      4  C   LIG    1       22.501 -21.664   5.648  0.00  0.00    +0.035 C 
ATOM      5  C   LIG    1       23.052 -22.637   6.672  0.00  0.00    +0.021 C 
ATOM      6  C   LIG    1       24.247 -21.904   7.254  0.00  0.00    +0.109 C 
ATOM      7  O   LIG    1       26.342 -19.967   5.014  0.00  0.00    -0.275 OA
ENDROOT
BRANCH   1   9
ATOM      8  C   LIG    1       26.791 -20.336   8.381  0.00  0.00    +0.018 C 
ATOM      9  C   LIG    1       27.123 -21.017   7.046  0.00  0.00    +0.082 C 
BRANCH   9  10
ATOM     10  C   LIG    1       28.515 -20.648   6.506  0.00  0.00    +0.078 C 
BRANCH  10  11
ATOM     11  S   LIG    1       29.480 -19.568   7.618  0.00  0.00    -0.177 S 
ATOM     12  H   LIG    1       30.356 -20.493   8.037  0.00  0.00    +0.102 HD
ENDBRANCH  10  11
ENDBRANCH   9  10
ENDBRANCH   1   9
BRANCH   3  13
ATOM     13  C   LIG    1       23.289 -19.521   4.644  0.00  0.00    +0.326 C 
ATOM     14  O   LIG    1       22.315 -18.938   5.127  0.00  0.00    -0.249 OA
BRANCH  13  15
ATOM     15  O   LIG    1       23.945 -19.001   3.590  0.00  0.00    -0.479 OA
ATOM     16  H   LIG    1       23.948 -19.610   2.809  0.00  0.00    +0.295 HD
ENDBRANCH  13  15
ENDBRANCH   3  13
TORSDOF 5
ENDMDL
MODEL 9
REMARK VINA RESULT:      -5.5      3.362      5.820
REMARK  Name = *****
REMARK                            x       y       z     vdW  Elec       q    Type
REMARK                         _______ _______ _______ _____ _____    ______ ____
ROOT
ATOM      1  C   LIG    1       26.891 -21.528   6.989  0.00  0.00    +0.220 C 
ATOM      2  N   LIG    1       25.539 -21.730   6.812  0.00  0.00    -0.288 N 
ATOM      3  C   LIG    1       24.897 -23.045   7.069  0.00  0.00    +0.184 C 
ATOM      4  C   LIG    1       23.392 -22.772   6.898  0.00  0.00    +0.035 C 
ATOM      5  C   LIG    1       23.238 -21.280   7.123  0.00  0.00    +0.021 C 
ATOM      6  C   LIG    1       24.531 -20.702   6.578  0.00  0.00    +0.109 C 
ATOM      7  O   LIG    1       27.620 -22.504   7.188  0.00  0.00    -0.275 OA
ENDROOT
BRANCH   1   9
ATOM      8  C   LIG    1       27.799 -19.764   5.447  0.00  0.00    +0.018 C 
ATOM      9  C   LIG    1       27.471 -20.108   6.907  0.00  0.00    +0.082 C 
BRANCH   9  10
ATOM     10  C   LIG    1       28.686 -20.000   7.844  0.00  0.00    +0.078 C 
BRANCH  10  11
ATOM     11  S   LIG    1       30.227 -19.492   7.007  0.00  0.00    -0.177 S 
ATOM     12  H   LIG    1       30.557 -18.498   7.843  0.00  0.00    +0.102 HD
ENDBRANCH  10  11
ENDBRANCH   9  10
ENDBRANCH   1   9
BRANCH   3  13
ATOM     13  C   LIG    1       25.260 -24.271   6.204  0.00  0.00    +0.326 C 
ATOM     14  O   LIG    1       25.845 -25.259   6.652  0.00  0.00    -0.249 OA
BRANCH  13  15
ATOM     15  O   LIG    1       25.018 -24.158   4.884  0.00  0.00    -0.479 OA
ATOM     16  H   LIG    1       24.517 -23.333   4.662  0.00  0.00    +0.295 HD
ENDBRANCH  13  15
ENDBRANCH   3  13
TORSDOF 5
ENDMDL
