MODEL 1
REMARK VINA RESULT:      -4.8      0.000      0.000
REMARK  Name = *****
REMARK                            x       y       z     vdW  Elec       q    Type
REMARK                         _______ _______ _______ _____ _____    ______ ____
ROOT
ATOM      1  C   LIG    1       26.352 -17.128   3.684  0.00  0.00    +0.167 C 
ATOM      2  O   LIG    1       27.551 -17.240   3.964  0.00  0.00    -0.292 OA
ENDROOT
BRANCH   1   7
ATOM      3  C   LIG    1       24.044 -11.828   2.927  0.00  0.00    +0.044 C 
ATOM      4  C   LIG    1       24.634 -13.196   3.111  0.00  0.00    -0.050 A 
ATOM      5  C   LIG    1       25.886 -13.497   2.561  0.00  0.00    +0.004 A 
ATOM      6  C   LIG    1       26.465 -14.761   2.739  0.00  0.00    +0.012 A 
ATOM      7  C   LIG    1       25.795 -15.749   3.472  0.00  0.00    +0.018 A 
ATOM      8  C   LIG    1       24.548 -15.438   4.037  0.00  0.00    +0.012 A 
ATOM      9  C   LIG    1       23.974 -14.175   3.861  0.00  0.00    +0.004 A 
ENDBRANCH   1   7
BRANCH   1  10
ATOM     10  C   LIG    1       25.446 -18.354   3.532  0.00  0.00    +0.071 C 
ATOM     11  C   LIG    1       25.727 -19.021   2.186  0.00  0.00    +0.017 C 
BRANCH  10  12
ATOM     12  C   LIG    1       25.686 -19.325   4.717  0.00  0.00    +0.095 C 
BRANCH  12  13
ATOM     13  N   LIG    1       24.990 -20.627   4.614  0.00  0.00    -0.302 NA
ATOM     14  C   LIG    1       25.324 -21.516   5.742  0.00  0.00    +0.084 C 
ATOM     15  C   LIG    1       24.635 -21.151   7.062  0.00  0.00    +0.015 C 
ATOM     16  C   LIG    1       23.126 -21.004   6.891  0.00  0.00    +0.002 C 
ATOM     17  C   LIG    1       22.800 -20.085   5.719  0.00  0.00    +0.015 C 
ATOM     18  C   LIG    1       23.531 -20.543   4.457  0.00  0.00    +0.084 C 
ENDBRANCH  12  13
ENDBRANCH  10  12
ENDBRANCH   1  10
TORSDOF 4
ENDMDL
MODEL 2
REMARK VINA RESULT:      -4.3      2.789      6.607
REMARK  Name = *****
REMARK                            x       y       z     vdW  Elec       q    Type
REMARK                         _______ _______ _______ _____ _____    ______ ____
ROOT
ATOM      1  C   LIG    1       23.583 -15.275   4.358  0.00  0.00    +0.167 C 
ATOM      2  O   LIG    1       22.662 -14.859   5.070  0.00  0.00    -0.292 OA
ENDROOT
BRANCH   1   7
ATOM      3  C   LIG    1       23.935 -21.050   3.638  0.00  0.00    +0.044 C 
ATOM      4  C   LIG    1       23.850 -19.564   3.834  0.00  0.00    -0.050 A 
ATOM      5  C   LIG    1       24.932 -18.749   3.480  0.00  0.00    +0.004 A 
ATOM      6  C   LIG    1       24.866 -17.358   3.634  0.00  0.00    +0.012 A 
ATOM      7  C   LIG    1       23.710 -16.758   4.151  0.00  0.00    +0.018 A 
ATOM      8  C   LIG    1       22.621 -17.576   4.488  0.00  0.00    +0.012 A 
ATOM      9  C   LIG    1       22.688 -18.965   4.330  0.00  0.00    +0.004 A 
ENDBRANCH   1   7
BRANCH   1  10
ATOM     10  C   LIG    1       24.566 -14.317   3.678  0.00  0.00    +0.071 C 
ATOM     11  C   LIG    1       23.784 -13.314   2.831  0.00  0.00    +0.017 C 
BRANCH  10  12
ATOM     12  C   LIG    1       25.430 -13.611   4.756  0.00  0.00    +0.095 C 
BRANCH  12  13
ATOM     13  N   LIG    1       26.720 -14.270   5.059  0.00  0.00    -0.302 NA
ATOM     14  C   LIG    1       27.362 -14.799   3.842  0.00  0.00    +0.084 C 
ATOM     15  C   LIG    1       28.013 -13.732   2.954  0.00  0.00    +0.015 C 
ATOM     16  C   LIG    1       28.964 -12.839   3.747  0.00  0.00    +0.002 C 
ATOM     17  C   LIG    1       28.284 -12.305   5.003  0.00  0.00    +0.015 C 
ATOM     18  C   LIG    1       27.676 -13.449   5.815  0.00  0.00    +0.084 C 
ENDBRANCH  12  13
ENDBRANCH  10  12
ENDBRANCH   1  10
TORSDOF 4
ENDMDL
MODEL 3
REMARK VINA RESULT:      -4.3      1.932      6.541
REMARK  Name = *****
REMARK                            x       y       z     vdW  Elec       q    Type
REMARK                         _______ _______ _______ _____ _____    ______ ____
ROOT
ATOM      1  C   LIG    1       25.733 -18.118   3.330  0.00  0.00    +0.167 C 
ATOM      2  O   LIG    1       25.833 -18.448   2.144  0.00  0.00    -0.292 OA
ENDROOT
BRANCH   1   7
ATOM      3  C   LIG    1       22.714 -21.571   6.931  0.00  0.00    +0.044 C 
ATOM      4  C   LIG    1       23.494 -20.675   6.013  0.00  0.00    -0.050 A 
ATOM      5  C   LIG    1       24.881 -20.825   5.902  0.00  0.00    +0.004 A 
ATOM      6  C   LIG    1       25.626 -20.013   5.035  0.00  0.00    +0.012 A 
ATOM      7  C   LIG    1       24.990 -19.032   4.264  0.00  0.00    +0.018 A 
ATOM      8  C   LIG    1       23.597 -18.895   4.365  0.00  0.00    +0.012 A 
ATOM      9  C   LIG    1       22.855 -19.709   5.229  0.00  0.00    +0.004 A 
ENDBRANCH   1   7
BRANCH   1  10
ATOM     10  C   LIG    1       26.360 -16.825   3.859  0.00  0.00    +0.071 C 
ATOM     11  C   LIG    1       27.855 -17.048   4.083  0.00  0.00    +0.017 C 
BRANCH  10  12
ATOM     12  C   LIG    1       26.093 -15.672   2.857  0.00  0.00    +0.095 C 
BRANCH  12  13
ATOM     13  N   LIG    1       26.396 -14.315   3.364  0.00  0.00    -0.302 NA
ATOM     14  C   LIG    1       26.182 -13.286   2.330  0.00  0.00    +0.084 C 
ATOM     15  C   LIG    1       24.710 -12.954   2.061  0.00  0.00    +0.015 C 
ATOM     16  C   LIG    1       23.961 -12.620   3.348  0.00  0.00    +0.002 C 
ATOM     17  C   LIG    1       24.196 -13.693   4.406  0.00  0.00    +0.015 C 
ATOM     18  C   LIG    1       25.693 -13.939   4.599  0.00  0.00    +0.084 C 
ENDBRANCH  12  13
ENDBRANCH  10  12
ENDBRANCH   1  10
TORSDOF 4
ENDMDL
MODEL 4
REMARK VINA RESULT:      -4.2      1.210      1.843
REMARK  Name = *****
REMARK                            x       y       z     vdW  Elec       q    Type
REMARK                         _______ _______ _______ _____ _____    ______ ____
ROOT
ATOM      1  C   LIG    1       26.577 -16.492   3.642  0.00  0.00    +0.167 C 
ATOM      2  O   LIG    1       27.723 -16.431   4.101  0.00  0.00    -0.292 OA
ENDROOT
BRANCH   1   7
ATOM      3  C   LIG    1       23.869 -11.448   2.541  0.00  0.00    +0.044 C 
ATOM      4  C   LIG    1       24.571 -12.742   2.835  0.00  0.00    -0.050 A 
ATOM      5  C   LIG    1       23.999 -13.663   3.721  0.00  0.00    +0.004 A 
ATOM      6  C   LIG    1       24.627 -14.886   3.992  0.00  0.00    +0.012 A 
ATOM      7  C   LIG    1       25.845 -15.207   3.380  0.00  0.00    +0.018 A 
ATOM      8  C   LIG    1       26.407 -14.289   2.479  0.00  0.00    +0.012 A 
ATOM      9  C   LIG    1       25.777 -13.070   2.207  0.00  0.00    +0.004 A 
ENDBRANCH   1   7
BRANCH   1  10
ATOM     10  C   LIG    1       25.911 -17.834   3.323  0.00  0.00    +0.071 C 
ATOM     11  C   LIG    1       26.839 -18.969   3.754  0.00  0.00    +0.017 C 
BRANCH  10  12
ATOM     12  C   LIG    1       24.536 -17.912   4.036  0.00  0.00    +0.095 C 
BRANCH  12  13
ATOM     13  N   LIG    1       23.590 -18.901   3.472  0.00  0.00    -0.302 NA
ATOM     14  C   LIG    1       24.180 -20.251   3.416  0.00  0.00    +0.084 C 
ATOM     15  C   LIG    1       24.258 -20.965   4.770  0.00  0.00    +0.015 C 
ATOM     16  C   LIG    1       22.910 -20.972   5.485  0.00  0.00    +0.002 C 
ATOM     17  C   LIG    1       22.314 -19.569   5.530  0.00  0.00    +0.015 C 
ATOM     18  C   LIG    1       22.277 -18.954   4.130  0.00  0.00    +0.084 C 
ENDBRANCH  12  13
ENDBRANCH  10  12
ENDBRANCH   1  10
TORSDOF 4
ENDMDL
MODEL 5
REMARK VINA RESULT:      -4.2      2.065      2.864
REMARK  Name = *****
REMARK                            x       y       z     vdW  Elec       q    Type
REMARK                         _______ _______ _______ _____ _____    ______ ____
ROOT
ATOM      1  C   LIG    1       22.499 -16.639   4.837  0.00  0.00    +0.167 C 
ATOM      2  O   LIG    1       21.769 -15.984   5.589  0.00  0.00    -0.292 OA
ENDROOT
BRANCH   1   7
ATOM      3  C   LIG    1       27.118 -13.885   2.583  0.00  0.00    +0.044 C 
ATOM      4  C   LIG    1       25.924 -14.595   3.153  0.00  0.00    -0.050 A 
ATOM      5  C   LIG    1       25.916 -15.993   3.233  0.00  0.00    +0.004 A 
ATOM      6  C   LIG    1       24.821 -16.676   3.781  0.00  0.00    +0.012 A 
ATOM      7  C   LIG    1       23.711 -15.967   4.256  0.00  0.00    +0.018 A 
ATOM      8  C   LIG    1       23.730 -14.565   4.190  0.00  0.00    +0.012 A 
ATOM      9  C   LIG    1       24.825 -13.885   3.646  0.00  0.00    +0.004 A 
ENDBRANCH   1   7
BRANCH   1  10
ATOM     10  C   LIG    1       22.204 -18.106   4.509  0.00  0.00    +0.071 C 
ATOM     11  C   LIG    1       21.115 -18.170   3.439  0.00  0.00    +0.017 C 
BRANCH  10  12
ATOM     12  C   LIG    1       23.508 -18.806   4.046  0.00  0.00    +0.095 C 
BRANCH  12  13
ATOM     13  N   LIG    1       23.531 -20.275   4.226  0.00  0.00    -0.302 NA
ATOM     14  C   LIG    1       24.909 -20.794   4.304  0.00  0.00    +0.084 C 
ATOM     15  C   LIG    1       25.610 -20.530   5.641  0.00  0.00    +0.015 C 
ATOM     16  C   LIG    1       24.767 -20.997   6.824  0.00  0.00    +0.002 C 
ATOM     17  C   LIG    1       23.345 -20.454   6.724  0.00  0.00    +0.015 C 
ATOM     18  C   LIG    1       22.740 -20.777   5.358  0.00  0.00    +0.084 C 
ENDBRANCH  12  13
ENDBRANCH  10  12
ENDBRANCH   1  10
TORSDOF 4
ENDMDL
MODEL 6
REMARK VINA RESULT:      -4.0      2.630      6.699
REMARK  Name = *****
REMARK                            x       y       z     vdW  Elec       q    Type
REMARK                         _______ _______ _______ _____ _____    ______ ____
ROOT
ATOM      1  C   LIG    1       22.103 -17.526   4.041  0.00  0.00    +0.167 C 
ATOM      2  O   LIG    1       21.129 -17.897   3.378  0.00  0.00    -0.292 OA
ENDROOT
BRANCH   1   7
ATOM      3  C   LIG    1       25.852 -21.572   5.931  0.00  0.00    +0.044 C 
ATOM      4  C   LIG    1       24.892 -20.522   5.451  0.00  0.00    -0.050 A 
ATOM      5  C   LIG    1       25.241 -19.694   4.377  0.00  0.00    +0.004 A 
ATOM      6  C   LIG    1       24.352 -18.722   3.899  0.00  0.00    +0.012 A 
ATOM      7  C   LIG    1       23.094 -18.561   4.494  0.00  0.00    +0.018 A 
ATOM      8  C   LIG    1       22.741 -19.403   5.560  0.00  0.00    +0.012 A 
ATOM      9  C   LIG    1       23.629 -20.375   6.033  0.00  0.00    +0.004 A 
ENDBRANCH   1   7
BRANCH   1  10
ATOM     10  C   LIG    1       22.323 -16.050   4.386  0.00  0.00    +0.071 C 
ATOM     11  C   LIG    1       22.007 -15.828   5.865  0.00  0.00    +0.017 C 
BRANCH  10  12
ATOM     12  C   LIG    1       23.782 -15.649   4.043  0.00  0.00    +0.095 C 
BRANCH  12  13
ATOM     13  N   LIG    1       24.138 -14.247   4.354  0.00  0.00    -0.302 NA
ATOM     14  C   LIG    1       25.544 -14.122   4.778  0.00  0.00    +0.084 C 
ATOM     15  C   LIG    1       26.562 -14.222   3.636  0.00  0.00    +0.015 C 
ATOM     16  C   LIG    1       26.232 -13.260   2.498  0.00  0.00    +0.002 C 
ATOM     17  C   LIG    1       24.773 -13.400   2.075  0.00  0.00    +0.015 C 
ATOM     18  C   LIG    1       23.848 -13.279   3.286  0.00  0.00    +0.084 C 
ENDBRANCH  12  13
ENDBRANCH  10  12
ENDBRANCH   1  10
TORSDOF 4
ENDMDL
MODEL 7
REMARK VINA RESULT:      -4.0      2.164      2.709
REMARK  Name = *****
REMARK                            x       y       z     vdW  Elec       q    Type
REMARK                         _______ _______ _______ _____ _____    ______ ____
ROOT
ATOM      1  C   LIG    1       24.565 -15.458   3.796  0.00  0.00    +0.167 C 
ATOM      2  O   LIG    1       23.490 -14.937   4.110  0.00  0.00    -0.292 OA
ENDROOT
BRANCH   1   7
ATOM      3  C   LIG    1       29.349 -12.144   4.143  0.00  0.00    +0.044 C 
ATOM      4  C   LIG    1       28.111 -12.987   4.050  0.00  0.00    -0.050 A 
ATOM      5  C   LIG    1       27.731 -13.538   2.820  0.00  0.00    +0.004 A 
ATOM      6  C   LIG    1       26.591 -14.347   2.715  0.00  0.00    +0.012 A 
ATOM      7  C   LIG    1       25.808 -14.615   3.845  0.00  0.00    +0.018 A 
ATOM      8  C   LIG    1       26.201 -14.075   5.079  0.00  0.00    +0.012 A 
ATOM      9  C   LIG    1       27.342 -13.271   5.183  0.00  0.00    +0.004 A 
ENDBRANCH   1   7
BRANCH   1  10
ATOM     10  C   LIG    1       24.652 -16.931   3.383  0.00  0.00    +0.071 C 
ATOM     11  C   LIG    1       26.117 -17.370   3.400  0.00  0.00    +0.017 C 
BRANCH  10  12
ATOM     12  C   LIG    1       23.783 -17.789   4.339  0.00  0.00    +0.095 C 
BRANCH  12  13
ATOM     13  N   LIG    1       23.358 -19.099   3.797  0.00  0.00    -0.302 NA
ATOM     14  C   LIG    1       24.510 -19.982   3.539  0.00  0.00    +0.084 C 
ATOM     15  C   LIG    1       25.127 -20.603   4.797  0.00  0.00    +0.015 C 
ATOM     16  C   LIG    1       24.076 -21.291   5.664  0.00  0.00    +0.002 C 
ATOM     17  C   LIG    1       22.892 -20.364   5.917  0.00  0.00    +0.015 C 
ATOM     18  C   LIG    1       22.351 -19.808   4.599  0.00  0.00    +0.084 C 
ENDBRANCH  12  13
ENDBRANCH  10  12
ENDBRANCH   1  10
TORSDOF 4
ENDMDL
MODEL 8
REMARK VINA RESULT:      -2.6      1.289      1.717
REMARK  Name = *****
REMARK                            x       y       z     vdW  Elec       q    Type
REMARK                         _______ _______ _______ _____ _____    ______ ____
ROOT
ATOM      1  C   LIG    1       26.001 -18.540   3.305  0.00  0.00    +0.167 C 
ATOM      2  O   LIG    1       25.558 -19.106   2.300  0.00  0.00    -0.292 OA
ENDROOT
BRANCH   1   7
ATOM      3  C   LIG    1       24.618 -12.930   4.079  0.00  0.00    +0.044 C 
ATOM      4  C   LIG    1       24.972 -14.373   3.868  0.00  0.00    -0.050 A 
ATOM      5  C   LIG    1       26.274 -14.726   3.493  0.00  0.00    +0.004 A 
ATOM      6  C   LIG    1       26.632 -16.069   3.312  0.00  0.00    +0.012 A 
ATOM      7  C   LIG    1       25.687 -17.084   3.501  0.00  0.00    +0.018 A 
ATOM      8  C   LIG    1       24.387 -16.728   3.893  0.00  0.00    +0.012 A 
ATOM      9  C   LIG    1       24.032 -15.387   4.076  0.00  0.00    +0.004 A 
ENDBRANCH   1   7
BRANCH   1  10
ATOM     10  C   LIG    1       26.836 -19.292   4.347  0.00  0.00    +0.071 C 
ATOM     11  C   LIG    1       27.979 -18.392   4.817  0.00  0.00    +0.017 C 
BRANCH  10  12
ATOM     12  C   LIG    1       25.925 -19.729   5.523  0.00  0.00    +0.095 C 
BRANCH  12  13
ATOM     13  N   LIG    1       25.492 -21.144   5.492  0.00  0.00    -0.302 NA
ATOM     14  C   LIG    1       24.928 -21.571   6.786  0.00  0.00    +0.084 C 
ATOM     15  C   LIG    1       23.512 -21.052   7.062  0.00  0.00    +0.015 C 
ATOM     16  C   LIG    1       22.562 -21.357   5.907  0.00  0.00    +0.002 C 
ATOM     17  C   LIG    1       23.164 -20.912   4.578  0.00  0.00    +0.015 C 
ATOM     18  C   LIG    1       24.569 -21.490   4.403  0.00  0.00    +0.084 C 
ENDBRANCH  12  13
ENDBRANCH  10  12
ENDBRANCH   1  10
TORSDOF 4
ENDMDL
MODEL 9
REMARK VINA RESULT:      -2.2      2.780      6.609
REMARK  Name = *****
REMARK                            x       y       z     vdW  Elec       q    Type
REMARK                         _______ _______ _______ _____ _____    ______ ____
ROOT
ATOM      1  C   LIG    1       24.006 -15.878   3.924  0.00  0.00    +0.167 C 
ATOM      2  O   LIG    1       23.082 -15.057   3.919  0.00  0.00    -0.292 OA
ENDROOT
BRANCH   1   7
ATOM      3  C   LIG    1       22.566 -21.462   4.789  0.00  0.00    +0.044 C 
ATOM      4  C   LIG    1       22.943 -20.024   4.576  0.00  0.00    -0.050 A 
ATOM      5  C   LIG    1       24.171 -19.703   3.986  0.00  0.00    +0.004 A 
ATOM      6  C   LIG    1       24.533 -18.369   3.759  0.00  0.00    +0.012 A 
ATOM      7  C   LIG    1       23.669 -17.329   4.123  0.00  0.00    +0.018 A 
ATOM      8  C   LIG    1       22.431 -17.655   4.700  0.00  0.00    +0.012 A 
ATOM      9  C   LIG    1       22.070 -18.988   4.923  0.00  0.00    +0.004 A 
ENDBRANCH   1   7
BRANCH   1  10
ATOM     10  C   LIG    1       25.461 -15.450   3.714  0.00  0.00    +0.071 C 
ATOM     11  C   LIG    1       26.288 -16.669   3.305  0.00  0.00    +0.017 C 
BRANCH  10  12
ATOM     12  C   LIG    1       25.522 -14.328   2.645  0.00  0.00    +0.095 C 
BRANCH  12  13
ATOM     13  N   LIG    1       25.848 -12.981   3.164  0.00  0.00    -0.302 NA
ATOM     14  C   LIG    1       25.595 -12.879   4.613  0.00  0.00    +0.084 C 
ATOM     15  C   LIG    1       26.645 -13.569   5.490  0.00  0.00    +0.015 C 
ATOM     16  C   LIG    1       28.061 -13.123   5.135  0.00  0.00    +0.002 C 
ATOM     17  C   LIG    1       28.303 -13.232   3.633  0.00  0.00    +0.015 C 
ATOM     18  C   LIG    1       27.204 -12.506   2.857  0.00  0.00    +0.084 C 
ENDBRANCH  12  13
ENDBRANCH  10  12
ENDBRANCH   1  10
TORSDOF 4
ENDMDL
