MODEL 1
REMARK VINA RESULT:      -9.6      0.000      0.000
REMARK  Name = *****
REMARK                            x       y       z     vdW  Elec       q    Type
REMARK                         _______ _______ _______ _____ _____    ______ ____
ROOT
ATOM      1  C   LIG    1       26.182 -20.652   8.795  0.00  0.00    +0.027 C 
ATOM      2  C   LIG    1       26.330 -20.324   7.291  0.00  0.00    +0.086 C 
ENDROOT
BRANCH   2   3
ATOM      3  N   LIG    1       27.552 -21.001   6.749  0.00  0.00    -0.297 NA
ATOM      4  C   LIG    1       28.230 -20.315   5.653  0.00  0.00    +0.085 C 
ATOM      5  C   LIG    1       29.037 -19.083   6.079  0.00  0.00    +0.019 C 
ATOM      6  C   LIG    1       29.726 -19.249   7.448  0.00  0.00    -0.004 C 
ATOM      7  C   LIG    1       29.898 -20.737   7.755  0.00  0.00    +0.019 C 
ATOM      8  C   LIG    1       28.527 -21.442   7.770  0.00  0.00    +0.085 C 
BRANCH   6   9
ATOM      9  C   LIG    1       31.012 -18.410   7.650  0.00  0.00    +0.038 C 
BRANCH   9  10
ATOM     10  C   LIG    1       31.167 -17.672   8.961  0.00  0.00    -0.047 A 
ATOM     11  C   LIG    1       32.261 -16.830   9.198  0.00  0.00    +0.003 A 
ATOM     12  C   LIG    1       32.455 -16.232  10.442  0.00  0.00    +0.000 A 
ATOM     13  C   LIG    1       31.507 -16.396  11.445  0.00  0.00    +0.000 A 
ATOM     14  C   LIG    1       30.365 -17.153  11.201  0.00  0.00    +0.000 A 
ATOM     15  C   LIG    1       30.201 -17.798   9.970  0.00  0.00    +0.003 A 
ENDBRANCH   9  10
ENDBRANCH   6   9
ENDBRANCH   2   3
BRANCH   2  16
ATOM     16  C   LIG    1       24.968 -20.713   6.567  0.00  0.00    +0.161 C 
BRANCH  16  17
ATOM     17  C   LIG    1       24.627 -22.203   6.478  0.00  0.00    -0.017 A 
ATOM     18  C   LIG    1       25.592 -23.164   6.141  0.00  0.00    +0.010 A 
ATOM     19  C   LIG    1       25.267 -24.521   6.050  0.00  0.00    +0.046 A 
ATOM     20  C   LIG    1       23.972 -24.941   6.323  0.00  0.00    +0.117 A 
ATOM     21  C   LIG    1       23.004 -24.030   6.715  0.00  0.00    +0.046 A 
ATOM     22  C   LIG    1       23.334 -22.672   6.798  0.00  0.00    +0.010 A 
BRANCH  20  23
ATOM     23  O   LIG    1       23.688 -26.268   6.196  0.00  0.00    -0.507 OA
ATOM     24  H   LIG    1       23.417 -26.608   7.066  0.00  0.00    +0.292 HD
ENDBRANCH  20  23
ENDBRANCH  16  17
BRANCH  16  25
ATOM     25  O   LIG    1       24.987 -20.158   5.243  0.00  0.00    -0.386 OA
ATOM     26  H   LIG    1       25.271 -19.234   5.325  0.00  0.00    +0.210 HD
ENDBRANCH  16  25
ENDBRANCH   2  16
TORSDOF 7
ENDMDL
MODEL 2
REMARK VINA RESULT:      -9.5      2.946      8.649
REMARK  Name = *****
REMARK                            x       y       z     vdW  Elec       q    Type
REMARK                         _______ _______ _______ _____ _____    ______ ____
ROOT
ATOM      1  C   LIG    1       29.818 -18.201   6.089  0.00  0.00    +0.027 C 
ATOM      2  C   LIG    1       29.420 -19.220   7.183  0.00  0.00    +0.086 C 
ENDROOT
BRANCH   2   3
ATOM      3  N   LIG    1       28.793 -20.421   6.543  0.00  0.00    -0.297 NA
ATOM      4  C   LIG    1       28.440 -21.514   7.444  0.00  0.00    +0.085 C 
ATOM      5  C   LIG    1       27.194 -21.253   8.298  0.00  0.00    +0.019 C 
ATOM      6  C   LIG    1       26.099 -20.463   7.554  0.00  0.00    -0.004 C 
ATOM      7  C   LIG    1       26.285 -20.631   6.046  0.00  0.00    +0.019 C 
ATOM      8  C   LIG    1       27.677 -20.126   5.619  0.00  0.00    +0.085 C 
BRANCH   6   9
ATOM      9  C   LIG    1       24.651 -20.713   8.044  0.00  0.00    +0.038 C 
BRANCH   9  10
ATOM     10  C   LIG    1       23.600 -21.007   6.998  0.00  0.00    -0.047 A 
ATOM     11  C   LIG    1       23.006 -22.272   6.899  0.00  0.00    +0.003 A 
ATOM     12  C   LIG    1       22.113 -22.571   5.871  0.00  0.00    +0.000 A 
ATOM     13  C   LIG    1       21.730 -21.580   4.975  0.00  0.00    +0.000 A 
ATOM     14  C   LIG    1       22.237 -20.291   5.112  0.00  0.00    +0.000 A 
ATOM     15  C   LIG    1       23.176 -20.008   6.110  0.00  0.00    +0.003 A 
ENDBRANCH   9  10
ENDBRANCH   6   9
ENDBRANCH   2   3
BRANCH   2  16
ATOM     16  C   LIG    1       30.710 -19.522   8.064  0.00  0.00    +0.161 C 
BRANCH  16  17
ATOM     17  C   LIG    1       31.137 -18.447   9.067  0.00  0.00    -0.017 A 
ATOM     18  C   LIG    1       32.253 -17.627   8.842  0.00  0.00    +0.010 A 
ATOM     19  C   LIG    1       32.642 -16.657   9.770  0.00  0.00    +0.046 A 
ATOM     20  C   LIG    1       31.901 -16.474  10.931  0.00  0.00    +0.117 A 
ATOM     21  C   LIG    1       30.759 -17.225  11.163  0.00  0.00    +0.046 A 
ATOM     22  C   LIG    1       30.379 -18.199  10.233  0.00  0.00    +0.010 A 
BRANCH  20  23
ATOM     23  O   LIG    1       32.329 -15.538  11.824  0.00  0.00    -0.507 OA
ATOM     24  H   LIG    1       33.212 -15.796  12.137  0.00  0.00    +0.292 HD
ENDBRANCH  20  23
ENDBRANCH  16  17
BRANCH  16  25
ATOM     25  O   LIG    1       31.806 -19.798   7.179  0.00  0.00    -0.386 OA
ATOM     26  H   LIG    1       32.622 -19.643   7.679  0.00  0.00    +0.210 HD
ENDBRANCH  16  25
ENDBRANCH   2  16
TORSDOF 7
ENDMDL
MODEL 3
REMARK VINA RESULT:      -9.2      3.147      8.384
REMARK  Name = *****
REMARK                            x       y       z     vdW  Elec       q    Type
REMARK                         _______ _______ _______ _____ _____    ______ ____
ROOT
ATOM      1  C   LIG    1       29.007 -19.994   6.190  0.00  0.00    +0.027 C 
ATOM      2  C   LIG    1       29.029 -19.787   7.724  0.00  0.00    +0.086 C 
ENDROOT
BRANCH   2   3
ATOM      3  N   LIG    1       28.161 -20.818   8.379  0.00  0.00    -0.297 NA
ATOM      4  C   LIG    1       26.805 -20.392   8.714  0.00  0.00    +0.085 C 
ATOM      5  C   LIG    1       25.860 -20.285   7.510  0.00  0.00    +0.019 C 
ATOM      6  C   LIG    1       26.103 -21.373   6.446  0.00  0.00    -0.004 C 
ATOM      7  C   LIG    1       26.801 -22.571   7.091  0.00  0.00    +0.019 C 
ATOM      8  C   LIG    1       28.143 -22.137   7.712  0.00  0.00    +0.085 C 
BRANCH   6   9
ATOM      9  C   LIG    1       24.869 -21.748   5.587  0.00  0.00    +0.038 C 
BRANCH   9  10
ATOM     10  C   LIG    1       24.059 -20.617   4.996  0.00  0.00    -0.047 A 
ATOM     11  C   LIG    1       24.585 -19.790   3.996  0.00  0.00    +0.003 A 
ATOM     12  C   LIG    1       23.874 -18.686   3.526  0.00  0.00    +0.000 A 
ATOM     13  C   LIG    1       22.585 -18.443   3.986  0.00  0.00    +0.000 A 
ATOM     14  C   LIG    1       22.008 -19.307   4.912  0.00  0.00    +0.000 A 
ATOM     15  C   LIG    1       22.744 -20.381   5.424  0.00  0.00    +0.003 A 
ENDBRANCH   9  10
ENDBRANCH   6   9
ENDBRANCH   2   3
BRANCH   2  16
ATOM     16  C   LIG    1       30.548 -19.786   8.197  0.00  0.00    +0.161 C 
BRANCH  16  17
ATOM     17  C   LIG    1       31.001 -18.624   9.085  0.00  0.00    -0.017 A 
ATOM     18  C   LIG    1       32.108 -17.828   8.753  0.00  0.00    +0.010 A 
ATOM     19  C   LIG    1       32.521 -16.777   9.577  0.00  0.00    +0.046 A 
ATOM     20  C   LIG    1       31.814 -16.489  10.737  0.00  0.00    +0.117 A 
ATOM     21  C   LIG    1       30.681 -17.216  11.070  0.00  0.00    +0.046 A 
ATOM     22  C   LIG    1       30.277 -18.271  10.244  0.00  0.00    +0.010 A 
BRANCH  20  23
ATOM     23  O   LIG    1       32.265 -15.475  11.528  0.00  0.00    -0.507 OA
ATOM     24  H   LIG    1       31.555 -15.230  12.145  0.00  0.00    +0.292 HD
ENDBRANCH  20  23
ENDBRANCH  16  17
BRANCH  16  25
ATOM     25  O   LIG    1       31.384 -19.838   7.030  0.00  0.00    -0.386 OA
ATOM     26  H   LIG    1       31.892 -20.662   7.080  0.00  0.00    +0.210 HD
ENDBRANCH  16  25
ENDBRANCH   2  16
TORSDOF 7
ENDMDL
MODEL 4
REMARK VINA RESULT:      -9.2      1.648      3.048
REMARK  Name = *****
REMARK                            x       y       z     vdW  Elec       q    Type
REMARK                         _______ _______ _______ _____ _____    ______ ____
ROOT
ATOM      1  C   LIG    1       24.019 -21.713   4.198  0.00  0.00    +0.027 C 
ATOM      2  C   LIG    1       24.954 -21.959   5.406  0.00  0.00    +0.086 C 
ENDROOT
BRANCH   2   3
ATOM      3  N   LIG    1       25.380 -20.644   5.984  0.00  0.00    -0.297 NA
ATOM      4  C   LIG    1       25.553 -20.609   7.434  0.00  0.00    +0.085 C 
ATOM      5  C   LIG    1       26.826 -21.302   7.935  0.00  0.00    +0.019 C 
ATOM      6  C   LIG    1       28.033 -21.116   6.995  0.00  0.00    -0.004 C 
ATOM      7  C   LIG    1       27.821 -19.870   6.134  0.00  0.00    +0.019 C 
ATOM      8  C   LIG    1       26.528 -20.005   5.307  0.00  0.00    +0.085 C 
BRANCH   6   9
ATOM      9  C   LIG    1       29.422 -21.186   7.676  0.00  0.00    +0.038 C 
BRANCH   9  10
ATOM     10  C   LIG    1       30.068 -19.880   8.082  0.00  0.00    -0.047 A 
ATOM     11  C   LIG    1       31.296 -19.477   7.543  0.00  0.00    +0.003 A 
ATOM     12  C   LIG    1       31.937 -18.324   7.994  0.00  0.00    +0.000 A 
ATOM     13  C   LIG    1       31.317 -17.506   8.930  0.00  0.00    +0.000 A 
ATOM     14  C   LIG    1       30.054 -17.840   9.411  0.00  0.00    +0.000 A 
ATOM     15  C   LIG    1       29.438 -19.026   8.999  0.00  0.00    +0.003 A 
ENDBRANCH   9  10
ENDBRANCH   6   9
ENDBRANCH   2   3
BRANCH   2  16
ATOM     16  C   LIG    1       24.203 -22.930   6.419  0.00  0.00    +0.161 C 
BRANCH  16  17
ATOM     17  C   LIG    1       24.626 -24.401   6.418  0.00  0.00    -0.017 A 
ATOM     18  C   LIG    1       23.824 -25.401   5.847  0.00  0.00    +0.010 A 
ATOM     19  C   LIG    1       24.213 -26.743   5.863  0.00  0.00    +0.046 A 
ATOM     20  C   LIG    1       25.429 -27.104   6.429  0.00  0.00    +0.117 A 
ATOM     21  C   LIG    1       26.276 -26.139   6.952  0.00  0.00    +0.046 A 
ATOM     22  C   LIG    1       25.877 -24.798   6.939  0.00  0.00    +0.010 A 
BRANCH  20  23
ATOM     23  O   LIG    1       25.759 -28.426   6.451  0.00  0.00    -0.507 OA
ATOM     24  H   LIG    1       26.727 -28.498   6.517  0.00  0.00    +0.292 HD
ENDBRANCH  20  23
ENDBRANCH  16  17
BRANCH  16  25
ATOM     25  O   LIG    1       22.793 -22.847   6.160  0.00  0.00    -0.386 OA
ATOM     26  H   LIG    1       22.665 -22.147   5.501  0.00  0.00    +0.210 HD
ENDBRANCH  16  25
ENDBRANCH   2  16
TORSDOF 7
ENDMDL
MODEL 5
REMARK VINA RESULT:      -9.0      2.741      8.601
REMARK  Name = *****
REMARK                            x       y       z     vdW  Elec       q    Type
REMARK                         _______ _______ _______ _____ _____    ______ ____
ROOT
ATOM      1  C   LIG    1       25.912 -20.688   8.597  0.00  0.00    +0.027 C 
ATOM      2  C   LIG    1       26.056 -21.605   7.360  0.00  0.00    +0.086 C 
ENDROOT
BRANCH   2   3
ATOM      3  N   LIG    1       24.731 -21.726   6.671  0.00  0.00    -0.297 NA
ATOM      4  C   LIG    1       24.774 -22.124   5.267  0.00  0.00    +0.085 C 
ATOM      5  C   LIG    1       25.088 -23.608   5.039  0.00  0.00    +0.019 C 
ATOM      6  C   LIG    1       24.460 -24.534   6.100  0.00  0.00    -0.004 C 
ATOM      7  C   LIG    1       23.267 -23.832   6.747  0.00  0.00    +0.019 C 
ATOM      8  C   LIG    1       23.715 -22.511   7.403  0.00  0.00    +0.085 C 
BRANCH   6   9
ATOM      9  C   LIG    1       24.164 -25.979   5.627  0.00  0.00    +0.038 C 
BRANCH   9  10
ATOM     10  C   LIG    1       24.686 -27.114   6.478  0.00  0.00    -0.047 A 
ATOM     11  C   LIG    1       24.063 -28.369   6.480  0.00  0.00    +0.003 A 
ATOM     12  C   LIG    1       24.485 -29.381   7.341  0.00  0.00    +0.000 A 
ATOM     13  C   LIG    1       25.597 -29.184   8.152  0.00  0.00    +0.000 A 
ATOM     14  C   LIG    1       26.287 -27.977   8.097  0.00  0.00    +0.000 A 
ATOM     15  C   LIG    1       25.828 -26.943   7.274  0.00  0.00    +0.003 A 
ENDBRANCH   9  10
ENDBRANCH   6   9
ENDBRANCH   2   3
BRANCH   2  16
ATOM     16  C   LIG    1       27.234 -21.031   6.458  0.00  0.00    +0.161 C 
BRANCH  16  17
ATOM     17  C   LIG    1       28.539 -20.659   7.168  0.00  0.00    -0.017 A 
ATOM     18  C   LIG    1       29.287 -21.606   7.884  0.00  0.00    +0.010 A 
ATOM     19  C   LIG    1       30.470 -21.253   8.540  0.00  0.00    +0.046 A 
ATOM     20  C   LIG    1       30.938 -19.947   8.467  0.00  0.00    +0.117 A 
ATOM     21  C   LIG    1       30.257 -18.996   7.722  0.00  0.00    +0.046 A 
ATOM     22  C   LIG    1       29.070 -19.354   7.074  0.00  0.00    +0.010 A 
BRANCH  20  23
ATOM     23  O   LIG    1       32.079 -19.636   9.143  0.00  0.00    -0.507 OA
ATOM     24  H   LIG    1       32.024 -20.027  10.032  0.00  0.00    +0.292 HD
ENDBRANCH  20  23
ENDBRANCH  16  17
BRANCH  16  25
ATOM     25  O   LIG    1       26.741 -19.882   5.751  0.00  0.00    -0.386 OA
ATOM     26  H   LIG    1       26.344 -20.203   4.927  0.00  0.00    +0.210 HD
ENDBRANCH  16  25
ENDBRANCH   2  16
TORSDOF 7
ENDMDL
MODEL 6
REMARK VINA RESULT:      -9.0      1.960      2.907
REMARK  Name = *****
REMARK                            x       y       z     vdW  Elec       q    Type
REMARK                         _______ _______ _______ _____ _____    ______ ____
ROOT
ATOM      1  C   LIG    1       26.998 -20.388   8.622  0.00  0.00    +0.027 C 
ATOM      2  C   LIG    1       27.084 -20.451   7.078  0.00  0.00    +0.086 C 
ENDROOT
BRANCH   2   3
ATOM      3  N   LIG    1       28.429 -20.973   6.673  0.00  0.00    -0.297 NA
ATOM      4  C   LIG    1       29.127 -20.210   5.642  0.00  0.00    +0.085 C 
ATOM      5  C   LIG    1       29.729 -18.887   6.133  0.00  0.00    +0.019 C 
ATOM      6  C   LIG    1       30.289 -18.966   7.566  0.00  0.00    -0.004 C 
ATOM      7  C   LIG    1       30.608 -20.422   7.909  0.00  0.00    +0.019 C 
ATOM      8  C   LIG    1       29.340 -21.290   7.793  0.00  0.00    +0.085 C 
BRANCH   6   9
ATOM      9  C   LIG    1       31.435 -17.975   7.887  0.00  0.00    +0.038 C 
BRANCH   9  10
ATOM     10  C   LIG    1       31.472 -17.375   9.274  0.00  0.00    -0.047 A 
ATOM     11  C   LIG    1       32.599 -16.683   9.738  0.00  0.00    +0.003 A 
ATOM     12  C   LIG    1       32.670 -16.219  11.051  0.00  0.00    +0.000 A 
ATOM     13  C   LIG    1       31.577 -16.361  11.897  0.00  0.00    +0.000 A 
ATOM     14  C   LIG    1       30.413 -16.963  11.428  0.00  0.00    +0.000 A 
ATOM     15  C   LIG    1       30.364 -17.477  10.128  0.00  0.00    +0.003 A 
ENDBRANCH   9  10
ENDBRANCH   6   9
ENDBRANCH   2   3
BRANCH   2  16
ATOM     16  C   LIG    1       25.845 -21.300   6.552  0.00  0.00    +0.161 C 
BRANCH  16  17
ATOM     17  C   LIG    1       24.750 -20.541   5.798  0.00  0.00    -0.017 A 
ATOM     18  C   LIG    1       24.986 -19.951   4.546  0.00  0.00    +0.010 A 
ATOM     19  C   LIG    1       23.983 -19.249   3.872  0.00  0.00    +0.046 A 
ATOM     20  C   LIG    1       22.715 -19.149   4.430  0.00  0.00    +0.117 A 
ATOM     21  C   LIG    1       22.427 -19.765   5.637  0.00  0.00    +0.046 A 
ATOM     22  C   LIG    1       23.437 -20.461   6.311  0.00  0.00    +0.010 A 
BRANCH  20  23
ATOM     23  O   LIG    1       21.773 -18.432   3.755  0.00  0.00    -0.507 OA
ATOM     24  H   LIG    1       21.199 -17.993   4.406  0.00  0.00    +0.292 HD
ENDBRANCH  20  23
ENDBRANCH  16  17
BRANCH  16  25
ATOM     25  O   LIG    1       25.257 -21.980   7.671  0.00  0.00    -0.386 OA
ATOM     26  H   LIG    1       25.293 -21.372   8.426  0.00  0.00    +0.210 HD
ENDBRANCH  16  25
ENDBRANCH   2  16
TORSDOF 7
ENDMDL
MODEL 7
REMARK VINA RESULT:      -9.0      2.514      8.449
REMARK  Name = *****
REMARK                            x       y       z     vdW  Elec       q    Type
REMARK                         _______ _______ _______ _____ _____    ______ ____
ROOT
ATOM      1  C   LIG    1       28.969 -21.482   7.692  0.00  0.00    +0.027 C 
ATOM      2  C   LIG    1       28.494 -20.582   6.527  0.00  0.00    +0.086 C 
ENDROOT
BRANCH   2   3
ATOM      3  N   LIG    1       27.117 -20.070   6.820  0.00  0.00    -0.297 NA
ATOM      4  C   LIG    1       26.132 -20.237   5.754  0.00  0.00    +0.085 C 
ATOM      5  C   LIG    1       25.621 -21.673   5.585  0.00  0.00    +0.019 C 
ATOM      6  C   LIG    1       25.469 -22.428   6.920  0.00  0.00    -0.004 C 
ATOM      7  C   LIG    1       25.323 -21.421   8.061  0.00  0.00    +0.019 C 
ATOM      8  C   LIG    1       26.555 -20.496   8.119  0.00  0.00    +0.085 C 
BRANCH   6   9
ATOM      9  C   LIG    1       24.404 -23.553   6.929  0.00  0.00    +0.038 C 
BRANCH   9  10
ATOM     10  C   LIG    1       24.834 -24.927   6.468  0.00  0.00    -0.047 A 
ATOM     11  C   LIG    1       26.173 -25.334   6.542  0.00  0.00    +0.003 A 
ATOM     12  C   LIG    1       26.583 -26.561   6.023  0.00  0.00    +0.000 A 
ATOM     13  C   LIG    1       25.644 -27.442   5.500  0.00  0.00    +0.000 A 
ATOM     14  C   LIG    1       24.296 -27.096   5.501  0.00  0.00    +0.000 A 
ATOM     15  C   LIG    1       23.894 -25.841   5.971  0.00  0.00    +0.003 A 
ENDBRANCH   9  10
ENDBRANCH   6   9
ENDBRANCH   2   3
BRANCH   2  16
ATOM     16  C   LIG    1       29.595 -19.457   6.295  0.00  0.00    +0.161 C 
BRANCH  16  17
ATOM     17  C   LIG    1       30.244 -18.849   7.541  0.00  0.00    -0.017 A 
ATOM     18  C   LIG    1       31.636 -18.834   7.719  0.00  0.00    +0.010 A 
ATOM     19  C   LIG    1       32.217 -18.288   8.867  0.00  0.00    +0.046 A 
ATOM     20  C   LIG    1       31.411 -17.721   9.846  0.00  0.00    +0.117 A 
ATOM     21  C   LIG    1       30.036 -17.665   9.682  0.00  0.00    +0.046 A 
ATOM     22  C   LIG    1       29.460 -18.220   8.534  0.00  0.00    +0.010 A 
BRANCH  20  23
ATOM     23  O   LIG    1       32.014 -17.224  10.963  0.00  0.00    -0.507 OA
ATOM     24  H   LIG    1       32.575 -17.921  11.343  0.00  0.00    +0.292 HD
ENDBRANCH  20  23
ENDBRANCH  16  17
BRANCH  16  25
ATOM     25  O   LIG    1       29.008 -18.407   5.512  0.00  0.00    -0.386 OA
ATOM     26  H   LIG    1       28.067 -18.620   5.408  0.00  0.00    +0.210 HD
ENDBRANCH  16  25
ENDBRANCH   2  16
TORSDOF 7
ENDMDL
MODEL 8
REMARK VINA RESULT:      -8.8      3.111      8.895
REMARK  Name = *****
REMARK                            x       y       z     vdW  Elec       q    Type
REMARK                         _______ _______ _______ _____ _____    ______ ____
ROOT
ATOM      1  C   LIG    1       29.463 -17.537   8.021  0.00  0.00    +0.027 C 
ATOM      2  C   LIG    1       29.880 -18.963   8.452  0.00  0.00    +0.086 C 
ENDROOT
BRANCH   2   3
ATOM      3  N   LIG    1       29.558 -19.931   7.354  0.00  0.00    -0.297 NA
ATOM      4  C   LIG    1       29.171 -21.274   7.778  0.00  0.00    +0.085 C 
ATOM      5  C   LIG    1       27.753 -21.372   8.352  0.00  0.00    +0.019 C 
ATOM      6  C   LIG    1       26.742 -20.450   7.642  0.00  0.00    -0.004 C 
ATOM      7  C   LIG    1       27.254 -20.116   6.240  0.00  0.00    +0.019 C 
ATOM      8  C   LIG    1       28.628 -19.422   6.324  0.00  0.00    +0.085 C 
BRANCH   6   9
ATOM      9  C   LIG    1       25.269 -20.927   7.679  0.00  0.00    +0.038 C 
BRANCH   9  10
ATOM     10  C   LIG    1       24.989 -22.363   7.301  0.00  0.00    -0.047 A 
ATOM     11  C   LIG    1       26.005 -23.328   7.301  0.00  0.00    +0.003 A 
ATOM     12  C   LIG    1       25.766 -24.627   6.855  0.00  0.00    +0.000 A 
ATOM     13  C   LIG    1       24.482 -25.008   6.485  0.00  0.00    +0.000 A 
ATOM     14  C   LIG    1       23.438 -24.091   6.565  0.00  0.00    +0.000 A 
ATOM     15  C   LIG    1       23.691 -22.773   6.959  0.00  0.00    +0.003 A 
ENDBRANCH   9  10
ENDBRANCH   6   9
ENDBRANCH   2   3
BRANCH   2  16
ATOM     16  C   LIG    1       31.411 -18.919   8.883  0.00  0.00    +0.161 C 
BRANCH  16  17
ATOM     17  C   LIG    1       31.818 -17.846   9.897  0.00  0.00    -0.017 A 
ATOM     18  C   LIG    1       32.645 -16.769   9.542  0.00  0.00    +0.010 A 
ATOM     19  C   LIG    1       33.022 -15.802  10.478  0.00  0.00    +0.046 A 
ATOM     20  C   LIG    1       32.554 -15.884  11.783  0.00  0.00    +0.117 A 
ATOM     21  C   LIG    1       31.691 -16.901  12.159  0.00  0.00    +0.046 A 
ATOM     22  C   LIG    1       31.322 -17.870  11.219  0.00  0.00    +0.010 A 
BRANCH  20  23
ATOM     23  O   LIG    1       32.967 -14.938  12.673  0.00  0.00    -0.507 OA
ATOM     24  H   LIG    1       33.590 -15.354  13.293  0.00  0.00    +0.292 HD
ENDBRANCH  20  23
ENDBRANCH  16  17
BRANCH  16  25
ATOM     25  O   LIG    1       32.208 -18.771   7.698  0.00  0.00    -0.386 OA
ATOM     26  H   LIG    1       33.134 -18.712   7.983  0.00  0.00    +0.210 HD
ENDBRANCH  16  25
ENDBRANCH   2  16
TORSDOF 7
ENDMDL
MODEL 9
REMARK VINA RESULT:      -8.8      3.233      7.969
REMARK  Name = *****
REMARK                            x       y       z     vdW  Elec       q    Type
REMARK                         _______ _______ _______ _____ _____    ______ ____
ROOT
ATOM      1  C   LIG    1       23.552 -18.911   4.234  0.00  0.00    +0.027 C 
ATOM      2  C   LIG    1       24.176 -20.023   5.110  0.00  0.00    +0.086 C 
ENDROOT
BRANCH   2   3
ATOM      3  N   LIG    1       23.319 -21.251   5.043  0.00  0.00    -0.297 NA
ATOM      4  C   LIG    1       23.869 -22.373   4.287  0.00  0.00    +0.085 C 
ATOM      5  C   LIG    1       24.991 -23.131   5.007  0.00  0.00    +0.019 C 
ATOM      6  C   LIG    1       24.777 -23.238   6.529  0.00  0.00    -0.004 C 
ATOM      7  C   LIG    1       23.290 -23.075   6.847  0.00  0.00    +0.019 C 
ATOM      8  C   LIG    1       22.782 -21.710   6.341  0.00  0.00    +0.085 C 
BRANCH   6   9
ATOM      9  C   LIG    1       25.437 -24.464   7.208  0.00  0.00    +0.038 C 
BRANCH   9  10
ATOM     10  C   LIG    1       25.432 -25.771   6.449  0.00  0.00    -0.047 A 
ATOM     11  C   LIG    1       26.591 -26.257   5.829  0.00  0.00    +0.003 A 
ATOM     12  C   LIG    1       26.559 -27.410   5.045  0.00  0.00    +0.000 A 
ATOM     13  C   LIG    1       25.385 -28.146   4.940  0.00  0.00    +0.000 A 
ATOM     14  C   LIG    1       24.245 -27.730   5.623  0.00  0.00    +0.000 A 
ATOM     15  C   LIG    1       24.265 -26.544   6.363  0.00  0.00    +0.003 A 
ENDBRANCH   9  10
ENDBRANCH   6   9
ENDBRANCH   2   3
BRANCH   2  16
ATOM     16  C   LIG    1       25.683 -20.227   4.645  0.00  0.00    +0.161 C 
BRANCH  16  17
ATOM     17  C   LIG    1       26.767 -20.115   5.721  0.00  0.00    -0.017 A 
ATOM     18  C   LIG    1       28.062 -19.665   5.423  0.00  0.00    +0.010 A 
ATOM     19  C   LIG    1       29.047 -19.578   6.411  0.00  0.00    +0.046 A 
ATOM     20  C   LIG    1       28.742 -19.917   7.723  0.00  0.00    +0.117 A 
ATOM     21  C   LIG    1       27.459 -20.313   8.068  0.00  0.00    +0.046 A 
ATOM     22  C   LIG    1       26.479 -20.404   7.073  0.00  0.00    +0.010 A 
BRANCH  20  23
ATOM     23  O   LIG    1       29.738 -19.847   8.651  0.00  0.00    -0.507 OA
ATOM     24  H   LIG    1       29.533 -19.120   9.264  0.00  0.00    +0.292 HD
ENDBRANCH  20  23
ENDBRANCH  16  17
BRANCH  16  25
ATOM     25  O   LIG    1       25.963 -19.284   3.598  0.00  0.00    -0.386 OA
ATOM     26  H   LIG    1       26.916 -19.330   3.420  0.00  0.00    +0.210 HD
ENDBRANCH  16  25
ENDBRANCH   2  16
TORSDOF 7
ENDMDL
