MODEL 1
REMARK VINA RESULT:      -3.4      0.000      0.000
REMARK  Name = *****
REMARK                            x       y       z     vdW  Elec       q    Type
REMARK                         _______ _______ _______ _____ _____    ______ ____
ROOT
ATOM      1  C   LIG    1       23.719 -18.999   3.704  0.00  0.00    -0.037 C 
ATOM      2  C   LIG    1       24.227 -20.088   4.339  0.00  0.00    -0.037 C 
ENDROOT
BRANCH   1   3
ATOM      3  C   LIG    1       24.438 -17.703   3.689  0.00  0.00    -0.021 A 
ATOM      4  C   LIG    1       25.775 -17.636   3.279  0.00  0.00    +0.012 A 
ATOM      5  C   LIG    1       26.439 -16.408   3.249  0.00  0.00    +0.046 A 
ATOM      6  C   LIG    1       25.770 -15.252   3.632  0.00  0.00    +0.117 A 
ATOM      7  C   LIG    1       24.445 -15.300   4.053  0.00  0.00    +0.046 A 
ATOM      8  C   LIG    1       23.779 -16.529   4.079  0.00  0.00    +0.012 A 
BRANCH   6   9
ATOM      9  O   LIG    1       26.455 -14.074   3.577  0.00  0.00    -0.507 OA
ATOM     10  H   LIG    1       25.954 -13.403   4.069  0.00  0.00    +0.292 HD
ENDBRANCH   6   9
ENDBRANCH   1   3
BRANCH   2  11
ATOM     11  C   LIG    1       25.526 -20.030   5.048  0.00  0.00    -0.021 A 
ATOM     12  C   LIG    1       26.685 -19.638   4.363  0.00  0.00    +0.012 A 
ATOM     13  C   LIG    1       27.914 -19.607   5.022  0.00  0.00    +0.046 A 
ATOM     14  C   LIG    1       27.984 -19.964   6.363  0.00  0.00    +0.117 A 
ATOM     15  C   LIG    1       26.843 -20.346   7.062  0.00  0.00    +0.046 A 
ATOM     16  C   LIG    1       25.613 -20.380   6.401  0.00  0.00    +0.012 A 
BRANCH  14  17
ATOM     17  O   LIG    1       29.207 -19.932   6.966  0.00  0.00    -0.507 OA
ATOM     18  H   LIG    1       29.666 -19.122   6.687  0.00  0.00    +0.292 HD
ENDBRANCH  14  17
ENDBRANCH   2  11
BRANCH   1  20
ATOM     19  C   LIG    1       21.225 -18.598   3.947  0.00  0.00    +0.009 C 
ATOM     20  C   LIG    1       22.373 -18.944   3.008  0.00  0.00    +0.033 C 
ENDBRANCH   1  20
BRANCH   2  21
ATOM     21  C   LIG    1       23.534 -21.433   4.455  0.00  0.00    +0.033 C 
ATOM     22  C   LIG    1       22.564 -21.511   5.627  0.00  0.00    +0.009 C 
ENDBRANCH   2  21
TORSDOF 6
ENDMDL
MODEL 2
REMARK VINA RESULT:      -3.1      2.587      4.733
REMARK  Name = *****
REMARK                            x       y       z     vdW  Elec       q    Type
REMARK                         _______ _______ _______ _____ _____    ______ ____
ROOT
ATOM      1  C   LIG    1       24.041 -14.007   4.498  0.00  0.00    -0.037 C 
ATOM      2  C   LIG    1       23.403 -15.208   4.477  0.00  0.00    -0.037 C 
ENDROOT
BRANCH   1   3
ATOM      3  C   LIG    1       25.471 -13.881   4.132  0.00  0.00    -0.021 A 
ATOM      4  C   LIG    1       25.863 -13.864   2.787  0.00  0.00    +0.012 A 
ATOM      5  C   LIG    1       27.210 -13.726   2.450  0.00  0.00    +0.046 A 
ATOM      6  C   LIG    1       28.165 -13.608   3.454  0.00  0.00    +0.117 A 
ATOM      7  C   LIG    1       27.796 -13.633   4.796  0.00  0.00    +0.046 A 
ATOM      8  C   LIG    1       26.447 -13.768   5.132  0.00  0.00    +0.012 A 
BRANCH   6   9
ATOM      9  O   LIG    1       29.467 -13.464   3.079  0.00  0.00    -0.507 OA
ATOM     10  H   LIG    1       29.881 -12.798   3.652  0.00  0.00    +0.292 HD
ENDBRANCH   6   9
ENDBRANCH   1   3
BRANCH   2  11
ATOM     11  C   LIG    1       24.111 -16.449   4.088  0.00  0.00    -0.021 A 
ATOM     12  C   LIG    1       23.452 -17.684   4.150  0.00  0.00    +0.012 A 
ATOM     13  C   LIG    1       24.124 -18.858   3.807  0.00  0.00    +0.046 A 
ATOM     14  C   LIG    1       25.452 -18.797   3.402  0.00  0.00    +0.117 A 
ATOM     15  C   LIG    1       26.120 -17.579   3.325  0.00  0.00    +0.046 A 
ATOM     16  C   LIG    1       25.447 -16.404   3.670  0.00  0.00    +0.012 A 
BRANCH  14  17
ATOM     17  O   LIG    1       26.075 -19.968   3.089  0.00  0.00    -0.507 OA
ATOM     18  H   LIG    1       25.836 -20.632   3.757  0.00  0.00    +0.292 HD
ENDBRANCH  14  17
ENDBRANCH   2  11
BRANCH   1  20
ATOM     19  C   LIG    1       23.709 -11.544   3.991  0.00  0.00    +0.009 C 
ATOM     20  C   LIG    1       23.420 -12.697   4.942  0.00  0.00    +0.033 C 
ENDBRANCH   1  20
BRANCH   2  21
ATOM     21  C   LIG    1       21.962 -15.439   4.892  0.00  0.00    +0.033 C 
ATOM     22  C   LIG    1       21.752 -15.373   6.400  0.00  0.00    +0.009 C 
ENDBRANCH   2  21
TORSDOF 6
ENDMDL
MODEL 3
REMARK VINA RESULT:      -2.8      2.612      5.788
REMARK  Name = *****
REMARK                            x       y       z     vdW  Elec       q    Type
REMARK                         _______ _______ _______ _____ _____    ______ ____
ROOT
ATOM      1  C   LIG    1       23.437 -15.195   4.553  0.00  0.00    -0.037 C 
ATOM      2  C   LIG    1       24.080 -13.997   4.561  0.00  0.00    -0.037 C 
ENDROOT
BRANCH   1   3
ATOM      3  C   LIG    1       24.118 -16.440   4.129  0.00  0.00    -0.021 A 
ATOM      4  C   LIG    1       25.449 -16.410   3.693  0.00  0.00    +0.012 A 
ATOM      5  C   LIG    1       26.090 -17.591   3.313  0.00  0.00    +0.046 A 
ATOM      6  C   LIG    1       25.402 -18.798   3.366  0.00  0.00    +0.117 A 
ATOM      7  C   LIG    1       24.077 -18.846   3.787  0.00  0.00    +0.046 A 
ATOM      8  C   LIG    1       23.436 -17.664   4.169  0.00  0.00    +0.012 A 
BRANCH   6   9
ATOM      9  O   LIG    1       26.071 -19.927   2.996  0.00  0.00    -0.507 OA
ATOM     10  H   LIG    1       25.933 -20.068   2.045  0.00  0.00    +0.292 HD
ENDBRANCH   6   9
ENDBRANCH   1   3
BRANCH   2  11
ATOM     11  C   LIG    1       25.496 -13.881   4.142  0.00  0.00    -0.021 A 
ATOM     12  C   LIG    1       26.507 -13.758   5.106  0.00  0.00    +0.012 A 
ATOM     13  C   LIG    1       27.839 -13.624   4.714  0.00  0.00    +0.046 A 
ATOM     14  C   LIG    1       28.160 -13.614   3.362  0.00  0.00    +0.117 A 
ATOM     15  C   LIG    1       27.172 -13.745   2.392  0.00  0.00    +0.046 A 
ATOM     16  C   LIG    1       25.838 -13.877   2.785  0.00  0.00    +0.012 A 
BRANCH  14  17
ATOM     17  O   LIG    1       29.473 -13.468   3.022  0.00  0.00    -0.507 OA
ATOM     18  H   LIG    1       29.563 -12.662   2.487  0.00  0.00    +0.292 HD
ENDBRANCH  14  17
ENDBRANCH   2  11
BRANCH   1  20
ATOM     19  C   LIG    1       21.702 -15.343   6.399  0.00  0.00    +0.009 C 
ATOM     20  C   LIG    1       21.976 -15.402   4.902  0.00  0.00    +0.033 C 
ENDBRANCH   1  20
BRANCH   2  21
ATOM     21  C   LIG    1       23.446 -12.667   4.922  0.00  0.00    +0.033 C 
ATOM     22  C   LIG    1       23.719 -11.572   3.897  0.00  0.00    +0.009 C 
ENDBRANCH   2  21
TORSDOF 6
ENDMDL
MODEL 4
REMARK VINA RESULT:      -1.9      2.244      4.603
REMARK  Name = *****
REMARK                            x       y       z     vdW  Elec       q    Type
REMARK                         _______ _______ _______ _____ _____    ______ ____
ROOT
ATOM      1  C   LIG    1       27.735 -19.346   5.558  0.00  0.00    -0.037 C 
ATOM      2  C   LIG    1       26.981 -20.400   5.969  0.00  0.00    -0.037 C 
ENDROOT
BRANCH   1   3
ATOM      3  C   LIG    1       27.173 -18.276   4.702  0.00  0.00    -0.021 A 
ATOM      4  C   LIG    1       25.916 -18.429   4.104  0.00  0.00    +0.012 A 
ATOM      5  C   LIG    1       25.385 -17.408   3.314  0.00  0.00    +0.046 A 
ATOM      6  C   LIG    1       26.110 -16.238   3.119  0.00  0.00    +0.117 A 
ATOM      7  C   LIG    1       27.365 -16.072   3.696  0.00  0.00    +0.046 A 
ATOM      8  C   LIG    1       27.895 -17.093   4.489  0.00  0.00    +0.012 A 
BRANCH   6   9
ATOM      9  O   LIG    1       25.548 -15.263   2.349  0.00  0.00    -0.507 OA
ATOM     10  H   LIG    1       25.194 -15.674   1.543  0.00  0.00    +0.292 HD
ENDBRANCH   6   9
ENDBRANCH   1   3
BRANCH   2  11
ATOM     11  C   LIG    1       25.559 -20.528   5.577  0.00  0.00    -0.021 A 
ATOM     12  C   LIG    1       24.545 -20.229   6.499  0.00  0.00    +0.012 A 
ATOM     13  C   LIG    1       23.205 -20.372   6.140  0.00  0.00    +0.046 A 
ATOM     14  C   LIG    1       22.878 -20.812   4.863  0.00  0.00    +0.117 A 
ATOM     15  C   LIG    1       23.869 -21.105   3.932  0.00  0.00    +0.046 A 
ATOM     16  C   LIG    1       25.212 -20.963   4.293  0.00  0.00    +0.012 A 
BRANCH  14  17
ATOM     17  O   LIG    1       21.556 -20.951   4.558  0.00  0.00    -0.507 OA
ATOM     18  H   LIG    1       21.036 -20.798   5.365  0.00  0.00    +0.292 HD
ENDBRANCH  14  17
ENDBRANCH   2  11
BRANCH   1  20
ATOM     19  C   LIG    1       29.474 -18.272   7.062  0.00  0.00    +0.009 C 
ATOM     20  C   LIG    1       29.211 -19.162   5.854  0.00  0.00    +0.033 C 
ENDBRANCH   1  20
BRANCH   2  21
ATOM     21  C   LIG    1       27.487 -21.568   6.795  0.00  0.00    +0.033 C 
ATOM     22  C   LIG    1       29.000 -21.565   6.976  0.00  0.00    +0.009 C 
ENDBRANCH   2  21
TORSDOF 6
ENDMDL
MODEL 5
REMARK VINA RESULT:      -1.8      2.262      5.498
REMARK  Name = *****
REMARK                            x       y       z     vdW  Elec       q    Type
REMARK                         _______ _______ _______ _____ _____    ______ ____
ROOT
ATOM      1  C   LIG    1       26.914 -20.366   5.860  0.00  0.00    -0.037 C 
ATOM      2  C   LIG    1       27.748 -19.366   5.470  0.00  0.00    -0.037 C 
ENDROOT
BRANCH   1   3
ATOM      3  C   LIG    1       25.476 -20.361   5.503  0.00  0.00    -0.021 A 
ATOM      4  C   LIG    1       25.062 -20.698   4.209  0.00  0.00    +0.012 A 
ATOM      5  C   LIG    1       23.704 -20.710   3.886  0.00  0.00    +0.046 A 
ATOM      6  C   LIG    1       22.761 -20.382   4.855  0.00  0.00    +0.117 A 
ATOM      7  C   LIG    1       23.154 -20.035   6.143  0.00  0.00    +0.046 A 
ATOM      8  C   LIG    1       24.513 -20.026   6.466  0.00  0.00    +0.012 A 
BRANCH   6   9
ATOM      9  O   LIG    1       21.446 -20.417   4.498  0.00  0.00    -0.507 OA
ATOM     10  H   LIG    1       21.105 -19.508   4.491  0.00  0.00    +0.292 HD
ENDBRANCH   6   9
ENDBRANCH   1   3
BRANCH   2  11
ATOM     11  C   LIG    1       27.256 -18.221   4.670  0.00  0.00    -0.021 A 
ATOM     12  C   LIG    1       26.197 -18.397   3.767  0.00  0.00    +0.012 A 
ATOM     13  C   LIG    1       25.748 -17.326   2.994  0.00  0.00    +0.046 A 
ATOM     14  C   LIG    1       26.354 -16.082   3.124  0.00  0.00    +0.117 A 
ATOM     15  C   LIG    1       27.399 -15.886   4.021  0.00  0.00    +0.046 A 
ATOM     16  C   LIG    1       27.850 -16.959   4.794  0.00  0.00    +0.012 A 
BRANCH  14  17
ATOM     17  O   LIG    1       25.892 -15.066   2.340  0.00  0.00    -0.507 OA
ATOM     18  H   LIG    1       25.382 -15.450   1.608  0.00  0.00    +0.292 HD
ENDBRANCH  14  17
ENDBRANCH   2  11
BRANCH   1  20
ATOM     19  C   LIG    1       28.796 -21.571   7.060  0.00  0.00    +0.009 C 
ATOM     20  C   LIG    1       27.310 -21.542   6.731  0.00  0.00    +0.033 C 
ENDBRANCH   1  20
BRANCH   2  21
ATOM     21  C   LIG    1       29.216 -19.259   5.838  0.00  0.00    +0.033 C 
ATOM     22  C   LIG    1       29.475 -18.323   7.013  0.00  0.00    +0.009 C 
ENDBRANCH   2  21
TORSDOF 6
ENDMDL
MODEL 6
REMARK VINA RESULT:      -1.6      2.881      6.588
REMARK  Name = *****
REMARK                            x       y       z     vdW  Elec       q    Type
REMARK                         _______ _______ _______ _____ _____    ______ ____
ROOT
ATOM      1  C   LIG    1       26.639 -16.658   3.708  0.00  0.00    -0.037 C 
ATOM      2  C   LIG    1       26.951 -15.339   3.599  0.00  0.00    -0.037 C 
ENDROOT
BRANCH   1   3
ATOM      3  C   LIG    1       25.232 -17.120   3.777  0.00  0.00    -0.021 A 
ATOM      4  C   LIG    1       24.915 -18.468   3.572  0.00  0.00    +0.012 A 
ATOM      5  C   LIG    1       23.590 -18.899   3.658  0.00  0.00    +0.046 A 
ATOM      6  C   LIG    1       22.584 -17.983   3.944  0.00  0.00    +0.117 A 
ATOM      7  C   LIG    1       22.878 -16.638   4.140  0.00  0.00    +0.046 A 
ATOM      8  C   LIG    1       24.205 -16.208   4.057  0.00  0.00    +0.012 A 
BRANCH   6   9
ATOM      9  O   LIG    1       21.306 -18.450   4.028  0.00  0.00    -0.507 OA
ATOM     10  H   LIG    1       21.329 -19.420   3.985  0.00  0.00    +0.292 HD
ENDBRANCH   6   9
ENDBRANCH   1   3
BRANCH   2  11
ATOM     11  C   LIG    1       25.897 -14.300   3.546  0.00  0.00    -0.021 A 
ATOM     12  C   LIG    1       25.395 -13.747   4.732  0.00  0.00    +0.012 A 
ATOM     13  C   LIG    1       24.384 -12.786   4.687  0.00  0.00    +0.046 A 
ATOM     14  C   LIG    1       23.878 -12.378   3.459  0.00  0.00    +0.117 A 
ATOM     15  C   LIG    1       24.370 -12.910   2.271  0.00  0.00    +0.046 A 
ATOM     16  C   LIG    1       25.381 -13.873   2.317  0.00  0.00    +0.012 A 
BRANCH  14  17
ATOM     17  O   LIG    1       22.882 -11.447   3.460  0.00  0.00    -0.507 OA
ATOM     18  H   LIG    1       22.938 -10.935   2.636  0.00  0.00    +0.292 HD
ENDBRANCH  14  17
ENDBRANCH   2  11
BRANCH   1  20
ATOM     19  C   LIG    1       28.360 -17.805   5.176  0.00  0.00    +0.009 C 
ATOM     20  C   LIG    1       27.645 -17.785   3.832  0.00  0.00    +0.033 C 
ENDBRANCH   1  20
BRANCH   2  21
ATOM     21  C   LIG    1       28.359 -14.773   3.582  0.00  0.00    +0.033 C 
ATOM     22  C   LIG    1       28.398 -13.256   3.714  0.00  0.00    +0.009 C 
ENDBRANCH   2  21
TORSDOF 6
ENDMDL
MODEL 7
REMARK VINA RESULT:      -0.9      0.967      1.489
REMARK  Name = *****
REMARK                            x       y       z     vdW  Elec       q    Type
REMARK                         _______ _______ _______ _____ _____    ______ ____
ROOT
ATOM      1  C   LIG    1       23.124 -18.168   3.953  0.00  0.00    -0.037 C 
ATOM      2  C   LIG    1       23.281 -19.354   4.598  0.00  0.00    -0.037 C 
ENDROOT
BRANCH   1   3
ATOM      3  C   LIG    1       24.252 -17.223   3.779  0.00  0.00    -0.021 A 
ATOM      4  C   LIG    1       24.089 -15.860   4.055  0.00  0.00    +0.012 A 
ATOM      5  C   LIG    1       25.162 -14.980   3.907  0.00  0.00    +0.046 A 
ATOM      6  C   LIG    1       26.395 -15.460   3.480  0.00  0.00    +0.117 A 
ATOM      7  C   LIG    1       26.574 -16.809   3.190  0.00  0.00    +0.046 A 
ATOM      8  C   LIG    1       25.500 -17.690   3.342  0.00  0.00    +0.012 A 
BRANCH   6   9
ATOM      9  O   LIG    1       27.417 -14.566   3.359  0.00  0.00    -0.507 OA
ATOM     10  H   LIG    1       27.043 -13.701   3.124  0.00  0.00    +0.292 HD
ENDBRANCH   6   9
ENDBRANCH   1   3
BRANCH   2  11
ATOM     11  C   LIG    1       24.591 -19.757   5.160  0.00  0.00    -0.021 A 
ATOM     12  C   LIG    1       25.692 -19.946   4.313  0.00  0.00    +0.012 A 
ATOM     13  C   LIG    1       26.921 -20.350   4.836  0.00  0.00    +0.046 A 
ATOM     14  C   LIG    1       27.049 -20.564   6.203  0.00  0.00    +0.117 A 
ATOM     15  C   LIG    1       25.970 -20.373   7.060  0.00  0.00    +0.046 A 
ATOM     16  C   LIG    1       24.739 -19.970   6.535  0.00  0.00    +0.012 A 
BRANCH  14  17
ATOM     17  O   LIG    1       28.263 -20.970   6.671  0.00  0.00    -0.507 OA
ATOM     18  H   LIG    1       28.760 -20.187   6.958  0.00  0.00    +0.292 HD
ENDBRANCH  14  17
ENDBRANCH   2  11
BRANCH   1  20
ATOM     19  C   LIG    1       20.888 -17.091   4.478  0.00  0.00    +0.009 C 
ATOM     20  C   LIG    1       21.813 -17.642   3.402  0.00  0.00    +0.033 C 
ENDBRANCH   1  20
BRANCH   2  21
ATOM     21  C   LIG    1       22.173 -20.353   4.873  0.00  0.00    +0.033 C 
ATOM     22  C   LIG    1       22.641 -21.569   5.662  0.00  0.00    +0.009 C 
ENDBRANCH   2  21
TORSDOF 6
ENDMDL
