MODEL 1
REMARK VINA RESULT:      -4.1      0.000      0.000
REMARK  Name = *****
REMARK                            x       y       z     vdW  Elec       q    Type
REMARK                         _______ _______ _______ _____ _____    ______ ____
ROOT
ATOM      1  C   LIG    1       21.955 -21.235   4.982  0.00  0.00    +0.069 C 
ATOM      2  C   LIG    1       23.364 -20.982   5.430  0.00  0.00    +0.080 A 
ATOM      3  C   LIG    1       24.259 -20.282   4.617  0.00  0.00    +0.143 A 
ATOM      4  C   LIG    1       25.572 -20.039   5.059  0.00  0.00    +0.028 A 
ATOM      5  C   LIG    1       25.941 -20.542   6.324  0.00  0.00    +0.005 A 
ATOM      6  C   LIG    1       24.975 -21.228   7.061  0.00  0.00    +0.117 A 
ATOM      7  N   LIG    1       23.708 -21.453   6.651  0.00  0.00    -0.256 NA
ENDROOT
BRANCH   3   8
ATOM      8  O   LIG    1       23.822 -19.838   3.398  0.00  0.00    -0.505 OA
ATOM      9  H   LIG    1       24.466 -20.171   2.735  0.00  0.00    +0.292 HD
ENDBRANCH   3   8
BRANCH   4  10
ATOM     10  C   LIG    1       26.593 -19.344   4.191  0.00  0.00    +0.195 C 
BRANCH  10  11
ATOM     11  O   LIG    1       26.017 -18.227   3.505  0.00  0.00    -0.390 OA
ATOM     12  H   LIG    1       26.705 -17.909   2.892  0.00  0.00    +0.210 HD
ENDBRANCH  10  11
ENDBRANCH   4  10
BRANCH   5  13
ATOM     13  C   LIG    1       27.306 -20.357   6.925  0.00  0.00    +0.193 C 
BRANCH  13  14
ATOM     14  O   LIG    1       28.198 -21.333   6.405  0.00  0.00    -0.390 OA
ATOM     15  H   LIG    1       27.935 -21.489   5.481  0.00  0.00    +0.210 HD
ENDBRANCH  13  14
ENDBRANCH   5  13
TORSDOF 5
ENDMDL
MODEL 2
REMARK VINA RESULT:      -4.1      1.997      4.101
REMARK  Name = *****
REMARK                            x       y       z     vdW  Elec       q    Type
REMARK                         _______ _______ _______ _____ _____    ______ ____
ROOT
ATOM      1  C   LIG    1       26.011 -17.389   3.197  0.00  0.00    +0.069 C 
ATOM      2  C   LIG    1       25.198 -18.463   3.859  0.00  0.00    +0.080 A 
ATOM      3  C   LIG    1       25.814 -19.454   4.628  0.00  0.00    +0.143 A 
ATOM      4  C   LIG    1       25.036 -20.444   5.256  0.00  0.00    +0.028 A 
ATOM      5  C   LIG    1       23.640 -20.401   5.060  0.00  0.00    +0.005 A 
ATOM      6  C   LIG    1       23.121 -19.371   4.275  0.00  0.00    +0.117 A 
ATOM      7  N   LIG    1       23.859 -18.408   3.681  0.00  0.00    -0.256 NA
ENDROOT
BRANCH   3   8
ATOM      8  O   LIG    1       27.176 -19.428   4.756  0.00  0.00    -0.505 OA
ATOM      9  H   LIG    1       27.481 -20.357   4.663  0.00  0.00    +0.292 HD
ENDBRANCH   3   8
BRANCH   4  10
ATOM     10  C   LIG    1       25.660 -21.572   6.042  0.00  0.00    +0.195 C 
BRANCH  10  11
ATOM     11  O   LIG    1       26.970 -21.223   6.501  0.00  0.00    -0.390 OA
ATOM     12  H   LIG    1       27.248 -21.949   7.086  0.00  0.00    +0.210 HD
ENDBRANCH  10  11
ENDBRANCH   4  10
BRANCH   5  13
ATOM     13  C   LIG    1       22.686 -21.391   5.670  0.00  0.00    +0.193 C 
BRANCH  13  14
ATOM     14  O   LIG    1       21.567 -21.571   4.815  0.00  0.00    -0.390 OA
ATOM     15  H   LIG    1       21.737 -22.376   4.295  0.00  0.00    +0.210 HD
ENDBRANCH  13  14
ENDBRANCH   5  13
TORSDOF 5
ENDMDL
MODEL 3
REMARK VINA RESULT:      -3.8      1.596      3.673
REMARK  Name = *****
REMARK                            x       y       z     vdW  Elec       q    Type
REMARK                         _______ _______ _______ _____ _____    ______ ____
ROOT
ATOM      1  C   LIG    1       28.516 -19.683   6.434  0.00  0.00    +0.069 C 
ATOM      2  C   LIG    1       27.115 -20.133   6.137  0.00  0.00    +0.080 A 
ATOM      3  C   LIG    1       26.479 -19.754   4.952  0.00  0.00    +0.143 A 
ATOM      4  C   LIG    1       25.171 -20.198   4.681  0.00  0.00    +0.028 A 
ATOM      5  C   LIG    1       24.540 -21.006   5.650  0.00  0.00    +0.005 A 
ATOM      6  C   LIG    1       25.260 -21.329   6.801  0.00  0.00    +0.117 A 
ATOM      7  N   LIG    1       26.520 -20.920   7.062  0.00  0.00    -0.256 NA
ENDROOT
BRANCH   3   8
ATOM      8  O   LIG    1       27.160 -18.958   4.072  0.00  0.00    -0.505 OA
ATOM      9  H   LIG    1       26.491 -18.597   3.449  0.00  0.00    +0.292 HD
ENDBRANCH   3   8
BRANCH   4  10
ATOM     10  C   LIG    1       24.419 -19.763   3.446  0.00  0.00    +0.195 C 
BRANCH  10  11
ATOM     11  O   LIG    1       23.567 -18.647   3.723  0.00  0.00    -0.390 OA
ATOM     12  H   LIG    1       22.659 -19.001   3.724  0.00  0.00    +0.210 HD
ENDBRANCH  10  11
ENDBRANCH   4  10
BRANCH   5  13
ATOM     13  C   LIG    1       23.148 -21.553   5.494  0.00  0.00    +0.193 C 
BRANCH  13  14
ATOM     14  O   LIG    1       22.212 -20.485   5.465  0.00  0.00    -0.390 OA
ATOM     15  H   LIG    1       21.596 -20.672   4.735  0.00  0.00    +0.210 HD
ENDBRANCH  13  14
ENDBRANCH   5  13
TORSDOF 5
ENDMDL
MODEL 4
REMARK VINA RESULT:      -3.7      1.612      3.650
REMARK  Name = *****
REMARK                            x       y       z     vdW  Elec       q    Type
REMARK                         _______ _______ _______ _____ _____    ______ ____
ROOT
ATOM      1  C   LIG    1       28.486 -20.380   7.062  0.00  0.00    +0.069 C 
ATOM      2  C   LIG    1       27.162 -20.451   6.358  0.00  0.00    +0.080 A 
ATOM      3  C   LIG    1       26.937 -19.728   5.185  0.00  0.00    +0.143 A 
ATOM      4  C   LIG    1       25.696 -19.818   4.528  0.00  0.00    +0.028 A 
ATOM      5  C   LIG    1       24.706 -20.638   5.109  0.00  0.00    +0.005 A 
ATOM      6  C   LIG    1       25.028 -21.320   6.283  0.00  0.00    +0.117 A 
ATOM      7  N   LIG    1       26.222 -21.251   6.912  0.00  0.00    -0.256 NA
ENDROOT
BRANCH   3   8
ATOM      8  O   LIG    1       27.949 -18.947   4.695  0.00  0.00    -0.505 OA
ATOM      9  H   LIG    1       27.532 -18.310   4.074  0.00  0.00    +0.292 HD
ENDBRANCH   3   8
BRANCH   4  10
ATOM     10  C   LIG    1       25.383 -19.007   3.294  0.00  0.00    +0.195 C 
BRANCH  10  11
ATOM     11  O   LIG    1       26.077 -17.755   3.306  0.00  0.00    -0.390 OA
ATOM     12  H   LIG    1       26.157 -17.488   2.373  0.00  0.00    +0.210 HD
ENDBRANCH  10  11
ENDBRANCH   4  10
BRANCH   5  13
ATOM     13  C   LIG    1       23.337 -20.831   4.519  0.00  0.00    +0.193 C 
BRANCH  13  14
ATOM     14  O   LIG    1       22.394 -21.063   5.555  0.00  0.00    -0.390 OA
ATOM     15  H   LIG    1       22.574 -21.954   5.903  0.00  0.00    +0.210 HD
ENDBRANCH  13  14
ENDBRANCH   5  13
TORSDOF 5
ENDMDL
MODEL 5
REMARK VINA RESULT:      -3.6      2.225      4.605
REMARK  Name = *****
REMARK                            x       y       z     vdW  Elec       q    Type
REMARK                         _______ _______ _______ _____ _____    ______ ____
ROOT
ATOM      1  C   LIG    1       28.163 -19.883   5.602  0.00  0.00    +0.069 C 
ATOM      2  C   LIG    1       26.749 -19.804   5.106  0.00  0.00    +0.080 A 
ATOM      3  C   LIG    1       25.763 -20.649   5.621  0.00  0.00    +0.143 A 
ATOM      4  C   LIG    1       24.438 -20.552   5.157  0.00  0.00    +0.028 A 
ATOM      5  C   LIG    1       24.164 -19.598   4.155  0.00  0.00    +0.005 A 
ATOM      6  C   LIG    1       25.217 -18.800   3.706  0.00  0.00    +0.117 A 
ATOM      7  N   LIG    1       26.488 -18.876   4.156  0.00  0.00    -0.256 NA
ENDROOT
BRANCH   3   8
ATOM      8  O   LIG    1       26.118 -21.555   6.583  0.00  0.00    -0.505 OA
ATOM      9  H   LIG    1       25.950 -22.445   6.201  0.00  0.00    +0.292 HD
ENDBRANCH   3   8
BRANCH   4  10
ATOM     10  C   LIG    1       23.353 -21.485   5.636  0.00  0.00    +0.195 C 
BRANCH  10  11
ATOM     11  O   LIG    1       23.234 -21.455   7.062  0.00  0.00    -0.390 OA
ATOM     12  H   LIG    1       24.136 -21.311   7.400  0.00  0.00    +0.210 HD
ENDBRANCH  10  11
ENDBRANCH   4  10
BRANCH   5  13
ATOM     13  C   LIG    1       22.797 -19.381   3.568  0.00  0.00    +0.193 C 
BRANCH  13  14
ATOM     14  O   LIG    1       22.130 -18.342   4.270  0.00  0.00    -0.390 OA
ATOM     15  H   LIG    1       21.959 -18.675   5.168  0.00  0.00    +0.210 HD
ENDBRANCH  13  14
ENDBRANCH   5  13
TORSDOF 5
ENDMDL
MODEL 6
REMARK VINA RESULT:      -3.3      4.660      6.010
REMARK  Name = *****
REMARK                            x       y       z     vdW  Elec       q    Type
REMARK                         _______ _______ _______ _____ _____    ______ ____
ROOT
ATOM      1  C   LIG    1       23.935 -18.657   3.706  0.00  0.00    +0.069 C 
ATOM      2  C   LIG    1       24.146 -17.176   3.816  0.00  0.00    +0.080 A 
ATOM      3  C   LIG    1       25.354 -16.594   3.424  0.00  0.00    +0.143 A 
ATOM      4  C   LIG    1       25.531 -15.202   3.518  0.00  0.00    +0.028 A 
ATOM      5  C   LIG    1       24.463 -14.441   4.038  0.00  0.00    +0.005 A 
ATOM      6  C   LIG    1       23.296 -15.114   4.402  0.00  0.00    +0.117 A 
ATOM      7  N   LIG    1       23.113 -16.449   4.300  0.00  0.00    -0.256 NA
ENDROOT
BRANCH   3   8
ATOM      8  O   LIG    1       26.343 -17.408   2.941  0.00  0.00    -0.505 OA
ATOM      9  H   LIG    1       26.020 -18.330   3.048  0.00  0.00    +0.292 HD
ENDBRANCH   3   8
BRANCH   4  10
ATOM     10  C   LIG    1       26.839 -14.535   3.167  0.00  0.00    +0.195 C 
BRANCH  10  11
ATOM     11  O   LIG    1       26.839 -14.074   1.812  0.00  0.00    -0.390 OA
ATOM     12  H   LIG    1       27.328 -13.232   1.819  0.00  0.00    +0.210 HD
ENDBRANCH  10  11
ENDBRANCH   4  10
BRANCH   5  13
ATOM     13  C   LIG    1       24.508 -12.946   4.195  0.00  0.00    +0.193 C 
BRANCH  13  14
ATOM     14  O   LIG    1       23.841 -12.327   3.105  0.00  0.00    -0.390 OA
ATOM     15  H   LIG    1       24.530 -12.019   2.491  0.00  0.00    +0.210 HD
ENDBRANCH  13  14
ENDBRANCH   5  13
TORSDOF 5
ENDMDL
MODEL 7
REMARK VINA RESULT:      -3.2      5.475      7.020
REMARK  Name = *****
REMARK                            x       y       z     vdW  Elec       q    Type
REMARK                         _______ _______ _______ _____ _____    ______ ____
ROOT
ATOM      1  C   LIG    1       25.765 -17.600   3.261  0.00  0.00    +0.069 C 
ATOM      2  C   LIG    1       25.477 -16.175   3.634  0.00  0.00    +0.080 A 
ATOM      3  C   LIG    1       26.518 -15.267   3.848  0.00  0.00    +0.143 A 
ATOM      4  C   LIG    1       26.231 -13.931   4.180  0.00  0.00    +0.028 A 
ATOM      5  C   LIG    1       24.874 -13.565   4.306  0.00  0.00    +0.005 A 
ATOM      6  C   LIG    1       23.908 -14.544   4.072  0.00  0.00    +0.117 A 
ATOM      7  N   LIG    1       24.174 -15.825   3.737  0.00  0.00    -0.256 NA
ENDROOT
BRANCH   3   8
ATOM      8  O   LIG    1       27.806 -15.710   3.717  0.00  0.00    -0.505 OA
ATOM      9  H   LIG    1       28.043 -16.130   4.573  0.00  0.00    +0.292 HD
ENDBRANCH   3   8
BRANCH   4  10
ATOM     10  C   LIG    1       27.320 -12.930   4.484  0.00  0.00    +0.195 C 
BRANCH  10  11
ATOM     11  O   LIG    1       28.304 -12.904   3.446  0.00  0.00    -0.390 OA
ATOM     12  H   LIG    1       27.880 -13.308   2.668  0.00  0.00    +0.210 HD
ENDBRANCH  10  11
ENDBRANCH   4  10
BRANCH   5  13
ATOM     13  C   LIG    1       24.419 -12.174   4.654  0.00  0.00    +0.193 C 
BRANCH  13  14
ATOM     14  O   LIG    1       23.697 -11.618   3.565  0.00  0.00    -0.390 OA
ATOM     15  H   LIG    1       23.804 -12.229   2.815  0.00  0.00    +0.210 HD
ENDBRANCH  13  14
ENDBRANCH   5  13
TORSDOF 5
ENDMDL
MODEL 8
REMARK VINA RESULT:      -3.2      5.361      6.552
REMARK  Name = *****
REMARK                            x       y       z     vdW  Elec       q    Type
REMARK                         _______ _______ _______ _____ _____    ______ ____
ROOT
ATOM      1  C   LIG    1       24.391 -17.706   3.653  0.00  0.00    +0.069 C 
ATOM      2  C   LIG    1       25.130 -16.399   3.642  0.00  0.00    +0.080 A 
ATOM      3  C   LIG    1       24.471 -15.203   3.937  0.00  0.00    +0.143 A 
ATOM      4  C   LIG    1       25.181 -13.989   3.939  0.00  0.00    +0.028 A 
ATOM      5  C   LIG    1       26.553 -14.033   3.615  0.00  0.00    +0.005 A 
ATOM      6  C   LIG    1       27.120 -15.277   3.335  0.00  0.00    +0.117 A 
ATOM      7  N   LIG    1       26.449 -16.449   3.346  0.00  0.00    -0.256 NA
ENDROOT
BRANCH   3   8
ATOM      8  O   LIG    1       23.135 -15.250   4.230  0.00  0.00    -0.505 OA
ATOM      9  H   LIG    1       22.678 -15.500   3.397  0.00  0.00    +0.292 HD
ENDBRANCH   3   8
BRANCH   4  10
ATOM     10  C   LIG    1       24.501 -12.664   4.188  0.00  0.00    +0.195 C 
BRANCH  10  11
ATOM     11  O   LIG    1       23.663 -12.296   3.088  0.00  0.00    -0.390 OA
ATOM     12  H   LIG    1       22.751 -12.480   3.377  0.00  0.00    +0.210 HD
ENDBRANCH  10  11
ENDBRANCH   4  10
BRANCH   5  13
ATOM     13  C   LIG    1       27.436 -12.816   3.579  0.00  0.00    +0.193 C 
BRANCH  13  14
ATOM     14  O   LIG    1       28.784 -13.206   3.360  0.00  0.00    -0.390 OA
ATOM     15  H   LIG    1       29.235 -13.156   4.221  0.00  0.00    +0.210 HD
ENDBRANCH  13  14
ENDBRANCH   5  13
TORSDOF 5
ENDMDL
MODEL 9
REMARK VINA RESULT:      -3.0      2.882      4.285
REMARK  Name = *****
REMARK                            x       y       z     vdW  Elec       q    Type
REMARK                         _______ _______ _______ _____ _____    ______ ____
ROOT
ATOM      1  C   LIG    1       24.454 -15.295   3.756  0.00  0.00    +0.069 C 
ATOM      2  C   LIG    1       23.935 -16.685   3.976  0.00  0.00    +0.080 A 
ATOM      3  C   LIG    1       24.719 -17.799   3.668  0.00  0.00    +0.143 A 
ATOM      4  C   LIG    1       24.224 -19.096   3.895  0.00  0.00    +0.028 A 
ATOM      5  C   LIG    1       22.919 -19.216   4.417  0.00  0.00    +0.005 A 
ATOM      6  C   LIG    1       22.215 -18.043   4.693  0.00  0.00    +0.117 A 
ATOM      7  N   LIG    1       22.688 -16.794   4.491  0.00  0.00    -0.256 NA
ENDROOT
BRANCH   3   8
ATOM      8  O   LIG    1       25.971 -17.593   3.154  0.00  0.00    -0.505 OA
ATOM      9  H   LIG    1       26.541 -18.305   3.518  0.00  0.00    +0.292 HD
ENDBRANCH   3   8
BRANCH   4  10
ATOM     10  C   LIG    1       25.008 -20.330   3.519  0.00  0.00    +0.195 C 
BRANCH  10  11
ATOM     11  O   LIG    1       26.264 -20.376   4.204  0.00  0.00    -0.390 OA
ATOM     12  H   LIG    1       26.761 -21.108   3.798  0.00  0.00    +0.210 HD
ENDBRANCH  10  11
ENDBRANCH   4  10
BRANCH   5  13
ATOM     13  C   LIG    1       22.261 -20.535   4.712  0.00  0.00    +0.193 C 
BRANCH  13  14
ATOM     14  O   LIG    1       22.701 -21.021   5.972  0.00  0.00    -0.390 OA
ATOM     15  H   LIG    1       23.509 -20.528   6.197  0.00  0.00    +0.210 HD
ENDBRANCH  13  14
ENDBRANCH   5  13
TORSDOF 5
ENDMDL
