MODEL 1
REMARK VINA RESULT:      -7.2      0.000      0.000
REMARK  Name = *****
REMARK                            x       y       z     vdW  Elec       q    Type
REMARK                         _______ _______ _______ _____ _____    ______ ____
ROOT
ATOM      1  C   LIG    1       26.325 -20.561   8.022  0.00  0.00    +0.000 C 
ENDROOT
BRANCH   1   2
ATOM      2  C   LIG    1       25.643 -21.899   8.388  0.00  0.00    -0.000 C 
BRANCH   2   3
ATOM      3  C   LIG    1       25.700 -23.063   7.376  0.00  0.00    -0.000 C 
BRANCH   3   4
ATOM      4  C   LIG    1       24.302 -23.504   6.917  0.00  0.00    -0.000 C 
BRANCH   4   5
ATOM      5  C   LIG    1       23.178 -22.476   7.106  0.00  0.00    -0.000 C 
BRANCH   5   6
ATOM      6  C   LIG    1       22.887 -21.669   5.822  0.00  0.00    -0.000 C 
BRANCH   6   7
ATOM      7  C   LIG    1       22.936 -20.133   5.899  0.00  0.00    -0.000 C 
BRANCH   7   9
ATOM      8  C   LIG    1       22.084 -18.231   4.419  0.00  0.00    +0.004 C 
ATOM      9  C   LIG    1       23.070 -19.383   4.573  0.00  0.00    -0.003 C 
ENDBRANCH   7   9
ENDBRANCH   6   7
ENDBRANCH   5   6
ENDBRANCH   4   5
ENDBRANCH   3   4
ENDBRANCH   2   3
ENDBRANCH   1   2
BRANCH   1  10
ATOM     10  C   LIG    1       26.798 -20.350   6.570  0.00  0.00    +0.002 C 
BRANCH  10  11
ATOM     11  C   LIG    1       28.289 -19.996   6.550  0.00  0.00    +0.030 C 
BRANCH  11  12
ATOM     12  C   LIG    1       29.223 -20.832   7.422  0.00  0.00    +0.196 C 
BRANCH  12  13
ATOM     13  O   LIG    1       29.771 -20.115   8.515  0.00  0.00    -0.216 OA
BRANCH  13  14
ATOM     14  S   LIG    1       31.143 -19.266   8.328  0.00  0.00    +0.207 S 
ATOM     15  O   LIG    1       32.086 -19.634   9.339  0.00  0.00    -0.118 OA
ATOM     16  O   LIG    1       30.815 -17.864   8.070  0.00  0.00    -0.118 OA
BRANCH  14  17
ATOM     17  O   LIG    1       31.718 -19.839   6.945  0.00  0.00    -0.231 OA
ATOM     18  H   LIG    1       31.095 -19.562   6.239  0.00  0.00    +0.247 HD
ENDBRANCH  14  17
ENDBRANCH  13  14
ENDBRANCH  12  13
ENDBRANCH  11  12
ENDBRANCH  10  11
ENDBRANCH   1  10
TORSDOF 13
ENDMDL
MODEL 2
REMARK VINA RESULT:      -7.2      0.808      1.214
REMARK  Name = *****
REMARK                            x       y       z     vdW  Elec       q    Type
REMARK                         _______ _______ _______ _____ _____    ______ ____
ROOT
ATOM      1  C   LIG    1       26.390 -20.577   7.996  0.00  0.00    +0.000 C 
ENDROOT
BRANCH   1   2
ATOM      2  C   LIG    1       25.798 -21.935   8.437  0.00  0.00    -0.000 C 
BRANCH   2   3
ATOM      3  C   LIG    1       25.861 -23.126   7.459  0.00  0.00    -0.000 C 
BRANCH   3   4
ATOM      4  C   LIG    1       24.571 -23.277   6.640  0.00  0.00    -0.000 C 
BRANCH   4   5
ATOM      5  C   LIG    1       23.370 -22.449   7.121  0.00  0.00    -0.000 C 
BRANCH   5   6
ATOM      6  C   LIG    1       22.688 -21.671   5.975  0.00  0.00    -0.000 C 
BRANCH   6   7
ATOM      7  C   LIG    1       22.925 -20.154   5.881  0.00  0.00    -0.000 C 
BRANCH   7   9
ATOM      8  C   LIG    1       24.407 -20.609   3.848  0.00  0.00    +0.004 C 
ATOM      9  C   LIG    1       23.485 -19.626   4.559  0.00  0.00    -0.003 C 
ENDBRANCH   7   9
ENDBRANCH   6   7
ENDBRANCH   5   6
ENDBRANCH   4   5
ENDBRANCH   3   4
ENDBRANCH   2   3
ENDBRANCH   1   2
BRANCH   1  10
ATOM     10  C   LIG    1       27.023 -20.472   6.594  0.00  0.00    +0.002 C 
BRANCH  10  11
ATOM     11  C   LIG    1       28.516 -20.146   6.716  0.00  0.00    +0.030 C 
BRANCH  11  12
ATOM     12  C   LIG    1       29.317 -20.901   7.774  0.00  0.00    +0.196 C 
BRANCH  12  13
ATOM     13  O   LIG    1       29.879 -20.059   8.766  0.00  0.00    -0.216 OA
BRANCH  13  14
ATOM     14  S   LIG    1       31.462 -19.698   8.729  0.00  0.00    +0.207 S 
ATOM     15  O   LIG    1       31.766 -18.731   9.738  0.00  0.00    -0.118 OA
ATOM     16  O   LIG    1       31.883 -19.504   7.341  0.00  0.00    -0.118 OA
BRANCH  14  17
ATOM     17  O   LIG    1       32.141 -21.072   9.200  0.00  0.00    -0.231 OA
ATOM     18  H   LIG    1       31.441 -21.759   9.182  0.00  0.00    +0.247 HD
ENDBRANCH  14  17
ENDBRANCH  13  14
ENDBRANCH  12  13
ENDBRANCH  11  12
ENDBRANCH  10  11
ENDBRANCH   1  10
TORSDOF 13
ENDMDL
MODEL 3
REMARK VINA RESULT:      -7.1      1.349      3.129
REMARK  Name = *****
REMARK                            x       y       z     vdW  Elec       q    Type
REMARK                         _______ _______ _______ _____ _____    ______ ____
ROOT
ATOM      1  C   LIG    1       26.748 -20.219   5.170  0.00  0.00    +0.000 C 
ENDROOT
BRANCH   1   2
ATOM      2  C   LIG    1       25.340 -19.898   4.618  0.00  0.00    -0.000 C 
BRANCH   2   3
ATOM      3  C   LIG    1       24.366 -21.063   4.344  0.00  0.00    -0.000 C 
BRANCH   3   4
ATOM      4  C   LIG    1       23.030 -20.890   5.080  0.00  0.00    -0.000 C 
BRANCH   4   5
ATOM      5  C   LIG    1       23.122 -20.681   6.599  0.00  0.00    -0.000 C 
BRANCH   5   6
ATOM      6  C   LIG    1       23.524 -21.968   7.352  0.00  0.00    -0.000 C 
BRANCH   6   7
ATOM      7  C   LIG    1       22.988 -23.314   6.836  0.00  0.00    -0.000 C 
BRANCH   7   9
ATOM      8  C   LIG    1       25.460 -23.962   6.791  0.00  0.00    +0.004 C 
ATOM      9  C   LIG    1       24.027 -24.378   6.482  0.00  0.00    -0.003 C 
ENDBRANCH   7   9
ENDBRANCH   6   7
ENDBRANCH   5   6
ENDBRANCH   4   5
ENDBRANCH   3   4
ENDBRANCH   2   3
ENDBRANCH   1   2
BRANCH   1  10
ATOM     10  C   LIG    1       26.900 -20.496   6.679  0.00  0.00    +0.002 C 
BRANCH  10  11
ATOM     11  C   LIG    1       28.384 -20.635   7.039  0.00  0.00    +0.030 C 
BRANCH  11  12
ATOM     12  C   LIG    1       29.012 -19.524   7.877  0.00  0.00    +0.196 C 
BRANCH  12  13
ATOM     13  O   LIG    1       29.920 -19.997   8.857  0.00  0.00    -0.216 OA
BRANCH  13  14
ATOM     14  S   LIG    1       31.511 -19.715   8.698  0.00  0.00    +0.207 S 
ATOM     15  O   LIG    1       31.918 -18.687   9.606  0.00  0.00    -0.118 OA
ATOM     16  O   LIG    1       31.854 -19.653   7.277  0.00  0.00    -0.118 OA
BRANCH  14  17
ATOM     17  O   LIG    1       32.159 -21.079   9.241  0.00  0.00    -0.231 OA
ATOM     18  H   LIG    1       31.944 -21.137  10.197  0.00  0.00    +0.247 HD
ENDBRANCH  14  17
ENDBRANCH  13  14
ENDBRANCH  12  13
ENDBRANCH  11  12
ENDBRANCH  10  11
ENDBRANCH   1  10
TORSDOF 13
ENDMDL
MODEL 4
REMARK VINA RESULT:      -7.0      1.111      1.643
REMARK  Name = *****
REMARK                            x       y       z     vdW  Elec       q    Type
REMARK                         _______ _______ _______ _____ _____    ______ ____
ROOT
ATOM      1  C   LIG    1       27.243 -20.284   7.926  0.00  0.00    +0.000 C 
ENDROOT
BRANCH   1   2
ATOM      2  C   LIG    1       25.904 -20.760   8.533  0.00  0.00    -0.000 C 
BRANCH   2   3
ATOM      3  C   LIG    1       25.359 -22.148   8.135  0.00  0.00    -0.000 C 
BRANCH   3   4
ATOM      4  C   LIG    1       23.990 -22.062   7.445  0.00  0.00    -0.000 C 
BRANCH   4   5
ATOM      5  C   LIG    1       23.547 -20.658   7.007  0.00  0.00    -0.000 C 
BRANCH   5   6
ATOM      6  C   LIG    1       22.771 -20.669   5.672  0.00  0.00    -0.000 C 
BRANCH   6   7
ATOM      7  C   LIG    1       22.585 -19.337   4.926  0.00  0.00    -0.000 C 
BRANCH   7   9
ATOM      8  C   LIG    1       24.718 -20.039   3.706  0.00  0.00    +0.004 C 
ATOM      9  C   LIG    1       23.587 -19.025   3.814  0.00  0.00    -0.003 C 
ENDBRANCH   7   9
ENDBRANCH   6   7
ENDBRANCH   5   6
ENDBRANCH   4   5
ENDBRANCH   3   4
ENDBRANCH   2   3
ENDBRANCH   1   2
BRANCH   1  10
ATOM     10  C   LIG    1       27.407 -20.313   6.393  0.00  0.00    +0.002 C 
BRANCH  10  11
ATOM     11  C   LIG    1       28.687 -19.574   5.989  0.00  0.00    +0.030 C 
BRANCH  11  12
ATOM     12  C   LIG    1       29.949 -19.854   6.802  0.00  0.00    +0.196 C 
BRANCH  12  13
ATOM     13  O   LIG    1       30.712 -18.694   7.083  0.00  0.00    -0.216 OA
BRANCH  13  14
ATOM     14  S   LIG    1       31.107 -18.328   8.616  0.00  0.00    +0.207 S 
ATOM     15  O   LIG    1       29.945 -18.392   9.448  0.00  0.00    -0.118 OA
ATOM     16  O   LIG    1       31.984 -17.157   8.625  0.00  0.00    -0.118 OA
BRANCH  14  17
ATOM     17  O   LIG    1       32.034 -19.567   9.038  0.00  0.00    -0.231 OA
ATOM     18  H   LIG    1       32.513 -19.302   9.852  0.00  0.00    +0.247 HD
ENDBRANCH  14  17
ENDBRANCH  13  14
ENDBRANCH  12  13
ENDBRANCH  11  12
ENDBRANCH  10  11
ENDBRANCH   1  10
TORSDOF 13
ENDMDL
MODEL 5
REMARK VINA RESULT:      -7.0      1.449      2.191
REMARK  Name = *****
REMARK                            x       y       z     vdW  Elec       q    Type
REMARK                         _______ _______ _______ _____ _____    ______ ____
ROOT
ATOM      1  C   LIG    1       27.509 -20.364   6.407  0.00  0.00    +0.000 C 
ENDROOT
BRANCH   1   2
ATOM      2  C   LIG    1       27.071 -20.688   7.853  0.00  0.00    -0.000 C 
BRANCH   2   3
ATOM      3  C   LIG    1       25.578 -20.563   8.223  0.00  0.00    -0.000 C 
BRANCH   3   4
ATOM      4  C   LIG    1       24.713 -21.621   7.523  0.00  0.00    -0.000 C 
BRANCH   4   5
ATOM      5  C   LIG    1       23.258 -21.219   7.241  0.00  0.00    -0.000 C 
BRANCH   5   6
ATOM      6  C   LIG    1       22.960 -21.084   5.732  0.00  0.00    -0.000 C 
BRANCH   6   7
ATOM      7  C   LIG    1       22.646 -19.687   5.171  0.00  0.00    -0.000 C 
BRANCH   7   9
ATOM      8  C   LIG    1       24.745 -20.086   3.768  0.00  0.00    +0.004 C 
ATOM      9  C   LIG    1       23.580 -19.156   4.084  0.00  0.00    -0.003 C 
ENDBRANCH   7   9
ENDBRANCH   6   7
ENDBRANCH   5   6
ENDBRANCH   4   5
ENDBRANCH   3   4
ENDBRANCH   2   3
ENDBRANCH   1   2
BRANCH   1  10
ATOM     10  C   LIG    1       28.895 -19.727   6.185  0.00  0.00    +0.002 C 
BRANCH  10  11
ATOM     11  C   LIG    1       29.824 -20.071   7.354  0.00  0.00    +0.030 C 
BRANCH  11  12
ATOM     12  C   LIG    1       31.172 -19.356   7.416  0.00  0.00    +0.196 C 
BRANCH  12  13
ATOM     13  O   LIG    1       31.066 -17.968   7.681  0.00  0.00    -0.216 OA
BRANCH  13  14
ATOM     14  S   LIG    1       31.453 -17.384   9.146  0.00  0.00    +0.207 S 
ATOM     15  O   LIG    1       32.154 -18.379   9.899  0.00  0.00    -0.118 OA
ATOM     16  O   LIG    1       30.301 -16.679   9.708  0.00  0.00    -0.118 OA
BRANCH  14  17
ATOM     17  O   LIG    1       32.527 -16.247   8.791  0.00  0.00    -0.231 OA
ATOM     18  H   LIG    1       32.854 -15.886   9.643  0.00  0.00    +0.247 HD
ENDBRANCH  14  17
ENDBRANCH  13  14
ENDBRANCH  12  13
ENDBRANCH  11  12
ENDBRANCH  10  11
ENDBRANCH   1  10
TORSDOF 13
ENDMDL
MODEL 6
REMARK VINA RESULT:      -7.0      1.001      1.798
REMARK  Name = *****
REMARK                            x       y       z     vdW  Elec       q    Type
REMARK                         _______ _______ _______ _____ _____    ______ ____
ROOT
ATOM      1  C   LIG    1       26.095 -21.732   8.478  0.00  0.00    +0.000 C 
ENDROOT
BRANCH   1   2
ATOM      2  C   LIG    1       25.434 -22.417   7.261  0.00  0.00    -0.000 C 
BRANCH   2   3
ATOM      3  C   LIG    1       23.893 -22.451   7.174  0.00  0.00    -0.000 C 
BRANCH   3   4
ATOM      4  C   LIG    1       23.293 -21.061   6.916  0.00  0.00    -0.000 C 
BRANCH   4   5
ATOM      5  C   LIG    1       22.542 -20.890   5.588  0.00  0.00    -0.000 C 
BRANCH   5   6
ATOM      6  C   LIG    1       22.511 -19.423   5.107  0.00  0.00    -0.000 C 
BRANCH   6   7
ATOM      7  C   LIG    1       23.396 -19.027   3.912  0.00  0.00    -0.000 C 
BRANCH   7   9
ATOM      8  C   LIG    1       25.775 -19.847   4.360  0.00  0.00    +0.004 C 
ATOM      9  C   LIG    1       24.508 -20.003   3.528  0.00  0.00    -0.003 C 
ENDBRANCH   7   9
ENDBRANCH   6   7
ENDBRANCH   5   6
ENDBRANCH   4   5
ENDBRANCH   3   4
ENDBRANCH   2   3
ENDBRANCH   1   2
BRANCH   1  10
ATOM     10  C   LIG    1       26.701 -20.326   8.291  0.00  0.00    +0.002 C 
BRANCH  10  11
ATOM     11  C   LIG    1       27.817 -20.372   7.241  0.00  0.00    +0.030 C 
BRANCH  11  12
ATOM     12  C   LIG    1       29.067 -21.181   7.577  0.00  0.00    +0.196 C 
BRANCH  12  13
ATOM     13  O   LIG    1       29.799 -20.664   8.675  0.00  0.00    -0.216 OA
BRANCH  13  14
ATOM     14  S   LIG    1       30.958 -19.553   8.432  0.00  0.00    +0.207 S 
ATOM     15  O   LIG    1       32.068 -19.807   9.300  0.00  0.00    -0.118 OA
ATOM     16  O   LIG    1       30.349 -18.225   8.349  0.00  0.00    -0.118 OA
BRANCH  14  17
ATOM     17  O   LIG    1       31.459 -19.895   6.947  0.00  0.00    -0.231 OA
ATOM     18  H   LIG    1       31.264 -20.843   6.791  0.00  0.00    +0.247 HD
ENDBRANCH  14  17
ENDBRANCH  13  14
ENDBRANCH  12  13
ENDBRANCH  11  12
ENDBRANCH  10  11
ENDBRANCH   1  10
TORSDOF 13
ENDMDL
MODEL 7
REMARK VINA RESULT:      -6.9      1.578      3.008
REMARK  Name = *****
REMARK                            x       y       z     vdW  Elec       q    Type
REMARK                         _______ _______ _______ _____ _____    ______ ____
ROOT
ATOM      1  C   LIG    1       27.733 -21.481   7.905  0.00  0.00    +0.000 C 
ENDROOT
BRANCH   1   2
ATOM      2  C   LIG    1       26.599 -20.462   8.159  0.00  0.00    -0.000 C 
BRANCH   2   3
ATOM      3  C   LIG    1       25.164 -20.822   7.722  0.00  0.00    -0.000 C 
BRANCH   3   4
ATOM      4  C   LIG    1       24.994 -20.788   6.196  0.00  0.00    -0.000 C 
BRANCH   4   5
ATOM      5  C   LIG    1       23.840 -21.630   5.631  0.00  0.00    -0.000 C 
BRANCH   5   6
ATOM      6  C   LIG    1       23.111 -22.446   6.720  0.00  0.00    -0.000 C 
BRANCH   6   7
ATOM      7  C   LIG    1       23.315 -23.971   6.749  0.00  0.00    -0.000 C 
BRANCH   7   9
ATOM      8  C   LIG    1       25.819 -24.471   6.880  0.00  0.00    +0.004 C 
ATOM      9  C   LIG    1       24.553 -24.512   6.033  0.00  0.00    -0.003 C 
ENDBRANCH   7   9
ENDBRANCH   6   7
ENDBRANCH   5   6
ENDBRANCH   4   5
ENDBRANCH   3   4
ENDBRANCH   2   3
ENDBRANCH   1   2
BRANCH   1  10
ATOM     10  C   LIG    1       28.768 -21.170   6.805  0.00  0.00    +0.002 C 
BRANCH  10  11
ATOM     11  C   LIG    1       28.573 -19.739   6.291  0.00  0.00    +0.030 C 
BRANCH  11  12
ATOM     12  C   LIG    1       29.775 -18.800   6.351  0.00  0.00    +0.196 C 
BRANCH  12  13
ATOM     13  O   LIG    1       30.898 -19.358   7.010  0.00  0.00    -0.216 OA
BRANCH  13  14
ATOM     14  S   LIG    1       31.261 -18.909   8.528  0.00  0.00    +0.207 S 
ATOM     15  O   LIG    1       32.138 -19.869   9.125  0.00  0.00    -0.118 OA
ATOM     16  O   LIG    1       30.043 -18.468   9.208  0.00  0.00    -0.118 OA
BRANCH  14  17
ATOM     17  O   LIG    1       32.134 -17.583   8.297  0.00  0.00    -0.231 OA
ATOM     18  H   LIG    1       32.871 -17.609   8.942  0.00  0.00    +0.247 HD
ENDBRANCH  14  17
ENDBRANCH  13  14
ENDBRANCH  12  13
ENDBRANCH  11  12
ENDBRANCH  10  11
ENDBRANCH   1  10
TORSDOF 13
ENDMDL
MODEL 8
REMARK VINA RESULT:      -6.9      2.140      4.030
REMARK  Name = *****
REMARK                            x       y       z     vdW  Elec       q    Type
REMARK                         _______ _______ _______ _____ _____    ______ ____
ROOT
ATOM      1  C   LIG    1       25.832 -21.115   8.542  0.00  0.00    +0.000 C 
ENDROOT
BRANCH   1   2
ATOM      2  C   LIG    1       24.718 -20.737   7.539  0.00  0.00    -0.000 C 
BRANCH   2   3
ATOM      3  C   LIG    1       23.379 -21.502   7.592  0.00  0.00    -0.000 C 
BRANCH   3   4
ATOM      4  C   LIG    1       23.219 -22.478   6.418  0.00  0.00    -0.000 C 
BRANCH   4   5
ATOM      5  C   LIG    1       23.510 -23.954   6.728  0.00  0.00    -0.000 C 
BRANCH   5   6
ATOM      6  C   LIG    1       25.021 -24.276   6.717  0.00  0.00    -0.000 C 
BRANCH   6   7
ATOM      7  C   LIG    1       25.453 -25.740   6.528  0.00  0.00    -0.000 C 
BRANCH   7   9
ATOM      8  C   LIG    1       24.721 -28.181   6.319  0.00  0.00    +0.004 C 
ATOM      9  C   LIG    1       24.376 -26.720   6.058  0.00  0.00    -0.003 C 
ENDBRANCH   7   9
ENDBRANCH   6   7
ENDBRANCH   5   6
ENDBRANCH   4   5
ENDBRANCH   3   4
ENDBRANCH   2   3
ENDBRANCH   1   2
BRANCH   1  10
ATOM     10  C   LIG    1       27.238 -21.431   7.993  0.00  0.00    +0.002 C 
BRANCH  10  11
ATOM     11  C   LIG    1       28.031 -20.133   7.805  0.00  0.00    +0.030 C 
BRANCH  11  12
ATOM     12  C   LIG    1       29.540 -20.253   7.601  0.00  0.00    +0.196 C 
BRANCH  12  13
ATOM     13  O   LIG    1       30.068 -21.505   8.003  0.00  0.00    -0.216 OA
BRANCH  13  14
ATOM     14  S   LIG    1       31.237 -21.575   9.128  0.00  0.00    +0.207 S 
ATOM     15  O   LIG    1       30.725 -22.160  10.329  0.00  0.00    -0.118 OA
ATOM     16  O   LIG    1       31.963 -20.305   9.153  0.00  0.00    -0.118 OA
BRANCH  14  17
ATOM     17  O   LIG    1       32.255 -22.645   8.503  0.00  0.00    -0.231 OA
ATOM     18  H   LIG    1       33.161 -22.314   8.678  0.00  0.00    +0.247 HD
ENDBRANCH  14  17
ENDBRANCH  13  14
ENDBRANCH  12  13
ENDBRANCH  11  12
ENDBRANCH  10  11
ENDBRANCH   1  10
TORSDOF 13
ENDMDL
MODEL 9
REMARK VINA RESULT:      -6.4      6.271      7.302
REMARK  Name = *****
REMARK                            x       y       z     vdW  Elec       q    Type
REMARK                         _______ _______ _______ _____ _____    ______ ____
ROOT
ATOM      1  C   LIG    1       25.317 -24.103   6.836  0.00  0.00    +0.000 C 
ENDROOT
BRANCH   1   2
ATOM      2  C   LIG    1       26.242 -22.933   7.241  0.00  0.00    -0.000 C 
BRANCH   2   3
ATOM      3  C   LIG    1       25.720 -21.887   8.249  0.00  0.00    -0.000 C 
BRANCH   3   4
ATOM      4  C   LIG    1       24.979 -20.732   7.559  0.00  0.00    -0.000 C 
BRANCH   4   5
ATOM      5  C   LIG    1       23.466 -20.920   7.378  0.00  0.00    -0.000 C 
BRANCH   5   6
ATOM      6  C   LIG    1       23.035 -20.878   5.895  0.00  0.00    -0.000 C 
BRANCH   6   7
ATOM      7  C   LIG    1       24.040 -20.351   4.858  0.00  0.00    -0.000 C 
BRANCH   7   9
ATOM      8  C   LIG    1       22.270 -18.558   4.428  0.00  0.00    +0.004 C 
ATOM      9  C   LIG    1       23.566 -19.207   3.960  0.00  0.00    -0.003 C 
ENDBRANCH   7   9
ENDBRANCH   6   7
ENDBRANCH   5   6
ENDBRANCH   4   5
ENDBRANCH   3   4
ENDBRANCH   2   3
ENDBRANCH   1   2
BRANCH   1  10
ATOM     10  C   LIG    1       24.909 -24.238   5.356  0.00  0.00    +0.002 C 
BRANCH  10  11
ATOM     11  C   LIG    1       25.291 -25.627   4.831  0.00  0.00    +0.030 C 
BRANCH  11  12
ATOM     12  C   LIG    1       25.338 -26.772   5.840  0.00  0.00    +0.196 C 
BRANCH  12  13
ATOM     13  O   LIG    1       25.299 -28.056   5.243  0.00  0.00    -0.216 OA
BRANCH  13  14
ATOM     14  S   LIG    1       24.639 -29.308   6.041  0.00  0.00    +0.207 S 
ATOM     15  O   LIG    1       24.388 -28.943   7.401  0.00  0.00    -0.118 OA
ATOM     16  O   LIG    1       25.365 -30.534   5.705  0.00  0.00    -0.118 OA
BRANCH  14  17
ATOM     17  O   LIG    1       23.204 -29.448   5.338  0.00  0.00    -0.231 OA
ATOM     18  H   LIG    1       22.628 -29.940   5.960  0.00  0.00    +0.247 HD
ENDBRANCH  14  17
ENDBRANCH  13  14
ENDBRANCH  12  13
ENDBRANCH  11  12
ENDBRANCH  10  11
ENDBRANCH   1  10
TORSDOF 13
ENDMDL
