MODEL 1
REMARK VINA RESULT:       8.8      0.000      0.000
REMARK  Name = *****
REMARK                            x       y       z     vdW  Elec       q    Type
REMARK                         _______ _______ _______ _____ _____    ______ ____
ROOT
ATOM      1  N   LIG    1       23.407 -14.198   4.024  0.00  0.00    -0.296 NA
ATOM      2  C   LIG    1       23.824 -15.197   3.016  0.00  0.00    +0.100 C 
ATOM      3  C   LIG    1       24.658 -14.664   1.818  0.00  0.00    +0.100 C 
ATOM      4  N   LIG    1       25.769 -13.741   2.152  0.00  0.00    -0.289 NA
ATOM      5  C   LIG    1       25.160 -12.691   3.008  0.00  0.00    +0.100 C 
ATOM      6  C   LIG    1       24.469 -13.209   4.288  0.00  0.00    +0.100 C 
ENDROOT
BRANCH   1   7
ATOM      7  C   LIG    1       22.978 -14.886   5.267  0.00  0.00    +0.119 C 
BRANCH   7  11
ATOM      8  C   LIG    1       22.337 -19.185   4.794  0.00  0.00    -0.042 A 
ATOM      9  C   LIG    1       21.948 -18.270   3.804  0.00  0.00    +0.004 A 
ATOM     10  C   LIG    1       22.136 -16.891   3.972  0.00  0.00    +0.005 A 
ATOM     11  C   LIG    1       22.706 -16.374   5.142  0.00  0.00    -0.033 A 
ATOM     12  C   LIG    1       22.980 -17.265   6.181  0.00  0.00    +0.005 A 
ATOM     13  C   LIG    1       22.813 -18.643   6.002  0.00  0.00    +0.004 A 
BRANCH   8  15
ATOM     14  C   LIG    1       20.792 -21.179   4.274  0.00  0.00    +0.015 C 
ATOM     15  C   LIG    1       22.235 -20.708   4.579  0.00  0.00    -0.013 C 
ATOM     16  C   LIG    1       23.100 -21.162   3.378  0.00  0.00    +0.015 C 
ATOM     17  C   LIG    1       22.707 -21.437   5.850  0.00  0.00    +0.015 C 
ENDBRANCH   8  15
ENDBRANCH   7  11
ENDBRANCH   1   7
BRANCH   4  18
ATOM     18  C   LIG    1       26.957 -14.409   2.777  0.00  0.00    +0.117 C 
BRANCH  18  19
ATOM     19  C   LIG    1       26.674 -15.853   3.269  0.00  0.00    -0.026 A 
ATOM     20  C   LIG    1       25.531 -16.573   2.890  0.00  0.00    +0.007 A 
ATOM     21  C   LIG    1       25.355 -17.915   3.250  0.00  0.00    +0.020 A 
ATOM     22  C   LIG    1       26.310 -18.544   4.054  0.00  0.00    +0.041 A 
ATOM     23 CL   LIG    1       26.120 -20.205   4.464  0.00  0.00    -0.084 Cl
ATOM     24  C   LIG    1       27.406 -17.833   4.513  0.00  0.00    +0.020 A 
ATOM     25  C   LIG    1       27.596 -16.497   4.128  0.00  0.00    +0.007 A 
ENDBRANCH  18  19
BRANCH  18  26
ATOM     26  C   LIG    1       27.596 -13.578   3.907  0.00  0.00    -0.026 A 
ATOM     27  C   LIG    1       28.660 -12.699   3.622  0.00  0.00    +0.005 A 
ATOM     28  C   LIG    1       29.268 -11.950   4.636  0.00  0.00    +0.000 A 
ATOM     29  C   LIG    1       28.813 -12.054   5.948  0.00  0.00    +0.000 A 
ATOM     30  C   LIG    1       27.743 -12.896   6.244  0.00  0.00    +0.000 A 
ATOM     31  C   LIG    1       27.142 -13.654   5.234  0.00  0.00    +0.005 A 
ENDBRANCH  18  26
ENDBRANCH   4  18
TORSDOF 6
ENDMDL
