MODEL 1
REMARK VINA RESULT:      -6.4      0.000      0.000
REMARK  Name = *****
REMARK                            x       y       z     vdW  Elec       q    Type
REMARK                         _______ _______ _______ _____ _____    ______ ____
ROOT
ATOM      1  C   LIG    1       24.150 -32.027   9.691  0.00  0.00    +0.165 C 
ATOM      2  C   LIG    1       25.099 -31.116  10.586  0.00  0.00    +0.012 C 
ATOM      3  C   LIG    1       24.236 -29.857  10.931  0.00  0.00    +0.004 C 
ATOM      4  C   LIG    1       23.656 -29.920  12.352  0.00  0.00    -0.000 C 
ATOM      5  C   LIG    1       24.806 -29.987  13.410  0.00  0.00    +0.035 C 
ATOM      6  C   LIG    1       25.884 -31.048  13.052  0.00  0.00    +0.120 C 
ATOM      7  C   LIG    1       25.467 -28.600  13.847  0.00  0.00    +0.013 C 
ATOM      8  C   LIG    1       24.405 -27.486  13.989  0.00  0.00    -0.056 C 
ATOM      9  C   LIG    1       24.825 -26.275  14.429  0.00  0.00    +0.051 C 
ATOM     10  C   LIG    1       25.817 -25.703  13.441  0.00  0.00    +0.179 C 
ATOM     11  C   LIG    1       26.674 -26.685  12.707  0.00  0.00    +0.047 C 
ATOM     12  O   LIG    1       25.965 -24.497  13.303  0.00  0.00    -0.288 OA
ATOM     13  C   LIG    1       23.359 -27.449  12.887  0.00  0.00    +0.032 C 
ATOM     14  C   LIG    1       26.196 -28.855  15.200  0.00  0.00    +0.020 C 
ATOM     15  C   LIG    1       26.529 -28.010  12.905  0.00  0.00    -0.012 C 
ATOM     16  C   LIG    1       22.677 -28.792  12.718  0.00  0.00    +0.008 C 
ATOM     17  C   LIG    1       23.277 -29.716   9.741  0.00  0.00    +0.039 C 
ATOM     18  C   LIG    1       26.346 -30.548   9.848  0.00  0.00    +0.015 C 
ATOM     19  C   LIG    1       25.571 -31.904  11.833  0.00  0.00    +0.042 C 
ATOM     20  C   LIG    1       23.045 -31.103   9.167  0.00  0.00    +0.162 C 
ATOM     21  O   LIG    1       21.796 -31.601   9.653  0.00  0.00    -0.344 OA
ATOM     22  C   LIG    1       22.039 -32.945  10.045  0.00  0.00    +0.255 C 
ATOM     23  O   LIG    1       23.412 -32.999  10.464  0.00  0.00    -0.334 OA
ENDROOT
BRANCH  22  24
ATOM     24  C   LIG    1       21.038 -33.360  11.160  0.00  0.00    +0.045 C 
ATOM     25  C   LIG    1       20.787 -32.269  12.227  0.00  0.00    +0.008 C 
ATOM     26  C   LIG    1       19.984 -31.080  11.698  0.00  0.00    +0.000 C 
ATOM     27  C   LIG    1       18.636 -31.519  11.136  0.00  0.00    +0.000 C 
ATOM     28  C   LIG    1       18.778 -32.676  10.154  0.00  0.00    +0.000 C 
ATOM     29  C   LIG    1       19.663 -33.824  10.644  0.00  0.00    +0.008 C 
ENDBRANCH  22  24
BRANCH   1  30
ATOM     30  C   LIG    1       24.911 -32.682   8.509  0.00  0.00    +0.205 C 
ATOM     31  O   LIG    1       25.797 -33.524   8.704  0.00  0.00    -0.291 OA
BRANCH  30  32
ATOM     32  C   LIG    1       24.519 -32.313   7.083  0.00  0.00    +0.309 C 
BRANCH  32  33
ATOM     33  O   LIG    1       25.264 -31.153   6.688  0.00  0.00    -0.457 OA
BRANCH  33  34
ATOM     34  C   LIG    1       24.524 -30.144   6.132  0.00  0.00    +0.310 C 
ATOM     35  O   LIG    1       23.343 -30.226   5.904  0.00  0.00    -0.251 OA
BRANCH  34  37
ATOM     36  C   LIG    1       24.798 -27.942   4.931  0.00  0.00    +0.019 C 
ATOM     37  C   LIG    1       25.365 -28.870   5.997  0.00  0.00    +0.092 C 
ATOM     38  C   LIG    1       25.500 -28.134   7.329  0.00  0.00    +0.019 C 
ENDBRANCH  34  37
ENDBRANCH  33  34
ENDBRANCH  32  33
ENDBRANCH  30  32
ENDBRANCH   1  30
BRANCH   6  39
ATOM     39  O   LIG    1       26.084 -31.918  14.172  0.00  0.00    -0.391 OA
ATOM     40  H   LIG    1       26.499 -31.407  14.889  0.00  0.00    +0.210 HD
ENDBRANCH   6  39
TORSDOF 7
ENDMDL
MODEL 2
REMARK VINA RESULT:      -6.2      2.519      5.262
REMARK  Name = *****
REMARK                            x       y       z     vdW  Elec       q    Type
REMARK                         _______ _______ _______ _____ _____    ______ ____
ROOT
ATOM      1  C   LIG    1       24.411 -31.524   7.746  0.00  0.00    +0.165 C 
ATOM      2  C   LIG    1       24.422 -31.579   9.336  0.00  0.00    +0.012 C 
ATOM      3  C   LIG    1       25.709 -30.794   9.754  0.00  0.00    +0.004 C 
ATOM      4  C   LIG    1       25.395 -29.365  10.223  0.00  0.00    -0.000 C 
ATOM      5  C   LIG    1       24.453 -29.394  11.472  0.00  0.00    +0.035 C 
ATOM      6  C   LIG    1       23.240 -30.346  11.282  0.00  0.00    +0.120 C 
ATOM      7  C   LIG    1       25.148 -29.602  12.895  0.00  0.00    +0.013 C 
ATOM      8  C   LIG    1       26.477 -28.819  12.996  0.00  0.00    -0.056 C 
ATOM      9  C   LIG    1       27.130 -28.850  14.183  0.00  0.00    +0.051 C 
ATOM     10  C   LIG    1       27.527 -30.276  14.495  0.00  0.00    +0.179 C 
ATOM     11  C   LIG    1       26.612 -31.350  14.001  0.00  0.00    +0.047 C 
ATOM     12  O   LIG    1       28.506 -30.535  15.181  0.00  0.00    -0.288 OA
ATOM     13  C   LIG    1       27.364 -28.893  11.765  0.00  0.00    +0.032 C 
ATOM     14  C   LIG    1       24.128 -29.118  13.968  0.00  0.00    +0.020 C 
ATOM     15  C   LIG    1       25.513 -31.044  13.285  0.00  0.00    -0.012 C 
ATOM     16  C   LIG    1       26.617 -28.479  10.513  0.00  0.00    +0.008 C 
ATOM     17  C   LIG    1       26.676 -30.995   8.579  0.00  0.00    +0.039 C 
ATOM     18  C   LIG    1       24.614 -33.000   9.941  0.00  0.00    +0.015 C 
ATOM     19  C   LIG    1       23.115 -30.968   9.898  0.00  0.00    +0.042 C 
ATOM     20  C   LIG    1       25.844 -31.183   7.322  0.00  0.00    +0.162 C 
ATOM     21  O   LIG    1       25.802 -29.946   6.608  0.00  0.00    -0.344 OA
ATOM     22  C   LIG    1       24.447 -29.766   6.219  0.00  0.00    +0.255 C 
ATOM     23  O   LIG    1       23.652 -30.410   7.227  0.00  0.00    -0.334 OA
ENDROOT
BRANCH  22  24
ATOM     24  C   LIG    1       24.137 -28.250   6.065  0.00  0.00    +0.045 C 
ATOM     25  C   LIG    1       24.726 -27.364   7.187  0.00  0.00    +0.008 C 
ATOM     26  C   LIG    1       26.249 -27.243   7.125  0.00  0.00    +0.000 C 
ATOM     27  C   LIG    1       26.712 -26.687   5.783  0.00  0.00    +0.000 C 
ATOM     28  C   LIG    1       26.088 -27.434   4.610  0.00  0.00    +0.000 C 
ATOM     29  C   LIG    1       24.575 -27.642   4.720  0.00  0.00    +0.008 C 
ENDBRANCH  22  24
BRANCH   1  30
ATOM     30  C   LIG    1       23.970 -32.871   7.117  0.00  0.00    +0.205 C 
ATOM     31  O   LIG    1       22.773 -33.168   7.010  0.00  0.00    -0.291 OA
BRANCH  30  32
ATOM     32  C   LIG    1       25.035 -33.819   6.577  0.00  0.00    +0.309 C 
BRANCH  32  33
ATOM     33  O   LIG    1       25.289 -33.488   5.205  0.00  0.00    -0.457 OA
BRANCH  33  34
ATOM     34  C   LIG    1       26.586 -33.645   4.796  0.00  0.00    +0.310 C 
ATOM     35  O   LIG    1       27.517 -33.769   5.552  0.00  0.00    -0.251 OA
BRANCH  34  37
ATOM     36  C   LIG    1       25.861 -32.708   2.568  0.00  0.00    +0.019 C 
ATOM     37  C   LIG    1       26.656 -33.800   3.273  0.00  0.00    +0.092 C 
ATOM     38  C   LIG    1       28.098 -33.821   2.769  0.00  0.00    +0.019 C 
ENDBRANCH  34  37
ENDBRANCH  33  34
ENDBRANCH  32  33
ENDBRANCH  30  32
ENDBRANCH   1  30
BRANCH   6  39
ATOM     39  O   LIG    1       22.029 -29.636  11.565  0.00  0.00    -0.391 OA
ATOM     40  H   LIG    1       22.159 -29.117  12.379  0.00  0.00    +0.210 HD
ENDBRANCH   6  39
TORSDOF 7
ENDMDL
MODEL 3
REMARK VINA RESULT:      -5.8      2.492      5.578
REMARK  Name = *****
REMARK                            x       y       z     vdW  Elec       q    Type
REMARK                         _______ _______ _______ _____ _____    ______ ____
ROOT
ATOM      1  C   LIG    1       25.440 -30.266   9.218  0.00  0.00    +0.165 C 
ATOM      2  C   LIG    1       24.909 -30.513  10.697  0.00  0.00    +0.012 C 
ATOM      3  C   LIG    1       23.412 -30.931  10.522  0.00  0.00    +0.004 C 
ATOM      4  C   LIG    1       23.212 -32.449  10.646  0.00  0.00    -0.000 C 
ATOM      5  C   LIG    1       23.661 -32.946  12.060  0.00  0.00    +0.035 C 
ATOM      6  C   LIG    1       25.053 -32.392  12.473  0.00  0.00    +0.120 C 
ATOM      7  C   LIG    1       22.598 -32.808  13.244  0.00  0.00    +0.013 C 
ATOM      8  C   LIG    1       21.169 -33.152  12.765  0.00  0.00    -0.056 C 
ATOM      9  C   LIG    1       20.182 -33.148  13.694  0.00  0.00    +0.051 C 
ATOM     10  C   LIG    1       20.044 -31.755  14.267  0.00  0.00    +0.179 C 
ATOM     11  C   LIG    1       21.294 -30.940  14.352  0.00  0.00    +0.047 C 
ATOM     12  O   LIG    1       18.980 -31.344  14.709  0.00  0.00    -0.288 OA
ATOM     13  C   LIG    1       20.788 -32.580  11.411  0.00  0.00    +0.032 C 
ATOM     14  C   LIG    1       23.058 -33.775  14.376  0.00  0.00    +0.020 C 
ATOM     15  C   LIG    1       22.467 -31.425  13.902  0.00  0.00    -0.012 C 
ATOM     16  C   LIG    1       21.794 -32.957  10.341  0.00  0.00    +0.008 C 
ATOM     17  C   LIG    1       22.969 -30.225   9.233  0.00  0.00    +0.039 C 
ATOM     18  C   LIG    1       24.860 -29.242  11.595  0.00  0.00    +0.015 C 
ATOM     19  C   LIG    1       25.774 -31.588  11.400  0.00  0.00    +0.042 C 
ATOM     20  C   LIG    1       24.193 -30.067   8.348  0.00  0.00    +0.162 C 
ATOM     21  O   LIG    1       24.185 -31.099   7.359  0.00  0.00    -0.344 OA
ATOM     22  C   LIG    1       25.511 -31.607   7.315  0.00  0.00    +0.255 C 
ATOM     23  O   LIG    1       26.049 -31.440   8.636  0.00  0.00    -0.334 OA
ENDROOT
BRANCH  22  24
ATOM     24  C   LIG    1       25.496 -33.088   6.839  0.00  0.00    +0.045 C 
ATOM     25  C   LIG    1       25.032 -33.280   5.376  0.00  0.00    +0.008 C 
ATOM     26  C   LIG    1       26.045 -32.771   4.350  0.00  0.00    +0.000 C 
ATOM     27  C   LIG    1       27.400 -33.450   4.516  0.00  0.00    +0.000 C 
ATOM     28  C   LIG    1       27.886 -33.408   5.960  0.00  0.00    +0.000 C 
ATOM     29  C   LIG    1       26.839 -33.823   6.996  0.00  0.00    +0.008 C 
ENDBRANCH  22  24
BRANCH   1  30
ATOM     30  C   LIG    1       26.365 -29.025   9.127  0.00  0.00    +0.205 C 
ATOM     31  O   LIG    1       27.499 -29.032   9.622  0.00  0.00    -0.291 OA
BRANCH  30  32
ATOM     32  C   LIG    1       25.879 -27.796   8.366  0.00  0.00    +0.309 C 
BRANCH  32  33
ATOM     33  O   LIG    1       26.161 -27.979   6.972  0.00  0.00    -0.457 OA
BRANCH  33  34
ATOM     34  C   LIG    1       26.280 -26.826   6.243  0.00  0.00    +0.310 C 
ATOM     35  O   LIG    1       27.025 -26.700   5.304  0.00  0.00    -0.251 OA
BRANCH  34  37
ATOM     36  C   LIG    1       25.838 -24.405   6.806  0.00  0.00    +0.019 C 
ATOM     37  C   LIG    1       25.232 -25.799   6.687  0.00  0.00    +0.092 C 
ATOM     38  C   LIG    1       24.025 -25.777   5.751  0.00  0.00    +0.019 C 
ENDBRANCH  34  37
ENDBRANCH  33  34
ENDBRANCH  32  33
ENDBRANCH  30  32
ENDBRANCH   1  30
BRANCH   6  39
ATOM     39  O   LIG    1       25.900 -33.479  12.864  0.00  0.00    -0.391 OA
ATOM     40  H   LIG    1       25.898 -33.536  13.836  0.00  0.00    +0.210 HD
ENDBRANCH   6  39
TORSDOF 7
ENDMDL
MODEL 4
REMARK VINA RESULT:      -5.7      2.209      2.854
REMARK  Name = *****
REMARK                            x       y       z     vdW  Elec       q    Type
REMARK                         _______ _______ _______ _____ _____    ______ ____
ROOT
ATOM      1  C   LIG    1       25.456 -30.962  10.216  0.00  0.00    +0.165 C 
ATOM      2  C   LIG    1       26.205 -29.701  10.834  0.00  0.00    +0.012 C 
ATOM      3  C   LIG    1       25.148 -29.028  11.771  0.00  0.00    +0.004 C 
ATOM      4  C   LIG    1       25.381 -29.366  13.251  0.00  0.00    -0.000 C 
ATOM      5  C   LIG    1       26.787 -28.859  13.714  0.00  0.00    +0.035 C 
ATOM      6  C   LIG    1       27.918 -29.255  12.724  0.00  0.00    +0.120 C 
ATOM      7  C   LIG    1       26.895 -27.326  14.148  0.00  0.00    +0.013 C 
ATOM      8  C   LIG    1       25.654 -26.877  14.952  0.00  0.00    -0.056 C 
ATOM      9  C   LIG    1       25.654 -25.615  15.447  0.00  0.00    +0.051 C 
ATOM     10  C   LIG    1       25.717 -24.631  14.300  0.00  0.00    +0.179 C 
ATOM     11  C   LIG    1       26.469 -25.067  13.084  0.00  0.00    +0.047 C 
ATOM     12  O   LIG    1       25.242 -23.507  14.390  0.00  0.00    -0.288 OA
ATOM     13  C   LIG    1       24.322 -27.358  14.402  0.00  0.00    +0.032 C 
ATOM     14  C   LIG    1       28.193 -27.190  14.999  0.00  0.00    +0.020 C 
ATOM     15  C   LIG    1       27.026 -26.292  13.018  0.00  0.00    -0.012 C 
ATOM     16  C   LIG    1       24.302 -28.863  14.223  0.00  0.00    +0.008 C 
ATOM     17  C   LIG    1       23.797 -29.376  11.132  0.00  0.00    +0.039 C 
ATOM     18  C   LIG    1       26.581 -28.595   9.807  0.00  0.00    +0.015 C 
ATOM     19  C   LIG    1       27.487 -30.155  11.574  0.00  0.00    +0.042 C 
ATOM     20  C   LIG    1       23.957 -30.699  10.403  0.00  0.00    +0.162 C 
ATOM     21  O   LIG    1       23.432 -31.745  11.223  0.00  0.00    -0.344 OA
ATOM     22  C   LIG    1       24.386 -32.797  11.171  0.00  0.00    +0.255 C 
ATOM     23  O   LIG    1       25.665 -32.170  10.980  0.00  0.00    -0.334 OA
ENDROOT
BRANCH  22  24
ATOM     24  C   LIG    1       24.307 -33.649  12.469  0.00  0.00    +0.045 C 
ATOM     25  C   LIG    1       25.594 -33.623  13.326  0.00  0.00    +0.008 C 
ATOM     26  C   LIG    1       25.837 -32.277  14.010  0.00  0.00    +0.000 C 
ATOM     27  C   LIG    1       24.662 -31.878  14.897  0.00  0.00    +0.000 C 
ATOM     28  C   LIG    1       23.331 -31.985  14.162  0.00  0.00    +0.000 C 
ATOM     29  C   LIG    1       23.129 -33.295  13.396  0.00  0.00    +0.008 C 
ENDBRANCH  22  24
BRANCH   1  30
ATOM     30  C   LIG    1       25.785 -31.159   8.714  0.00  0.00    +0.205 C 
ATOM     31  O   LIG    1       26.848 -31.680   8.353  0.00  0.00    -0.291 OA
BRANCH  30  32
ATOM     32  C   LIG    1       24.753 -30.747   7.671  0.00  0.00    +0.309 C 
BRANCH  32  33
ATOM     33  O   LIG    1       25.400 -29.938   6.680  0.00  0.00    -0.457 OA
BRANCH  33  34
ATOM     34  C   LIG    1       24.611 -28.980   6.100  0.00  0.00    +0.310 C 
ATOM     35  O   LIG    1       23.487 -29.183   5.712  0.00  0.00    -0.251 OA
BRANCH  34  37
ATOM     36  C   LIG    1       26.267 -27.418   5.011  0.00  0.00    +0.019 C 
ATOM     37  C   LIG    1       25.292 -27.609   6.166  0.00  0.00    +0.092 C 
ATOM     38  C   LIG    1       24.274 -26.470   6.200  0.00  0.00    +0.019 C 
ENDBRANCH  34  37
ENDBRANCH  33  34
ENDBRANCH  32  33
ENDBRANCH  30  32
ENDBRANCH   1  30
BRANCH   6  39
ATOM     39  O   LIG    1       28.968 -29.915  13.440  0.00  0.00    -0.391 OA
ATOM     40  H   LIG    1       29.101 -30.796  13.048  0.00  0.00    +0.210 HD
ENDBRANCH   6  39
TORSDOF 7
ENDMDL
MODEL 5
REMARK VINA RESULT:      -5.6      2.254      6.615
REMARK  Name = *****
REMARK                            x       y       z     vdW  Elec       q    Type
REMARK                         _______ _______ _______ _____ _____    ______ ____
ROOT
ATOM      1  C   LIG    1       25.946 -30.407  10.227  0.00  0.00    +0.165 C 
ATOM      2  C   LIG    1       24.811 -30.534  11.335  0.00  0.00    +0.012 C 
ATOM      3  C   LIG    1       23.513 -30.890  10.539  0.00  0.00    +0.004 C 
ATOM      4  C   LIG    1       23.171 -32.385  10.618  0.00  0.00    -0.000 C 
ATOM      5  C   LIG    1       22.927 -32.814  12.102  0.00  0.00    +0.035 C 
ATOM      6  C   LIG    1       24.038 -32.303  13.061  0.00  0.00    +0.120 C 
ATOM      7  C   LIG    1       21.468 -32.550  12.698  0.00  0.00    +0.013 C 
ATOM      8  C   LIG    1       20.368 -32.854  11.657  0.00  0.00    -0.056 C 
ATOM      9  C   LIG    1       19.079 -32.744  12.061  0.00  0.00    +0.051 C 
ATOM     10  C   LIG    1       18.805 -31.313  12.467  0.00  0.00    +0.179 C 
ATOM     11  C   LIG    1       19.950 -30.555  13.060  0.00  0.00    +0.047 C 
ATOM     12  O   LIG    1       17.687 -30.823  12.386  0.00  0.00    -0.288 OA
ATOM     13  C   LIG    1       20.652 -32.350  10.253  0.00  0.00    +0.032 C 
ATOM     14  C   LIG    1       21.323 -33.465  13.952  0.00  0.00    +0.020 C 
ATOM     15  C   LIG    1       21.164 -31.124  13.185  0.00  0.00    -0.012 C 
ATOM     16  C   LIG    1       21.993 -32.843   9.743  0.00  0.00    +0.008 C 
ATOM     17  C   LIG    1       23.722 -30.246   9.162  0.00  0.00    +0.039 C 
ATOM     18  C   LIG    1       24.468 -29.209  12.075  0.00  0.00    +0.015 C 
ATOM     19  C   LIG    1       25.208 -31.604  12.382  0.00  0.00    +0.042 C 
ATOM     20  C   LIG    1       25.217 -30.203   8.894  0.00  0.00    +0.162 C 
ATOM     21  O   LIG    1       25.564 -31.294   8.038  0.00  0.00    -0.344 OA
ATOM     22  C   LIG    1       26.739 -31.867   8.595  0.00  0.00    +0.255 C 
ATOM     23  O   LIG    1       26.663 -31.643  10.012  0.00  0.00    -0.334 OA
ENDROOT
BRANCH  22  24
ATOM     24  C   LIG    1       26.826 -33.372   8.213  0.00  0.00    +0.045 C 
ATOM     25  C   LIG    1       25.778 -33.825   7.170  0.00  0.00    +0.008 C 
ATOM     26  C   LIG    1       26.040 -33.268   5.770  0.00  0.00    +0.000 C 
ATOM     27  C   LIG    1       27.422 -33.660   5.261  0.00  0.00    +0.000 C 
ATOM     28  C   LIG    1       28.514 -33.353   6.279  0.00  0.00    +0.000 C 
ATOM     29  C   LIG    1       28.207 -33.823   7.703  0.00  0.00    +0.008 C 
ENDBRANCH  22  24
BRANCH   1  30
ATOM     30  C   LIG    1       26.905 -29.220  10.504  0.00  0.00    +0.205 C 
ATOM     31  O   LIG    1       26.700 -28.102  10.015  0.00  0.00    -0.291 OA
BRANCH  30  32
ATOM     32  C   LIG    1       28.089 -29.431  11.440  0.00  0.00    +0.309 C 
BRANCH  32  33
ATOM     33  O   LIG    1       27.835 -28.731  12.666  0.00  0.00    -0.457 OA
BRANCH  33  34
ATOM     34  C   LIG    1       27.873 -29.501  13.797  0.00  0.00    +0.310 C 
ATOM     35  O   LIG    1       28.504 -30.524  13.891  0.00  0.00    -0.251 OA
BRANCH  34  37
ATOM     36  C   LIG    1       26.651 -27.420  14.536  0.00  0.00    +0.019 C 
ATOM     37  C   LIG    1       27.143 -28.802  14.949  0.00  0.00    +0.092 C 
ATOM     38  C   LIG    1       25.984 -29.643  15.482  0.00  0.00    +0.019 C 
ENDBRANCH  34  37
ENDBRANCH  33  34
ENDBRANCH  32  33
ENDBRANCH  30  32
ENDBRANCH   1  30
BRANCH   6  39
ATOM     39  O   LIG    1       24.553 -33.402  13.821  0.00  0.00    -0.391 OA
ATOM     40  H   LIG    1       24.256 -34.230  13.403  0.00  0.00    +0.210 HD
ENDBRANCH   6  39
TORSDOF 7
ENDMDL
MODEL 6
REMARK VINA RESULT:      -5.5      7.523     10.776
REMARK  Name = *****
REMARK                            x       y       z     vdW  Elec       q    Type
REMARK                         _______ _______ _______ _____ _____    ______ ____
ROOT
ATOM      1  C   LIG    1       24.914 -22.267   7.141  0.00  0.00    +0.165 C 
ATOM      2  C   LIG    1       25.887 -21.009   7.206  0.00  0.00    +0.012 C 
ATOM      3  C   LIG    1       27.109 -21.492   8.055  0.00  0.00    +0.004 C 
ATOM      4  C   LIG    1       28.319 -21.856   7.181  0.00  0.00    -0.000 C 
ATOM      5  C   LIG    1       28.797 -20.611   6.362  0.00  0.00    +0.035 C 
ATOM      6  C   LIG    1       27.624 -19.877   5.655  0.00  0.00    +0.120 C 
ATOM      7  C   LIG    1       29.768 -19.586   7.109  0.00  0.00    +0.013 C 
ATOM      8  C   LIG    1       30.801 -20.324   7.990  0.00  0.00    -0.056 C 
ATOM      9  C   LIG    1       31.735 -19.571   8.620  0.00  0.00    +0.051 C 
ATOM     10  C   LIG    1       31.048 -18.628   9.583  0.00  0.00    +0.179 C 
ATOM     11  C   LIG    1       29.690 -18.144   9.190  0.00  0.00    +0.047 C 
ATOM     12  O   LIG    1       31.605 -18.223  10.593  0.00  0.00    -0.288 OA
ATOM     13  C   LIG    1       30.245 -21.481   8.803  0.00  0.00    +0.032 C 
ATOM     14  C   LIG    1       30.473 -18.748   6.001  0.00  0.00    +0.020 C 
ATOM     15  C   LIG    1       29.109 -18.565   8.050  0.00  0.00    -0.012 C 
ATOM     16  C   LIG    1       29.511 -22.477   7.927  0.00  0.00    +0.008 C 
ATOM     17  C   LIG    1       26.523 -22.555   8.994  0.00  0.00    +0.039 C 
ATOM     18  C   LIG    1       25.325 -19.786   7.985  0.00  0.00    +0.015 C 
ATOM     19  C   LIG    1       26.268 -20.558   5.774  0.00  0.00    +0.042 C 
ATOM     20  C   LIG    1       25.334 -23.188   8.292  0.00  0.00    +0.162 C 
ATOM     21  O   LIG    1       25.744 -24.434   7.723  0.00  0.00    -0.344 OA
ATOM     22  C   LIG    1       25.202 -24.459   6.410  0.00  0.00    +0.255 C 
ATOM     23  O   LIG    1       25.137 -23.091   5.976  0.00  0.00    -0.334 OA
ENDROOT
BRANCH  22  24
ATOM     24  C   LIG    1       26.080 -25.355   5.492  0.00  0.00    +0.045 C 
ATOM     25  C   LIG    1       26.873 -26.450   6.243  0.00  0.00    +0.008 C 
ATOM     26  C   LIG    1       25.986 -27.569   6.792  0.00  0.00    +0.000 C 
ATOM     27  C   LIG    1       25.178 -28.237   5.685  0.00  0.00    +0.000 C 
ATOM     28  C   LIG    1       24.448 -27.218   4.817  0.00  0.00    +0.000 C 
ATOM     29  C   LIG    1       25.313 -26.045   4.349  0.00  0.00    +0.008 C 
ENDBRANCH  22  24
BRANCH   1  30
ATOM     30  C   LIG    1       23.424 -21.862   7.291  0.00  0.00    +0.205 C 
ATOM     31  O   LIG    1       22.954 -21.538   8.389  0.00  0.00    -0.291 OA
BRANCH  30  32
ATOM     32  C   LIG    1       22.543 -21.815   6.048  0.00  0.00    +0.309 C 
BRANCH  32  33
ATOM     33  O   LIG    1       22.604 -20.494   5.494  0.00  0.00    -0.457 OA
BRANCH  33  34
ATOM     34  C   LIG    1       23.276 -20.389   4.305  0.00  0.00    +0.310 C 
ATOM     35  O   LIG    1       23.750 -21.329   3.718  0.00  0.00    -0.251 OA
BRANCH  34  37
ATOM     36  C   LIG    1       22.308 -18.083   4.643  0.00  0.00    +0.019 C 
ATOM     37  C   LIG    1       23.197 -18.957   3.766  0.00  0.00    +0.092 C 
ATOM     38  C   LIG    1       24.581 -18.328   3.614  0.00  0.00    +0.019 C 
ENDBRANCH  34  37
ENDBRANCH  33  34
ENDBRANCH  32  33
ENDBRANCH  30  32
ENDBRANCH   1  30
BRANCH   6  39
ATOM     39  O   LIG    1       27.929 -19.726   4.263  0.00  0.00    -0.391 OA
ATOM     40  H   LIG    1       27.728 -18.810   4.002  0.00  0.00    +0.210 HD
ENDBRANCH   6  39
TORSDOF 7
ENDMDL
MODEL 7
REMARK VINA RESULT:      -5.3      2.234      6.966
REMARK  Name = *****
REMARK                            x       y       z     vdW  Elec       q    Type
REMARK                         _______ _______ _______ _____ _____    ______ ____
ROOT
ATOM      1  C   LIG    1       21.613 -30.993  12.873  0.00  0.00    +0.165 C 
ATOM      2  C   LIG    1       22.337 -32.005  11.882  0.00  0.00    +0.012 C 
ATOM      3  C   LIG    1       22.526 -31.200  10.554  0.00  0.00    +0.004 C 
ATOM      4  C   LIG    1       23.959 -30.671  10.392  0.00  0.00    -0.000 C 
ATOM      5  C   LIG    1       24.979 -31.856  10.354  0.00  0.00    +0.035 C 
ATOM      6  C   LIG    1       24.743 -32.883  11.496  0.00  0.00    +0.120 C 
ATOM      7  C   LIG    1       25.192 -32.581   8.946  0.00  0.00    +0.013 C 
ATOM      8  C   LIG    1       25.207 -31.564   7.783  0.00  0.00    -0.056 C 
ATOM      9  C   LIG    1       25.456 -32.042   6.539  0.00  0.00    +0.051 C 
ATOM     10  C   LIG    1       24.365 -33.016   6.153  0.00  0.00    +0.179 C 
ATOM     11  C   LIG    1       23.753 -33.810   7.261  0.00  0.00    +0.047 C 
ATOM     12  O   LIG    1       24.052 -33.200   4.985  0.00  0.00    -0.288 OA
ATOM     13  C   LIG    1       24.145 -30.480   7.860  0.00  0.00    +0.032 C 
ATOM     14  C   LIG    1       26.544 -33.350   9.036  0.00  0.00    +0.020 C 
ATOM     15  C   LIG    1       24.142 -33.627   8.538  0.00  0.00    -0.012 C 
ATOM     16  C   LIG    1       24.191 -29.746   9.186  0.00  0.00    +0.008 C 
ATOM     17  C   LIG    1       21.360 -30.203  10.545  0.00  0.00    +0.039 C 
ATOM     18  C   LIG    1       21.487 -33.243  11.474  0.00  0.00    +0.015 C 
ATOM     19  C   LIG    1       23.669 -32.496  12.504  0.00  0.00    +0.042 C 
ATOM     20  C   LIG    1       20.997 -29.902  11.989  0.00  0.00    +0.162 C 
ATOM     21  O   LIG    1       21.588 -28.656  12.364  0.00  0.00    -0.344 OA
ATOM     22  C   LIG    1       22.161 -28.866  13.647  0.00  0.00    +0.255 C 
ATOM     23  O   LIG    1       22.540 -30.251  13.696  0.00  0.00    -0.334 OA
ENDROOT
BRANCH  22  24
ATOM     24  C   LIG    1       23.355 -27.893  13.861  0.00  0.00    +0.045 C 
ATOM     25  C   LIG    1       24.010 -27.989  15.258  0.00  0.00    +0.008 C 
ATOM     26  C   LIG    1       24.794 -29.285  15.470  0.00  0.00    +0.000 C 
ATOM     27  C   LIG    1       25.883 -29.459  14.417  0.00  0.00    +0.000 C 
ATOM     28  C   LIG    1       25.346 -29.268  13.004  0.00  0.00    +0.000 C 
ATOM     29  C   LIG    1       24.478 -28.021  12.816  0.00  0.00    +0.008 C 
ENDBRANCH  22  24
BRANCH   1  30
ATOM     30  C   LIG    1       20.513 -31.687  13.717  0.00  0.00    +0.205 C 
ATOM     31  O   LIG    1       20.794 -32.573  14.534  0.00  0.00    -0.291 OA
BRANCH  30  32
ATOM     32  C   LIG    1       19.067 -31.227  13.570  0.00  0.00    +0.309 C 
BRANCH  32  33
ATOM     33  O   LIG    1       18.337 -32.233  12.855  0.00  0.00    -0.457 OA
BRANCH  33  34
ATOM     34  C   LIG    1       17.537 -31.767  11.845  0.00  0.00    +0.310 C 
ATOM     35  O   LIG    1       16.521 -31.144  12.028  0.00  0.00    -0.251 OA
BRANCH  34  37
ATOM     36  C   LIG    1       17.916 -33.420   9.976  0.00  0.00    +0.019 C 
ATOM     37  C   LIG    1       18.194 -32.010  10.482  0.00  0.00    +0.092 C 
ATOM     38  C   LIG    1       17.756 -30.975   9.447  0.00  0.00    +0.019 C 
ENDBRANCH  34  37
ENDBRANCH  33  34
ENDBRANCH  32  33
ENDBRANCH  30  32
ENDBRANCH   1  30
BRANCH   6  39
ATOM     39  O   LIG    1       25.968 -33.094  12.207  0.00  0.00    -0.391 OA
ATOM     40  H   LIG    1       26.636 -33.421  11.579  0.00  0.00    +0.210 HD
ENDBRANCH   6  39
TORSDOF 7
ENDMDL
MODEL 8
REMARK VINA RESULT:      -5.3      2.307      5.974
REMARK  Name = *****
REMARK                            x       y       z     vdW  Elec       q    Type
REMARK                         _______ _______ _______ _____ _____    ______ ____
ROOT
ATOM      1  C   LIG    1       24.919 -30.463  11.334  0.00  0.00    +0.165 C 
ATOM      2  C   LIG    1       23.333 -30.443  11.460  0.00  0.00    +0.012 C 
ATOM      3  C   LIG    1       23.014 -31.410  12.648  0.00  0.00    +0.004 C 
ATOM      4  C   LIG    1       22.709 -30.655  13.950  0.00  0.00    -0.000 C 
ATOM      5  C   LIG    1       21.459 -29.731  13.767  0.00  0.00    +0.035 C 
ATOM      6  C   LIG    1       21.533 -28.879  12.469  0.00  0.00    +0.120 C 
ATOM      7  C   LIG    1       20.026 -30.413  13.942  0.00  0.00    +0.013 C 
ATOM      8  C   LIG    1       20.021 -31.430  15.106  0.00  0.00    -0.056 C 
ATOM      9  C   LIG    1       18.842 -32.025  15.411  0.00  0.00    +0.051 C 
ATOM     10  C   LIG    1       18.372 -32.835  14.223  0.00  0.00    +0.179 C 
ATOM     11  C   LIG    1       18.737 -32.313  12.870  0.00  0.00    +0.047 C 
ATOM     12  O   LIG    1       17.667 -33.825  14.358  0.00  0.00    -0.288 OA
ATOM     13  C   LIG    1       21.241 -32.333  15.178  0.00  0.00    +0.032 C 
ATOM     14  C   LIG    1       19.008 -29.262  14.199  0.00  0.00    +0.020 C 
ATOM     15  C   LIG    1       19.477 -31.195  12.737  0.00  0.00    -0.012 C 
ATOM     16  C   LIG    1       22.528 -31.532  15.199  0.00  0.00    +0.008 C 
ATOM     17  C   LIG    1       24.164 -32.427  12.630  0.00  0.00    +0.039 C 
ATOM     18  C   LIG    1       22.572 -31.048  10.245  0.00  0.00    +0.015 C 
ATOM     19  C   LIG    1       22.837 -28.994  11.691  0.00  0.00    +0.042 C 
ATOM     20  C   LIG    1       25.386 -31.732  12.056  0.00  0.00    +0.162 C 
ATOM     21  O   LIG    1       26.237 -31.330  13.133  0.00  0.00    -0.344 OA
ATOM     22  C   LIG    1       26.636 -29.999  12.838  0.00  0.00    +0.255 C 
ATOM     23  O   LIG    1       25.557 -29.412  12.093  0.00  0.00    -0.334 OA
ENDROOT
BRANCH  22  24
ATOM     24  C   LIG    1       26.959 -29.239  14.155  0.00  0.00    +0.045 C 
ATOM     25  C   LIG    1       27.734 -27.915  13.951  0.00  0.00    +0.008 C 
ATOM     26  C   LIG    1       26.888 -26.814  13.311  0.00  0.00    +0.000 C 
ATOM     27  C   LIG    1       25.639 -26.516  14.133  0.00  0.00    +0.000 C 
ATOM     28  C   LIG    1       24.869 -27.785  14.480  0.00  0.00    +0.000 C 
ATOM     29  C   LIG    1       25.732 -28.924  15.029  0.00  0.00    +0.008 C 
ENDBRANCH  22  24
BRANCH   1  30
ATOM     30  C   LIG    1       25.388 -30.481   9.856  0.00  0.00    +0.205 C 
ATOM     31  O   LIG    1       25.844 -31.509   9.339  0.00  0.00    -0.291 OA
BRANCH  30  32
ATOM     32  C   LIG    1       25.232 -29.217   9.017  0.00  0.00    +0.309 C 
BRANCH  32  33
ATOM     33  O   LIG    1       25.538 -29.534   7.652  0.00  0.00    -0.457 OA
BRANCH  33  34
ATOM     34  C   LIG    1       24.767 -28.895   6.717  0.00  0.00    +0.310 C 
ATOM     35  O   LIG    1       23.705 -29.311   6.328  0.00  0.00    -0.251 OA
BRANCH  34  37
ATOM     36  C   LIG    1       26.078 -27.559   5.025  0.00  0.00    +0.019 C 
ATOM     37  C   LIG    1       25.364 -27.527   6.371  0.00  0.00    +0.092 C 
ATOM     38  C   LIG    1       24.306 -26.424   6.388  0.00  0.00    +0.019 C 
ENDBRANCH  34  37
ENDBRANCH  33  34
ENDBRANCH  32  33
ENDBRANCH  30  32
ENDBRANCH   1  30
BRANCH   6  39
ATOM     39  O   LIG    1       21.326 -27.500  12.794  0.00  0.00    -0.391 OA
ATOM     40  H   LIG    1       20.385 -27.372  13.008  0.00  0.00    +0.210 HD
ENDBRANCH   6  39
TORSDOF 7
ENDMDL
MODEL 9
REMARK VINA RESULT:      -5.3      2.753      7.253
REMARK  Name = *****
REMARK                            x       y       z     vdW  Elec       q    Type
REMARK                         _______ _______ _______ _____ _____    ______ ____
ROOT
ATOM      1  C   LIG    1       22.217 -30.718  13.281  0.00  0.00    +0.165 C 
ATOM      2  C   LIG    1       22.738 -31.722  12.161  0.00  0.00    +0.012 C 
ATOM      3  C   LIG    1       23.259 -30.801  11.009  0.00  0.00    +0.004 C 
ATOM      4  C   LIG    1       24.790 -30.672  11.013  0.00  0.00    -0.000 C 
ATOM      5  C   LIG    1       25.458 -32.072  10.813  0.00  0.00    +0.035 C 
ATOM      6  C   LIG    1       24.849 -33.161  11.741  0.00  0.00    +0.120 C 
ATOM      7  C   LIG    1       25.603 -32.595   9.310  0.00  0.00    +0.013 C 
ATOM      8  C   LIG    1       25.998 -31.451   8.349  0.00  0.00    -0.056 C 
ATOM      9  C   LIG    1       26.229 -31.776   7.054  0.00  0.00    +0.051 C 
ATOM     10  C   LIG    1       24.961 -32.335   6.448  0.00  0.00    +0.179 C 
ATOM     11  C   LIG    1       24.057 -33.093   7.366  0.00  0.00    +0.047 C 
ATOM     12  O   LIG    1       24.722 -32.237   5.252  0.00  0.00    -0.288 OA
ATOM     13  C   LIG    1       25.259 -30.142   8.568  0.00  0.00    +0.032 C 
ATOM     14  C   LIG    1       26.688 -33.713   9.327  0.00  0.00    +0.020 C 
ATOM     15  C   LIG    1       24.357 -33.230   8.672  0.00  0.00    -0.012 C 
ATOM     16  C   LIG    1       25.372 -29.669  10.004  0.00  0.00    +0.008 C 
ATOM     17  C   LIG    1       22.406 -29.530  11.122  0.00  0.00    +0.039 C 
ATOM     18  C   LIG    1       21.633 -32.593  11.498  0.00  0.00    +0.015 C 
ATOM     19  C   LIG    1       23.826 -32.655  12.748  0.00  0.00    +0.042 C 
ATOM     20  C   LIG    1       22.000 -29.374  12.578  0.00  0.00    +0.162 C 
ATOM     21  O   LIG    1       22.862 -28.416  13.196  0.00  0.00    -0.344 OA
ATOM     22  C   LIG    1       23.234 -28.978  14.447  0.00  0.00    +0.255 C 
ATOM     23  O   LIG    1       23.225 -30.403  14.266  0.00  0.00    -0.334 OA
ENDROOT
BRANCH  22  24
ATOM     24  C   LIG    1       24.617 -28.422  14.888  0.00  0.00    +0.045 C 
ATOM     25  C   LIG    1       25.683 -28.407  13.767  0.00  0.00    +0.008 C 
ATOM     26  C   LIG    1       25.405 -27.362  12.685  0.00  0.00    +0.000 C 
ATOM     27  C   LIG    1       25.308 -25.958  13.272  0.00  0.00    +0.000 C 
ATOM     28  C   LIG    1       24.359 -25.904  14.463  0.00  0.00    +0.000 C 
ATOM     29  C   LIG    1       24.573 -27.010  15.500  0.00  0.00    +0.008 C 
ENDBRANCH  22  24
BRANCH   1  30
ATOM     30  C   LIG    1       20.897 -31.204  13.934  0.00  0.00    +0.205 C 
ATOM     31  O   LIG    1       20.879 -32.181  14.694  0.00  0.00    -0.291 OA
BRANCH  30  32
ATOM     32  C   LIG    1       19.613 -30.427  13.671  0.00  0.00    +0.309 C 
BRANCH  32  33
ATOM     33  O   LIG    1       19.477 -29.413  14.676  0.00  0.00    -0.457 OA
BRANCH  33  34
ATOM     34  C   LIG    1       18.502 -28.481  14.438  0.00  0.00    +0.310 C 
ATOM     35  O   LIG    1       17.326 -28.682  14.613  0.00  0.00    -0.251 OA
BRANCH  34  37
ATOM     36  C   LIG    1       18.074 -26.026  14.037  0.00  0.00    +0.019 C 
ATOM     37  C   LIG    1       19.126 -27.128  14.080  0.00  0.00    +0.092 C 
ATOM     38  C   LIG    1       20.254 -26.751  15.039  0.00  0.00    +0.019 C 
ENDBRANCH  34  37
ENDBRANCH  33  34
ENDBRANCH  32  33
ENDBRANCH  30  32
ENDBRANCH   1  30
BRANCH   6  39
ATOM     39  O   LIG    1       25.901 -33.813  12.461  0.00  0.00    -0.391 OA
ATOM     40  H   LIG    1       26.128 -34.637  11.994  0.00  0.00    +0.210 HD
ENDBRANCH   6  39
TORSDOF 7
ENDMDL
