MODEL 1
REMARK VINA RESULT:      -7.4      0.000      0.000
REMARK  Name = *****
REMARK                            x       y       z     vdW  Elec       q    Type
REMARK                         _______ _______ _______ _____ _____    ______ ____
ROOT
ATOM      1  CA  LIG    1       26.712 -21.579   8.397  0.00  0.00    +0.190 C 
ATOM      2  C   LIG    1       25.166 -21.648   8.389  0.00  0.00    +0.165 C 
ATOM      3  S   LIG    1       24.237 -20.419   7.410  0.00  0.00    -0.127 S 
ATOM      4  C   LIG    1       24.205 -21.426   5.858  0.00  0.00    +0.042 C 
ATOM      5  CA  LIG    1       24.472 -22.889   6.290  0.00  0.00    +0.201 C 
ATOM      6  C   LIG    1       25.319 -20.891   4.940  0.00  0.00    +0.025 C 
ATOM      7  C   LIG    1       22.861 -21.193   5.157  0.00  0.00    +0.025 C 
ATOM      8  N   LIG    1       25.257 -22.848   7.531  0.00  0.00    -0.271 N 
ATOM      9  C   LIG    1       26.623 -22.756   7.407  0.00  0.00    +0.240 C 
ATOM     10  O   LIG    1       27.372 -23.262   6.605  0.00  0.00    -0.273 OA
ENDROOT
BRANCH   1  12
ATOM     11  C   LIG    1       28.718 -20.192   7.843  0.00  0.00    +0.254 C 
ATOM     12  N   LIG    1       27.352 -20.360   7.876  0.00  0.00    -0.299 N 
ATOM     13  H   LIG    1       26.793 -19.616   7.436  0.00  0.00    +0.150 HD
ATOM     14  O   LIG    1       29.479 -21.050   8.284  0.00  0.00    -0.272 OA
BRANCH  11  16
ATOM     15  C   LIG    1       29.072 -18.969   5.710  0.00  0.00    +0.062 C 
ATOM     16  C   LIG    1       29.201 -18.870   7.228  0.00  0.00    +0.255 C 
BRANCH  16  17
ATOM     17  O   LIG    1       30.576 -18.569   7.493  0.00  0.00    -0.480 OA
BRANCH  17  18
ATOM     18  C   LIG    1       30.860 -17.886   8.643  0.00  0.00    +0.122 A 
ATOM     19  C   LIG    1       29.985 -17.730   9.720  0.00  0.00    +0.045 A 
ATOM     20  C   LIG    1       30.419 -17.089  10.883  0.00  0.00    +0.004 A 
ATOM     21  C   LIG    1       31.720 -16.593  10.969  0.00  0.00    +0.000 A 
ATOM     22  C   LIG    1       32.592 -16.743   9.895  0.00  0.00    +0.004 A 
ATOM     23  C   LIG    1       32.164 -17.399   8.738  0.00  0.00    +0.045 A 
ENDBRANCH  17  18
ENDBRANCH  16  17
ENDBRANCH  11  16
ENDBRANCH   1  12
BRANCH   5  24
ATOM     24  C   LIG    1       23.195 -23.720   6.447  0.00  0.00    +0.327 C 
ATOM     25  O   LIG    1       22.185 -23.298   6.993  0.00  0.00    -0.249 OA
BRANCH  24  26
ATOM     26  OXT LIG    1       23.289 -25.006   6.046  0.00  0.00    -0.479 OA
ATOM     27  HXT LIG    1       22.709 -25.206   5.293  0.00  0.00    +0.295 HD
ENDBRANCH  24  26
ENDBRANCH   5  24
TORSDOF 6
ENDMDL
MODEL 2
REMARK VINA RESULT:      -6.7      6.854     10.064
REMARK  Name = *****
REMARK                            x       y       z     vdW  Elec       q    Type
REMARK                         _______ _______ _______ _____ _____    ______ ____
ROOT
ATOM      1  CA  LIG    1       24.568 -30.916   7.932  0.00  0.00    +0.190 C 
ATOM      2  C   LIG    1       25.593 -31.601   8.868  0.00  0.00    +0.165 C 
ATOM      3  S   LIG    1       27.028 -30.637   9.454  0.00  0.00    -0.127 S 
ATOM      4  C   LIG    1       26.193 -29.996  10.976  0.00  0.00    +0.042 C 
ATOM      5  CA  LIG    1       25.003 -30.949  11.246  0.00  0.00    +0.201 C 
ATOM      6  C   LIG    1       25.719 -28.564  10.672  0.00  0.00    +0.025 C 
ATOM      7  C   LIG    1       27.232 -29.922  12.103  0.00  0.00    +0.025 C 
ATOM      8  N   LIG    1       24.597 -31.527   9.957  0.00  0.00    -0.271 N 
ATOM      9  C   LIG    1       23.702 -30.808   9.201  0.00  0.00    +0.240 C 
ATOM     10  O   LIG    1       22.749 -30.144   9.536  0.00  0.00    -0.273 OA
ENDROOT
BRANCH   1  12
ATOM     11  C   LIG    1       24.259 -29.090   6.250  0.00  0.00    +0.254 C 
ATOM     12  N   LIG    1       24.947 -29.636   7.311  0.00  0.00    -0.299 N 
ATOM     13  H   LIG    1       25.699 -29.057   7.711  0.00  0.00    +0.150 HD
ATOM     14  O   LIG    1       23.304 -29.670   5.741  0.00  0.00    -0.272 OA
BRANCH  11  16
ATOM     15  C   LIG    1       25.979 -27.969   4.852  0.00  0.00    +0.062 C 
ATOM     16  C   LIG    1       24.779 -27.729   5.764  0.00  0.00    +0.255 C 
BRANCH  16  17
ATOM     17  O   LIG    1       25.241 -26.871   6.813  0.00  0.00    -0.480 OA
BRANCH  17  18
ATOM     18  C   LIG    1       24.936 -25.542   6.718  0.00  0.00    +0.122 A 
ATOM     19  C   LIG    1       23.657 -25.026   6.501  0.00  0.00    +0.045 A 
ATOM     20  C   LIG    1       23.451 -23.644   6.515  0.00  0.00    +0.004 A 
ATOM     21  C   LIG    1       24.521 -22.776   6.734  0.00  0.00    +0.000 A 
ATOM     22  C   LIG    1       25.798 -23.288   6.945  0.00  0.00    +0.004 A 
ATOM     23  C   LIG    1       26.001 -24.670   6.948  0.00  0.00    +0.045 A 
ENDBRANCH  17  18
ENDBRANCH  16  17
ENDBRANCH  11  16
ENDBRANCH   1  12
BRANCH   5  24
ATOM     24  C   LIG    1       25.311 -32.030  12.287  0.00  0.00    +0.327 C 
ATOM     25  O   LIG    1       25.871 -33.082  12.012  0.00  0.00    -0.249 OA
BRANCH  24  26
ATOM     26  OXT LIG    1       24.817 -31.800  13.521  0.00  0.00    -0.479 OA
ATOM     27  HXT LIG    1       24.517 -30.884  13.641  0.00  0.00    +0.295 HD
ENDBRANCH  24  26
ENDBRANCH   5  24
TORSDOF 6
ENDMDL
MODEL 3
REMARK VINA RESULT:      -6.3      1.650      2.205
REMARK  Name = *****
REMARK                            x       y       z     vdW  Elec       q    Type
REMARK                         _______ _______ _______ _____ _____    ______ ____
ROOT
ATOM      1  CA  LIG    1       26.553 -20.223   7.994  0.00  0.00    +0.190 C 
ATOM      2  C   LIG    1       25.689 -20.444   6.729  0.00  0.00    +0.165 C 
ATOM      3  S   LIG    1       26.249 -21.655   5.484  0.00  0.00    -0.127 S 
ATOM      4  C   LIG    1       25.363 -23.096   6.237  0.00  0.00    +0.042 C 
ATOM      5  CA  LIG    1       24.256 -22.495   7.137  0.00  0.00    +0.201 C 
ATOM      6  C   LIG    1       26.395 -23.892   7.056  0.00  0.00    +0.025 C 
ATOM      7  C   LIG    1       24.858 -23.999   5.105  0.00  0.00    +0.025 C 
ATOM      8  N   LIG    1       24.707 -21.165   7.567  0.00  0.00    -0.271 N 
ATOM      9  C   LIG    1       25.496 -21.101   8.691  0.00  0.00    +0.240 C 
ATOM     10  O   LIG    1       25.450 -21.739   9.717  0.00  0.00    -0.273 OA
ENDROOT
BRANCH   1  12
ATOM     11  C   LIG    1       28.998 -20.060   7.492  0.00  0.00    +0.254 C 
ATOM     12  N   LIG    1       27.924 -20.759   7.997  0.00  0.00    -0.299 N 
ATOM     13  H   LIG    1       28.141 -21.653   8.459  0.00  0.00    +0.150 HD
ATOM     14  O   LIG    1       28.856 -18.954   6.978  0.00  0.00    -0.272 OA
BRANCH  11  16
ATOM     15  C   LIG    1       30.301 -21.706   8.819  0.00  0.00    +0.062 C 
ATOM     16  C   LIG    1       30.356 -20.765   7.618  0.00  0.00    +0.255 C 
BRANCH  16  17
ATOM     17  O   LIG    1       31.456 -19.879   7.856  0.00  0.00    -0.480 OA
BRANCH  17  18
ATOM     18  C   LIG    1       31.259 -18.855   8.740  0.00  0.00    +0.122 A 
ATOM     19  C   LIG    1       30.567 -18.961   9.947  0.00  0.00    +0.045 A 
ATOM     20  C   LIG    1       30.509 -17.867  10.816  0.00  0.00    +0.004 A 
ATOM     21  C   LIG    1       31.131 -16.666  10.476  0.00  0.00    +0.000 A 
ATOM     22  C   LIG    1       31.818 -16.557   9.270  0.00  0.00    +0.004 A 
ATOM     23  C   LIG    1       31.890 -17.655   8.409  0.00  0.00    +0.045 A 
ENDBRANCH  17  18
ENDBRANCH  16  17
ENDBRANCH  11  16
ENDBRANCH   1  12
BRANCH   5  24
ATOM     24  C   LIG    1       22.882 -22.444   6.462  0.00  0.00    +0.327 C 
ATOM     25  O   LIG    1       22.473 -21.466   5.853  0.00  0.00    -0.249 OA
BRANCH  24  26
ATOM     26  OXT LIG    1       22.091 -23.516   6.681  0.00  0.00    -0.479 OA
ATOM     27  HXT LIG    1       21.158 -23.273   6.801  0.00  0.00    +0.295 HD
ENDBRANCH  24  26
ENDBRANCH   5  24
TORSDOF 6
ENDMDL
MODEL 4
REMARK VINA RESULT:      -6.3      2.228      7.137
REMARK  Name = *****
REMARK                            x       y       z     vdW  Elec       q    Type
REMARK                         _______ _______ _______ _____ _____    ______ ____
ROOT
ATOM      1  CA  LIG    1       26.869 -22.227   8.189  0.00  0.00    +0.190 C 
ATOM      2  C   LIG    1       28.368 -21.842   8.151  0.00  0.00    +0.165 C 
ATOM      3  S   LIG    1       29.153 -21.530   6.533  0.00  0.00    -0.127 S 
ATOM      4  C   LIG    1       28.774 -19.718   6.506  0.00  0.00    +0.042 C 
ATOM      5  CA  LIG    1       28.498 -19.316   7.975  0.00  0.00    +0.201 C 
ATOM      6  C   LIG    1       27.532 -19.522   5.618  0.00  0.00    +0.025 C 
ATOM      7  C   LIG    1       29.949 -18.988   5.844  0.00  0.00    +0.025 C 
ATOM      8  N   LIG    1       28.004 -20.509   8.676  0.00  0.00    -0.271 N 
ATOM      9  C   LIG    1       26.654 -20.761   8.612  0.00  0.00    +0.240 C 
ATOM     10  O   LIG    1       25.713 -20.002   8.630  0.00  0.00    -0.273 OA
ENDROOT
BRANCH   1  12
ATOM     11  C   LIG    1       24.868 -22.824   6.813  0.00  0.00    +0.254 C 
ATOM     12  N   LIG    1       26.225 -22.624   6.926  0.00  0.00    -0.299 N 
ATOM     13  H   LIG    1       26.767 -22.684   6.053  0.00  0.00    +0.150 HD
ATOM     14  O   LIG    1       24.122 -22.712   7.782  0.00  0.00    -0.272 OA
BRANCH  11  16
ATOM     15  C   LIG    1       25.031 -24.512   4.999  0.00  0.00    +0.062 C 
ATOM     16  C   LIG    1       24.376 -23.196   5.406  0.00  0.00    +0.255 C 
BRANCH  16  17
ATOM     17  O   LIG    1       24.726 -22.245   4.394  0.00  0.00    -0.480 OA
BRANCH  17  18
ATOM     18  C   LIG    1       24.004 -21.086   4.342  0.00  0.00    +0.122 A 
ATOM     19  C   LIG    1       22.790 -20.868   4.996  0.00  0.00    +0.045 A 
ATOM     20  C   LIG    1       22.186 -19.609   4.944  0.00  0.00    +0.004 A 
ATOM     21  C   LIG    1       22.786 -18.571   4.231  0.00  0.00    +0.000 A 
ATOM     22  C   LIG    1       23.993 -18.787   3.573  0.00  0.00    +0.004 A 
ATOM     23  C   LIG    1       24.605 -20.042   3.639  0.00  0.00    +0.045 A 
ENDBRANCH  17  18
ENDBRANCH  16  17
ENDBRANCH  11  16
ENDBRANCH   1  12
BRANCH   5  24
ATOM     24  C   LIG    1       29.712 -18.701   8.677  0.00  0.00    +0.327 C 
ATOM     25  O   LIG    1       29.939 -17.499   8.689  0.00  0.00    -0.249 OA
BRANCH  24  26
ATOM     26  OXT LIG    1       30.592 -19.585   9.191  0.00  0.00    -0.479 OA
ATOM     27  HXT LIG    1       30.215 -20.110   9.916  0.00  0.00    +0.295 HD
ENDBRANCH  24  26
ENDBRANCH   5  24
TORSDOF 6
ENDMDL
MODEL 5
REMARK VINA RESULT:      -6.3      7.156     10.175
REMARK  Name = *****
REMARK                            x       y       z     vdW  Elec       q    Type
REMARK                         _______ _______ _______ _____ _____    ______ ____
ROOT
ATOM      1  CA  LIG    1       26.621 -30.360   9.206  0.00  0.00    +0.190 C 
ATOM      2  C   LIG    1       27.052 -30.081  10.666  0.00  0.00    +0.165 C 
ATOM      3  S   LIG    1       26.372 -28.616  11.516  0.00  0.00    -0.127 S 
ATOM      4  C   LIG    1       24.896 -29.491  12.209  0.00  0.00    +0.042 C 
ATOM      5  CA  LIG    1       25.239 -31.000  12.181  0.00  0.00    +0.201 C 
ATOM      6  C   LIG    1       23.699 -29.161  11.300  0.00  0.00    +0.025 C 
ATOM      7  C   LIG    1       24.604 -28.919  13.602  0.00  0.00    +0.025 C 
ATOM      8  N   LIG    1       26.207 -31.214  11.096  0.00  0.00    -0.271 N 
ATOM      9  C   LIG    1       25.701 -31.423   9.835  0.00  0.00    +0.240 C 
ATOM     10  O   LIG    1       24.720 -32.031   9.475  0.00  0.00    -0.273 OA
ENDROOT
BRANCH   1  12
ATOM     11  C   LIG    1       25.446 -29.451   7.193  0.00  0.00    +0.254 C 
ATOM     12  N   LIG    1       25.937 -29.284   8.469  0.00  0.00    -0.299 N 
ATOM     13  H   LIG    1       25.726 -28.385   8.923  0.00  0.00    +0.150 HD
ATOM     14  O   LIG    1       25.588 -30.509   6.587  0.00  0.00    -0.272 OA
BRANCH  11  16
ATOM     15  C   LIG    1       24.027 -28.653   5.317  0.00  0.00    +0.062 C 
ATOM     16  C   LIG    1       24.728 -28.227   6.604  0.00  0.00    +0.255 C 
BRANCH  16  17
ATOM     17  O   LIG    1       25.604 -27.153   6.244  0.00  0.00    -0.480 OA
BRANCH  17  18
ATOM     18  C   LIG    1       25.139 -25.878   6.414  0.00  0.00    +0.122 A 
ATOM     19  C   LIG    1       23.801 -25.493   6.314  0.00  0.00    +0.045 A 
ATOM     20  C   LIG    1       23.432 -24.176   6.600  0.00  0.00    +0.004 A 
ATOM     21  C   LIG    1       24.397 -23.241   6.974  0.00  0.00    +0.000 A 
ATOM     22  C   LIG    1       25.732 -23.621   7.070  0.00  0.00    +0.004 A 
ATOM     23  C   LIG    1       26.099 -24.942   6.800  0.00  0.00    +0.045 A 
ENDBRANCH  17  18
ENDBRANCH  16  17
ENDBRANCH  11  16
ENDBRANCH   1  12
BRANCH   5  24
ATOM     24  C   LIG    1       25.754 -31.534  13.521  0.00  0.00    +0.327 C 
ATOM     25  O   LIG    1       26.917 -31.421  13.883  0.00  0.00    -0.249 OA
BRANCH  24  26
ATOM     26  OXT LIG    1       24.862 -32.248  14.240  0.00  0.00    -0.479 OA
ATOM     27  HXT LIG    1       24.470 -31.736  14.966  0.00  0.00    +0.295 HD
ENDBRANCH  24  26
ENDBRANCH   5  24
TORSDOF 6
ENDMDL
MODEL 6
REMARK VINA RESULT:      -6.3      9.603     10.944
REMARK  Name = *****
REMARK                            x       y       z     vdW  Elec       q    Type
REMARK                         _______ _______ _______ _____ _____    ______ ____
ROOT
ATOM      1  CA  LIG    1       26.396 -29.581   8.765  0.00  0.00    +0.190 C 
ATOM      2  C   LIG    1       26.244 -31.093   8.476  0.00  0.00    +0.165 C 
ATOM      3  S   LIG    1       25.274 -32.116   9.635  0.00  0.00    -0.127 S 
ATOM      4  C   LIG    1       23.658 -31.874   8.766  0.00  0.00    +0.042 C 
ATOM      5  CA  LIG    1       24.009 -31.425   7.326  0.00  0.00    +0.201 C 
ATOM      6  C   LIG    1       22.885 -30.785   9.529  0.00  0.00    +0.025 C 
ATOM      7  C   LIG    1       22.858 -33.178   8.860  0.00  0.00    +0.025 C 
ATOM      8  N   LIG    1       25.316 -30.755   7.376  0.00  0.00    -0.271 N 
ATOM      9  C   LIG    1       25.322 -29.413   7.674  0.00  0.00    +0.240 C 
ATOM     10  O   LIG    1       24.557 -28.535   7.350  0.00  0.00    -0.273 OA
ENDROOT
BRANCH   1  12
ATOM     11  C   LIG    1       26.941 -28.912  11.114  0.00  0.00    +0.254 C 
ATOM     12  N   LIG    1       26.023 -29.092  10.103  0.00  0.00    -0.299 N 
ATOM     13  H   LIG    1       25.061 -28.785  10.304  0.00  0.00    +0.150 HD
ATOM     14  O   LIG    1       28.127 -29.187  10.956  0.00  0.00    -0.272 OA
BRANCH  11  16
ATOM     15  C   LIG    1       27.413 -28.542  13.524  0.00  0.00    +0.062 C 
ATOM     16  C   LIG    1       26.368 -28.358  12.427  0.00  0.00    +0.255 C 
BRANCH  16  17
ATOM     17  O   LIG    1       25.189 -29.031  12.881  0.00  0.00    -0.480 OA
BRANCH  17  18
ATOM     18  C   LIG    1       24.029 -28.310  12.923  0.00  0.00    +0.122 A 
ATOM     19  C   LIG    1       22.764 -28.806  12.601  0.00  0.00    +0.045 A 
ATOM     20  C   LIG    1       21.636 -27.999  12.771  0.00  0.00    +0.004 A 
ATOM     21  C   LIG    1       21.768 -26.696  13.249  0.00  0.00    +0.000 A 
ATOM     22  C   LIG    1       23.028 -26.197  13.565  0.00  0.00    +0.004 A 
ATOM     23  C   LIG    1       24.155 -27.009  13.412  0.00  0.00    +0.045 A 
ENDBRANCH  17  18
ENDBRANCH  16  17
ENDBRANCH  11  16
ENDBRANCH   1  12
BRANCH   5  24
ATOM     24  C   LIG    1       23.992 -32.570   6.309  0.00  0.00    +0.327 C 
ATOM     25  O   LIG    1       24.850 -33.440   6.267  0.00  0.00    -0.249 OA
BRANCH  24  26
ATOM     26  OXT LIG    1       23.022 -32.497   5.372  0.00  0.00    -0.479 OA
ATOM     27  HXT LIG    1       23.303 -32.854   4.514  0.00  0.00    +0.295 HD
ENDBRANCH  24  26
ENDBRANCH   5  24
TORSDOF 6
ENDMDL
MODEL 7
REMARK VINA RESULT:      -6.3      2.455      7.956
REMARK  Name = *****
REMARK                            x       y       z     vdW  Elec       q    Type
REMARK                         _______ _______ _______ _____ _____    ______ ____
ROOT
ATOM      1  CA  LIG    1       30.213 -20.936   7.537  0.00  0.00    +0.190 C 
ATOM      2  C   LIG    1       30.742 -19.491   7.370  0.00  0.00    +0.165 C 
ATOM      3  S   LIG    1       29.606 -18.098   7.686  0.00  0.00    -0.127 S 
ATOM      4  C   LIG    1       30.014 -17.949   9.485  0.00  0.00    +0.042 C 
ATOM      5  CA  LIG    1       31.383 -18.647   9.673  0.00  0.00    +0.201 C 
ATOM      6  C   LIG    1       28.898 -18.661  10.269  0.00  0.00    +0.025 C 
ATOM      7  C   LIG    1       29.986 -16.463   9.865  0.00  0.00    +0.025 C 
ATOM      8  N   LIG    1       31.510 -19.664   8.621  0.00  0.00    -0.271 N 
ATOM      9  C   LIG    1       30.973 -20.903   8.877  0.00  0.00    +0.240 C 
ATOM     10  O   LIG    1       30.937 -21.545   9.900  0.00  0.00    -0.273 OA
ENDROOT
BRANCH   1  12
ATOM     11  C   LIG    1       27.888 -20.794   6.625  0.00  0.00    +0.254 C 
ATOM     12  N   LIG    1       28.757 -21.131   7.639  0.00  0.00    -0.299 N 
ATOM     13  H   LIG    1       28.344 -21.611   8.450  0.00  0.00    +0.150 HD
ATOM     14  O   LIG    1       28.288 -20.275   5.586  0.00  0.00    -0.272 OA
BRANCH  11  16
ATOM     15  C   LIG    1       26.338 -22.296   7.854  0.00  0.00    +0.062 C 
ATOM     16  C   LIG    1       26.410 -21.108   6.899  0.00  0.00    +0.255 C 
BRANCH  16  17
ATOM     17  O   LIG    1       25.667 -21.487   5.734  0.00  0.00    -0.480 OA
BRANCH  17  18
ATOM     18  C   LIG    1       24.750 -20.593   5.254  0.00  0.00    +0.122 A 
ATOM     19  C   LIG    1       24.907 -19.827   4.098  0.00  0.00    +0.045 A 
ATOM     20  C   LIG    1       23.862 -19.013   3.654  0.00  0.00    +0.004 A 
ATOM     21  C   LIG    1       22.665 -18.954   4.368  0.00  0.00    +0.000 A 
ATOM     22  C   LIG    1       22.508 -19.713   5.524  0.00  0.00    +0.004 A 
ATOM     23  C   LIG    1       23.547 -20.540   5.959  0.00  0.00    +0.045 A 
ENDBRANCH  17  18
ENDBRANCH  16  17
ENDBRANCH  11  16
ENDBRANCH   1  12
BRANCH   5  24
ATOM     24  C   LIG    1       32.567 -17.675   9.677  0.00  0.00    +0.327 C 
ATOM     25  O   LIG    1       33.024 -17.183  10.699  0.00  0.00    -0.249 OA
BRANCH  24  26
ATOM     26  OXT LIG    1       33.009 -17.297   8.459  0.00  0.00    -0.479 OA
ATOM     27  HXT LIG    1       33.908 -16.929   8.484  0.00  0.00    +0.295 HD
ENDBRANCH  24  26
ENDBRANCH   5  24
TORSDOF 6
ENDMDL
MODEL 8
REMARK VINA RESULT:      -6.1      1.166      1.291
REMARK  Name = *****
REMARK                            x       y       z     vdW  Elec       q    Type
REMARK                         _______ _______ _______ _____ _____    ______ ____
ROOT
ATOM      1  CA  LIG    1       26.269 -22.628   7.900  0.00  0.00    +0.190 C 
ATOM      2  C   LIG    1       24.827 -22.078   8.007  0.00  0.00    +0.165 C 
ATOM      3  S   LIG    1       24.451 -20.450   7.273  0.00  0.00    -0.127 S 
ATOM      4  C   LIG    1       23.982 -21.116   5.611  0.00  0.00    +0.042 C 
ATOM      5  CA  LIG    1       23.646 -22.612   5.829  0.00  0.00    +0.201 C 
ATOM      6  C   LIG    1       25.196 -20.934   4.684  0.00  0.00    +0.025 C 
ATOM      7  C   LIG    1       22.830 -20.268   5.057  0.00  0.00    +0.025 C 
ATOM      8  N   LIG    1       24.408 -23.072   6.997  0.00  0.00    -0.271 N 
ATOM      9  C   LIG    1       25.692 -23.510   6.777  0.00  0.00    +0.240 C 
ATOM     10  O   LIG    1       26.157 -24.144   5.858  0.00  0.00    -0.273 OA
ENDROOT
BRANCH   1  12
ATOM     11  C   LIG    1       27.623 -20.544   8.185  0.00  0.00    +0.254 C 
ATOM     12  N   LIG    1       27.335 -21.698   7.491  0.00  0.00    -0.299 N 
ATOM     13  H   LIG    1       27.964 -21.926   6.709  0.00  0.00    +0.150 HD
ATOM     14  O   LIG    1       26.973 -20.213   9.173  0.00  0.00    -0.272 OA
BRANCH  11  16
ATOM     15  C   LIG    1       29.138 -20.249   6.239  0.00  0.00    +0.062 C 
ATOM     16  C   LIG    1       28.795 -19.721   7.629  0.00  0.00    +0.255 C 
BRANCH  16  17
ATOM     17  O   LIG    1       29.996 -19.819   8.401  0.00  0.00    -0.480 OA
BRANCH  17  18
ATOM     18  C   LIG    1       30.483 -18.669   8.957  0.00  0.00    +0.122 A 
ATOM     19  C   LIG    1       29.853 -17.936   9.964  0.00  0.00    +0.045 A 
ATOM     20  C   LIG    1       30.491 -16.824  10.520  0.00  0.00    +0.004 A 
ATOM     21  C   LIG    1       31.751 -16.435  10.064  0.00  0.00    +0.000 A 
ATOM     22  C   LIG    1       32.378 -17.161   9.056  0.00  0.00    +0.004 A 
ATOM     23  C   LIG    1       31.748 -18.283   8.512  0.00  0.00    +0.045 A 
ENDBRANCH  17  18
ENDBRANCH  16  17
ENDBRANCH  11  16
ENDBRANCH   1  12
BRANCH   5  24
ATOM     24  C   LIG    1       22.146 -22.885   5.979  0.00  0.00    +0.327 C 
ATOM     25  O   LIG    1       21.289 -22.262   5.367  0.00  0.00    -0.249 OA
BRANCH  24  26
ATOM     26  OXT LIG    1       21.814 -23.786   6.927  0.00  0.00    -0.479 OA
ATOM     27  HXT LIG    1       21.281 -23.400   7.641  0.00  0.00    +0.295 HD
ENDBRANCH  24  26
ENDBRANCH   5  24
TORSDOF 6
ENDMDL
MODEL 9
REMARK VINA RESULT:      -5.9      8.183     11.659
REMARK  Name = *****
REMARK                            x       y       z     vdW  Elec       q    Type
REMARK                         _______ _______ _______ _____ _____    ______ ____
ROOT
ATOM      1  CA  LIG    1       23.187 -32.338   8.837  0.00  0.00    +0.190 C 
ATOM      2  C   LIG    1       23.911 -32.977  10.046  0.00  0.00    +0.165 C 
ATOM      3  S   LIG    1       25.452 -32.210  10.652  0.00  0.00    -0.127 S 
ATOM      4  C   LIG    1       24.619 -31.080  11.857  0.00  0.00    +0.042 C 
ATOM      5  CA  LIG    1       23.218 -31.687  12.115  0.00  0.00    +0.201 C 
ATOM      6  C   LIG    1       24.526 -29.693  11.197  0.00  0.00    +0.025 C 
ATOM      7  C   LIG    1       25.509 -30.955  13.100  0.00  0.00    +0.025 C 
ATOM      8  N   LIG    1       22.840 -32.454  10.921  0.00  0.00    -0.271 N 
ATOM      9  C   LIG    1       22.229 -31.767   9.900  0.00  0.00    +0.240 C 
ATOM     10  O   LIG    1       21.422 -30.867   9.934  0.00  0.00    -0.273 OA
ENDROOT
BRANCH   1  12
ATOM     11  C   LIG    1       23.853 -31.287   6.667  0.00  0.00    +0.254 C 
ATOM     12  N   LIG    1       23.920 -31.339   8.041  0.00  0.00    -0.299 N 
ATOM     13  H   LIG    1       24.447 -30.583   8.500  0.00  0.00    +0.150 HD
ATOM     14  O   LIG    1       23.196 -32.104   6.027  0.00  0.00    -0.272 OA
BRANCH  11  16
ATOM     15  C   LIG    1       25.784 -30.766   5.194  0.00  0.00    +0.062 C 
ATOM     16  C   LIG    1       24.655 -30.150   6.016  0.00  0.00    +0.255 C 
BRANCH  16  17
ATOM     17  O   LIG    1       25.280 -29.264   6.952  0.00  0.00    -0.480 OA
BRANCH  17  18
ATOM     18  C   LIG    1       25.225 -27.925   6.683  0.00  0.00    +0.122 A 
ATOM     19  C   LIG    1       26.100 -26.968   7.199  0.00  0.00    +0.045 A 
ATOM     20  C   LIG    1       26.004 -25.638   6.781  0.00  0.00    +0.004 A 
ATOM     21  C   LIG    1       25.028 -25.260   5.858  0.00  0.00    +0.000 A 
ATOM     22  C   LIG    1       24.152 -26.212   5.346  0.00  0.00    +0.004 A 
ATOM     23  C   LIG    1       24.258 -27.545   5.752  0.00  0.00    +0.045 A 
ENDBRANCH  17  18
ENDBRANCH  16  17
ENDBRANCH  11  16
ENDBRANCH   1  12
BRANCH   5  24
ATOM     24  C   LIG    1       23.145 -32.535  13.388  0.00  0.00    +0.327 C 
ATOM     25  O   LIG    1       23.530 -33.695  13.441  0.00  0.00    -0.249 OA
BRANCH  24  26
ATOM     26  OXT LIG    1       22.516 -31.957  14.433  0.00  0.00    -0.479 OA
ATOM     27  HXT LIG    1       22.822 -31.051  14.599  0.00  0.00    +0.295 HD
ENDBRANCH  24  26
ENDBRANCH   5  24
TORSDOF 6
ENDMDL
