MODEL 1
REMARK VINA RESULT:      -4.6      0.000      0.000
REMARK  Name = *****
REMARK                            x       y       z     vdW  Elec       q    Type
REMARK                         _______ _______ _______ _____ _____    ______ ____
ROOT
ATOM      1  O   LIG    1       25.229 -20.443   4.658  0.00  0.00    -0.474 OA
ENDROOT
BRANCH   1   2
ATOM      2  C   LIG    1       24.121 -19.659   4.452  0.00  0.00    +0.158 A 
ATOM      3  C   LIG    1       24.168 -18.422   3.792  0.00  0.00    +0.084 A 
ATOM      4 CL   LIG    1       25.652 -17.665   3.334  0.00  0.00    -0.080 Cl
ATOM      5  C   LIG    1       22.989 -17.717   3.522  0.00  0.00    +0.024 A 
ATOM      6  C   LIG    1       21.761 -18.198   3.972  0.00  0.00    +0.003 A 
ATOM      7  C   LIG    1       21.715 -19.371   4.722  0.00  0.00    +0.024 A 
ATOM      8  C   LIG    1       22.889 -20.094   4.967  0.00  0.00    +0.084 A 
ATOM      9 CL   LIG    1       22.764 -21.534   5.915  0.00  0.00    -0.080 Cl
ENDBRANCH   1   2
BRANCH   1  11
ATOM     10  C   LIG    1       25.468 -21.572   6.748  0.00  0.00    +0.065 C 
ATOM     11  C   LIG    1       25.830 -20.314   5.954  0.00  0.00    +0.284 C 
BRANCH  11  12
ATOM     12  C   LIG    1       27.354 -20.066   6.002  0.00  0.00    +0.322 C 
ATOM     13  N   LIG    1       27.984 -19.222   5.119  0.00  0.00    -0.231 N 
ATOM     14  H   LIG    1       27.446 -18.466   4.709  0.00  0.00    +0.291 HD
ATOM     15  C   LIG    1       29.293 -18.917   5.637  0.00  0.00    +0.273 C 
ATOM     16  C   LIG    1       29.475 -20.033   6.666  0.00  0.00    +0.333 C 
ATOM     17  N   LIG    1       28.120 -20.580   6.940  0.00  0.00    -0.080 NA
ENDBRANCH  11  12
ENDBRANCH   1  11
TORSDOF 3
ENDMDL
MODEL 2
REMARK VINA RESULT:      -4.0      1.619      2.919
REMARK  Name = *****
REMARK                            x       y       z     vdW  Elec       q    Type
REMARK                         _______ _______ _______ _____ _____    ______ ____
ROOT
ATOM      1  O   LIG    1       24.646 -19.310   3.690  0.00  0.00    -0.474 OA
ENDROOT
BRANCH   1   2
ATOM      2  C   LIG    1       24.031 -18.109   3.942  0.00  0.00    +0.158 A 
ATOM      3  C   LIG    1       22.682 -18.000   4.310  0.00  0.00    +0.084 A 
ATOM      4 CL   LIG    1       21.601 -19.348   4.303  0.00  0.00    -0.080 Cl
ATOM      5  C   LIG    1       22.138 -16.756   4.654  0.00  0.00    +0.024 A 
ATOM      6  C   LIG    1       22.911 -15.600   4.562  0.00  0.00    +0.003 A 
ATOM      7  C   LIG    1       24.220 -15.683   4.094  0.00  0.00    +0.024 A 
ATOM      8  C   LIG    1       24.775 -16.929   3.779  0.00  0.00    +0.084 A 
ATOM      9 CL   LIG    1       26.401 -16.962   3.192  0.00  0.00    -0.080 Cl
ENDBRANCH   1   2
BRANCH   1  11
ATOM     10  C   LIG    1       24.333 -21.572   4.386  0.00  0.00    +0.065 C 
ATOM     11  C   LIG    1       24.776 -20.175   4.827  0.00  0.00    +0.284 C 
BRANCH  11  12
ATOM     12  C   LIG    1       26.160 -20.238   5.510  0.00  0.00    +0.322 C 
ATOM     13  N   LIG    1       27.322 -19.961   4.831  0.00  0.00    -0.231 N 
ATOM     14  H   LIG    1       27.275 -19.342   4.029  0.00  0.00    +0.291 HD
ATOM     15  C   LIG    1       28.371 -19.743   5.794  0.00  0.00    +0.273 C 
ATOM     16  C   LIG    1       27.758 -20.367   7.048  0.00  0.00    +0.333 C 
ATOM     17  N   LIG    1       26.298 -20.476   6.797  0.00  0.00    -0.080 NA
ENDBRANCH  11  12
ENDBRANCH   1  11
TORSDOF 3
ENDMDL
MODEL 3
REMARK VINA RESULT:      -3.7      1.890      2.508
REMARK  Name = *****
REMARK                            x       y       z     vdW  Elec       q    Type
REMARK                         _______ _______ _______ _____ _____    ______ ____
ROOT
ATOM      1  O   LIG    1       24.760 -18.895   3.399  0.00  0.00    -0.474 OA
ENDROOT
BRANCH   1   2
ATOM      2  C   LIG    1       24.396 -17.613   3.731  0.00  0.00    +0.158 A 
ATOM      3  C   LIG    1       25.283 -16.527   3.680  0.00  0.00    +0.084 A 
ATOM      4 CL   LIG    1       26.973 -16.715   3.376  0.00  0.00    -0.080 Cl
ATOM      5  C   LIG    1       24.827 -15.227   3.932  0.00  0.00    +0.024 A 
ATOM      6  C   LIG    1       23.504 -15.005   4.310  0.00  0.00    +0.003 A 
ATOM      7  C   LIG    1       22.643 -16.088   4.469  0.00  0.00    +0.024 A 
ATOM      8  C   LIG    1       23.088 -17.386   4.188  0.00  0.00    +0.084 A 
ATOM      9 CL   LIG    1       21.974 -18.687   4.417  0.00  0.00    -0.080 Cl
ENDBRANCH   1   2
BRANCH   1  11
ATOM     10  C   LIG    1       24.117 -21.147   3.860  0.00  0.00    +0.065 C 
ATOM     11  C   LIG    1       24.658 -19.849   4.465  0.00  0.00    +0.284 C 
BRANCH  11  12
ATOM     12  C   LIG    1       25.936 -20.128   5.287  0.00  0.00    +0.322 C 
ATOM     13  N   LIG    1       27.193 -19.921   4.772  0.00  0.00    -0.231 N 
ATOM     14  H   LIG    1       27.305 -19.230   4.038  0.00  0.00    +0.291 HD
ATOM     15  C   LIG    1       28.135 -19.910   5.862  0.00  0.00    +0.273 C 
ATOM     16  C   LIG    1       27.317 -20.573   6.970  0.00  0.00    +0.333 C 
ATOM     17  N   LIG    1       25.893 -20.496   6.550  0.00  0.00    -0.080 NA
ENDBRANCH  11  12
ENDBRANCH   1  11
TORSDOF 3
ENDMDL
MODEL 4
REMARK VINA RESULT:      -3.6      4.066      5.584
REMARK  Name = *****
REMARK                            x       y       z     vdW  Elec       q    Type
REMARK                         _______ _______ _______ _____ _____    ______ ____
ROOT
ATOM      1  O   LIG    1       25.930 -15.567   4.337  0.00  0.00    -0.474 OA
ENDROOT
BRANCH   1   2
ATOM      2  C   LIG    1       25.543 -14.439   3.655  0.00  0.00    +0.158 A 
ATOM      3  C   LIG    1       26.452 -13.565   3.041  0.00  0.00    +0.084 A 
ATOM      4 CL   LIG    1       28.163 -13.709   3.235  0.00  0.00    -0.080 Cl
ATOM      5  C   LIG    1       25.991 -12.488   2.273  0.00  0.00    +0.024 A 
ATOM      6  C   LIG    1       24.627 -12.228   2.172  0.00  0.00    +0.003 A 
ATOM      7  C   LIG    1       23.720 -13.026   2.867  0.00  0.00    +0.024 A 
ATOM      8  C   LIG    1       24.176 -14.122   3.609  0.00  0.00    +0.084 A 
ATOM      9 CL   LIG    1       23.002 -15.064   4.457  0.00  0.00    -0.080 Cl
ENDBRANCH   1   2
BRANCH   1  11
ATOM     10  C   LIG    1       27.733 -17.064   3.883  0.00  0.00    +0.065 C 
ATOM     11  C   LIG    1       26.300 -16.679   3.509  0.00  0.00    +0.284 C 
BRANCH  11  12
ATOM     12  C   LIG    1       25.380 -17.920   3.543  0.00  0.00    +0.322 C 
ATOM     13  N   LIG    1       25.882 -19.199   3.554  0.00  0.00    -0.231 N 
ATOM     14  H   LIG    1       26.809 -19.350   3.937  0.00  0.00    +0.291 HD
ATOM     15  C   LIG    1       24.830 -20.097   3.955  0.00  0.00    +0.273 C 
ATOM     16  C   LIG    1       23.593 -19.227   3.731  0.00  0.00    +0.333 C 
ATOM     17  N   LIG    1       24.072 -17.822   3.651  0.00  0.00    -0.080 NA
ENDBRANCH  11  12
ENDBRANCH   1  11
TORSDOF 3
ENDMDL
MODEL 5
REMARK VINA RESULT:      -3.2      3.328      4.925
REMARK  Name = *****
REMARK                            x       y       z     vdW  Elec       q    Type
REMARK                         _______ _______ _______ _____ _____    ______ ____
ROOT
ATOM      1  O   LIG    1       25.105 -17.949   3.205  0.00  0.00    -0.474 OA
ENDROOT
BRANCH   1   2
ATOM      2  C   LIG    1       24.434 -18.803   4.044  0.00  0.00    +0.158 A 
ATOM      3  C   LIG    1       23.074 -18.660   4.358  0.00  0.00    +0.084 A 
ATOM      4 CL   LIG    1       22.144 -17.288   3.873  0.00  0.00    -0.080 Cl
ATOM      5  C   LIG    1       22.421 -19.623   5.139  0.00  0.00    +0.024 A 
ATOM      6  C   LIG    1       23.131 -20.694   5.675  0.00  0.00    +0.003 A 
ATOM      7  C   LIG    1       24.505 -20.787   5.460  0.00  0.00    +0.024 A 
ATOM      8  C   LIG    1       25.153 -19.844   4.655  0.00  0.00    +0.084 A 
ATOM      9 CL   LIG    1       26.860 -20.008   4.436  0.00  0.00    -0.080 Cl
ENDBRANCH   1   2
BRANCH   1  11
ATOM     10  C   LIG    1       27.271 -17.080   3.700  0.00  0.00    +0.065 C 
ATOM     11  C   LIG    1       25.766 -16.855   3.856  0.00  0.00    +0.284 C 
BRANCH  11  12
ATOM     12  C   LIG    1       25.383 -15.429   3.401  0.00  0.00    +0.322 C 
ATOM     13  N   LIG    1       24.303 -14.761   3.927  0.00  0.00    -0.231 N 
ATOM     14  H   LIG    1       23.997 -15.001   4.863  0.00  0.00    +0.291 HD
ATOM     15  C   LIG    1       24.424 -13.365   3.592  0.00  0.00    +0.273 C 
ATOM     16  C   LIG    1       25.447 -13.418   2.456  0.00  0.00    +0.333 C 
ATOM     17  N   LIG    1       26.116 -14.742   2.550  0.00  0.00    -0.080 NA
ENDBRANCH  11  12
ENDBRANCH   1  11
TORSDOF 3
ENDMDL
MODEL 6
REMARK VINA RESULT:      -3.1      3.319      4.927
REMARK  Name = *****
REMARK                            x       y       z     vdW  Elec       q    Type
REMARK                         _______ _______ _______ _____ _____    ______ ____
ROOT
ATOM      1  O   LIG    1       24.983 -17.973   3.274  0.00  0.00    -0.474 OA
ENDROOT
BRANCH   1   2
ATOM      2  C   LIG    1       24.446 -18.873   4.161  0.00  0.00    +0.158 A 
ATOM      3  C   LIG    1       25.216 -19.814   4.861  0.00  0.00    +0.084 A 
ATOM      4 CL   LIG    1       26.895 -20.067   4.542  0.00  0.00    -0.080 Cl
ATOM      5  C   LIG    1       24.625 -20.637   5.828  0.00  0.00    +0.024 A 
ATOM      6  C   LIG    1       23.252 -20.583   6.054  0.00  0.00    +0.003 A 
ATOM      7  C   LIG    1       22.461 -19.729   5.288  0.00  0.00    +0.024 A 
ATOM      8  C   LIG    1       23.053 -18.884   4.343  0.00  0.00    +0.084 A 
ATOM      9 CL   LIG    1       22.015 -17.857   3.417  0.00  0.00    -0.080 Cl
ENDBRANCH   1   2
BRANCH   1  11
ATOM     10  C   LIG    1       27.160 -17.049   3.593  0.00  0.00    +0.065 C 
ATOM     11  C   LIG    1       25.667 -16.865   3.875  0.00  0.00    +0.284 C 
BRANCH  11  12
ATOM     12  C   LIG    1       25.211 -15.448   3.464  0.00  0.00    +0.322 C 
ATOM     13  N   LIG    1       24.104 -14.849   4.017  0.00  0.00    -0.231 N 
ATOM     14  H   LIG    1       23.818 -15.131   4.948  0.00  0.00    +0.291 HD
ATOM     15  C   LIG    1       24.153 -13.440   3.721  0.00  0.00    +0.273 C 
ATOM     16  C   LIG    1       25.167 -13.411   2.577  0.00  0.00    +0.333 C 
ATOM     17  N   LIG    1       25.901 -14.702   2.628  0.00  0.00    -0.080 NA
ENDBRANCH  11  12
ENDBRANCH   1  11
TORSDOF 3
ENDMDL
MODEL 7
REMARK VINA RESULT:      -3.0      2.617      4.310
REMARK  Name = *****
REMARK                            x       y       z     vdW  Elec       q    Type
REMARK                         _______ _______ _______ _____ _____    ______ ____
ROOT
ATOM      1  O   LIG    1       26.055 -19.382   3.380  0.00  0.00    -0.474 OA
ENDROOT
BRANCH   1   2
ATOM      2  C   LIG    1       25.939 -20.035   4.582  0.00  0.00    +0.158 A 
ATOM      3  C   LIG    1       26.858 -19.882   5.631  0.00  0.00    +0.084 A 
ATOM      4 CL   LIG    1       28.336 -19.003   5.456  0.00  0.00    -0.080 Cl
ATOM      5  C   LIG    1       26.631 -20.495   6.869  0.00  0.00    +0.024 A 
ATOM      6  C   LIG    1       25.527 -21.325   7.052  0.00  0.00    +0.003 A 
ATOM      7  C   LIG    1       24.666 -21.570   5.984  0.00  0.00    +0.024 A 
ATOM      8  C   LIG    1       24.874 -20.934   4.755  0.00  0.00    +0.084 A 
ATOM      9 CL   LIG    1       23.777 -21.290   3.468  0.00  0.00    -0.080 Cl
ENDBRANCH   1   2
BRANCH   1  11
ATOM     10  C   LIG    1       24.043 -18.411   4.219  0.00  0.00    +0.065 C 
ATOM     11  C   LIG    1       25.191 -18.248   3.220  0.00  0.00    +0.284 C 
BRANCH  11  12
ATOM     12  C   LIG    1       25.831 -16.849   3.357  0.00  0.00    +0.322 C 
ATOM     13  N   LIG    1       25.074 -15.707   3.455  0.00  0.00    -0.231 N 
ATOM     14  H   LIG    1       24.137 -15.781   3.836  0.00  0.00    +0.291 HD
ATOM     15  C   LIG    1       25.916 -14.641   3.934  0.00  0.00    +0.273 C 
ATOM     16  C   LIG    1       27.307 -15.216   3.661  0.00  0.00    +0.333 C 
ATOM     17  N   LIG    1       27.131 -16.679   3.473  0.00  0.00    -0.080 NA
ENDBRANCH  11  12
ENDBRANCH   1  11
TORSDOF 3
ENDMDL
MODEL 8
REMARK VINA RESULT:      -2.9      3.491      4.458
REMARK  Name = *****
REMARK                            x       y       z     vdW  Elec       q    Type
REMARK                         _______ _______ _______ _____ _____    ______ ____
ROOT
ATOM      1  O   LIG    1       25.411 -17.337   2.988  0.00  0.00    -0.474 OA
ENDROOT
BRANCH   1   2
ATOM      2  C   LIG    1       24.315 -17.865   3.626  0.00  0.00    +0.158 A 
ATOM      3  C   LIG    1       23.272 -17.079   4.136  0.00  0.00    +0.084 A 
ATOM      4 CL   LIG    1       23.342 -15.353   4.185  0.00  0.00    -0.080 Cl
ATOM      5  C   LIG    1       22.132 -17.681   4.685  0.00  0.00    +0.024 A 
ATOM      6  C   LIG    1       22.054 -19.067   4.798  0.00  0.00    +0.003 A 
ATOM      7  C   LIG    1       23.132 -19.853   4.394  0.00  0.00    +0.024 A 
ATOM      8  C   LIG    1       24.258 -19.255   3.817  0.00  0.00    +0.084 A 
ATOM      9 CL   LIG    1       25.565 -20.285   3.348  0.00  0.00    -0.080 Cl
ENDBRANCH   1   2
BRANCH   1  11
ATOM     10  C   LIG    1       27.560 -17.597   3.994  0.00  0.00    +0.065 C 
ATOM     11  C   LIG    1       26.349 -16.672   3.846  0.00  0.00    +0.284 C 
BRANCH  11  12
ATOM     12  C   LIG    1       26.800 -15.254   3.432  0.00  0.00    +0.322 C 
ATOM     13  N   LIG    1       26.225 -14.584   2.378  0.00  0.00    -0.231 N 
ATOM     14  H   LIG    1       25.271 -14.814   2.125  0.00  0.00    +0.291 HD
ATOM     15  C   LIG    1       26.583 -13.192   2.474  0.00  0.00    +0.273 C 
ATOM     16  C   LIG    1       27.772 -13.255   3.434  0.00  0.00    +0.333 C 
ATOM     17  N   LIG    1       27.697 -14.575   4.114  0.00  0.00    -0.080 NA
ENDBRANCH  11  12
ENDBRANCH   1  11
TORSDOF 3
ENDMDL
MODEL 9
REMARK VINA RESULT:      -2.7      3.013      4.600
REMARK  Name = *****
REMARK                            x       y       z     vdW  Elec       q    Type
REMARK                         _______ _______ _______ _____ _____    ______ ____
ROOT
ATOM      1  O   LIG    1       27.090 -18.825   4.087  0.00  0.00    -0.474 OA
ENDROOT
BRANCH   1   2
ATOM      2  C   LIG    1       26.356 -19.639   4.913  0.00  0.00    +0.158 A 
ATOM      3  C   LIG    1       26.923 -20.387   5.955  0.00  0.00    +0.084 A 
ATOM      4 CL   LIG    1       28.630 -20.512   6.192  0.00  0.00    -0.080 Cl
ATOM      5  C   LIG    1       26.109 -21.119   6.829  0.00  0.00    +0.024 A 
ATOM      6  C   LIG    1       24.731 -21.173   6.628  0.00  0.00    +0.003 A 
ATOM      7  C   LIG    1       24.169 -20.522   5.532  0.00  0.00    +0.024 A 
ATOM      8  C   LIG    1       24.977 -19.765   4.676  0.00  0.00    +0.084 A 
ATOM      9 CL   LIG    1       24.220 -18.992   3.328  0.00  0.00    -0.080 Cl
ENDBRANCH   1   2
BRANCH   1  11
ATOM     10  C   LIG    1       29.101 -17.767   4.815  0.00  0.00    +0.065 C 
ATOM     11  C   LIG    1       27.582 -17.625   4.699  0.00  0.00    +0.284 C 
BRANCH  11  12
ATOM     12  C   LIG    1       27.215 -16.286   4.021  0.00  0.00    +0.322 C 
ATOM     13  N   LIG    1       28.003 -15.167   4.143  0.00  0.00    -0.231 N 
ATOM     14  H   LIG    1       28.993 -15.292   4.320  0.00  0.00    +0.291 HD
ATOM     15  C   LIG    1       27.611 -14.222   3.128  0.00  0.00    +0.273 C 
ATOM     16  C   LIG    1       26.238 -14.764   2.730  0.00  0.00    +0.333 C 
ATOM     17  N   LIG    1       26.176 -16.165   3.221  0.00  0.00    -0.080 NA
ENDBRANCH  11  12
ENDBRANCH   1  11
TORSDOF 3
ENDMDL
