MODEL 1
REMARK VINA RESULT:      -3.5      0.000      0.000
REMARK  Name = *****
REMARK                            x       y       z     vdW  Elec       q    Type
REMARK                         _______ _______ _______ _____ _____    ______ ____
ROOT
ATOM      1 CL   LIG    1       22.577 -19.395   5.020  0.00  0.00    -0.090 Cl
ATOM      2  C   LIG    1       22.469 -21.050   5.458  0.00  0.00    +0.111 C 
ATOM      3  C   LIG    1       23.129 -21.638   6.459  0.00  0.00    +0.118 C 
ATOM      4 CL   LIG    1       22.895 -23.326   6.757  0.00  0.00    -0.070 Cl
ATOM      5 CL   LIG    1       24.224 -20.800   7.497  0.00  0.00    -0.070 Cl
ENDROOT
TORSDOF 0
ENDMDL
MODEL 2
REMARK VINA RESULT:      -3.4      1.878      3.733
REMARK  Name = *****
REMARK                            x       y       z     vdW  Elec       q    Type
REMARK                         _______ _______ _______ _____ _____    ______ ____
ROOT
ATOM      1 CL   LIG    1       25.851 -24.239   6.939  0.00  0.00    -0.090 Cl
ATOM      2  C   LIG    1       25.159 -22.677   7.094  0.00  0.00    +0.111 C 
ATOM      3  C   LIG    1       23.856 -22.389   7.026  0.00  0.00    +0.118 C 
ATOM      4 CL   LIG    1       23.337 -20.749   7.206  0.00  0.00    -0.070 Cl
ATOM      5 CL   LIG    1       22.633 -23.579   6.766  0.00  0.00    -0.070 Cl
ENDROOT
TORSDOF 0
ENDMDL
MODEL 3
REMARK VINA RESULT:      -3.4      1.437      2.629
REMARK  Name = *****
REMARK                            x       y       z     vdW  Elec       q    Type
REMARK                         _______ _______ _______ _____ _____    ______ ____
ROOT
ATOM      1 CL   LIG    1       25.751 -20.549   7.921  0.00  0.00    -0.090 Cl
ATOM      2  C   LIG    1       24.739 -21.909   7.664  0.00  0.00    +0.111 C 
ATOM      3  C   LIG    1       23.592 -21.912   6.981  0.00  0.00    +0.118 C 
ATOM      4 CL   LIG    1       22.698 -23.385   6.823  0.00  0.00    -0.070 Cl
ATOM      5 CL   LIG    1       22.931 -20.506   6.228  0.00  0.00    -0.070 Cl
ENDROOT
TORSDOF 0
ENDMDL
MODEL 4
REMARK VINA RESULT:      -3.3      1.889      2.469
REMARK  Name = *****
REMARK                            x       y       z     vdW  Elec       q    Type
REMARK                         _______ _______ _______ _____ _____    ______ ____
ROOT
ATOM      1 CL   LIG    1       25.484 -19.898   4.063  0.00  0.00    -0.090 Cl
ATOM      2  C   LIG    1       24.873 -20.725   5.436  0.00  0.00    +0.111 C 
ATOM      3  C   LIG    1       23.660 -20.563   5.971  0.00  0.00    +0.118 C 
ATOM      4 CL   LIG    1       23.214 -21.487   7.364  0.00  0.00    -0.070 Cl
ATOM      5 CL   LIG    1       22.485 -19.465   5.344  0.00  0.00    -0.070 Cl
ENDROOT
TORSDOF 0
ENDMDL
MODEL 5
REMARK VINA RESULT:      -3.3      1.641      2.326
REMARK  Name = *****
REMARK                            x       y       z     vdW  Elec       q    Type
REMARK                         _______ _______ _______ _____ _____    ______ ____
ROOT
ATOM      1 CL   LIG    1       22.942 -20.331   6.149  0.00  0.00    -0.090 Cl
ATOM      2  C   LIG    1       24.239 -21.357   6.602  0.00  0.00    +0.111 C 
ATOM      3  C   LIG    1       24.147 -22.664   6.863  0.00  0.00    +0.118 C 
ATOM      4 CL   LIG    1       25.568 -23.545   7.307  0.00  0.00    -0.070 Cl
ATOM      5 CL   LIG    1       22.666 -23.547   6.781  0.00  0.00    -0.070 Cl
ENDROOT
TORSDOF 0
ENDMDL
MODEL 6
REMARK VINA RESULT:      -3.3      3.389      4.093
REMARK  Name = *****
REMARK                            x       y       z     vdW  Elec       q    Type
REMARK                         _______ _______ _______ _____ _____    ______ ____
ROOT
ATOM      1 CL   LIG    1       25.931 -22.790   7.639  0.00  0.00    -0.090 Cl
ATOM      2  C   LIG    1       25.560 -24.249   6.817  0.00  0.00    +0.111 C 
ATOM      3  C   LIG    1       24.339 -24.658   6.462  0.00  0.00    +0.118 C 
ATOM      4 CL   LIG    1       24.154 -26.165   5.634  0.00  0.00    -0.070 Cl
ATOM      5 CL   LIG    1       22.904 -23.755   6.784  0.00  0.00    -0.070 Cl
ENDROOT
TORSDOF 0
ENDMDL
MODEL 7
REMARK VINA RESULT:      -3.3      3.485      4.084
REMARK  Name = *****
REMARK                            x       y       z     vdW  Elec       q    Type
REMARK                         _______ _______ _______ _____ _____    ______ ____
ROOT
ATOM      1 CL   LIG    1       22.775 -23.709   6.768  0.00  0.00    -0.090 Cl
ATOM      2  C   LIG    1       23.958 -24.887   6.375  0.00  0.00    +0.111 C 
ATOM      3  C   LIG    1       25.274 -24.767   6.566  0.00  0.00    +0.118 C 
ATOM      4 CL   LIG    1       26.322 -26.065   6.107  0.00  0.00    -0.070 Cl
ATOM      5 CL   LIG    1       26.010 -23.368   7.259  0.00  0.00    -0.070 Cl
ENDROOT
TORSDOF 0
ENDMDL
MODEL 8
REMARK VINA RESULT:      -3.3      2.387      3.342
REMARK  Name = *****
REMARK                            x       y       z     vdW  Elec       q    Type
REMARK                         _______ _______ _______ _____ _____    ______ ____
ROOT
ATOM      1 CL   LIG    1       22.625 -23.538   6.762  0.00  0.00    -0.090 Cl
ATOM      2  C   LIG    1       23.497 -22.160   7.294  0.00  0.00    +0.111 C 
ATOM      3  C   LIG    1       24.807 -22.115   7.549  0.00  0.00    +0.118 C 
ATOM      4 CL   LIG    1       25.520 -20.631   8.080  0.00  0.00    -0.070 Cl
ATOM      5 CL   LIG    1       25.856 -23.475   7.375  0.00  0.00    -0.070 Cl
ENDROOT
TORSDOF 0
ENDMDL
MODEL 9
REMARK VINA RESULT:      -3.3      3.551      4.691
REMARK  Name = *****
REMARK                            x       y       z     vdW  Elec       q    Type
REMARK                         _______ _______ _______ _____ _____    ______ ____
ROOT
ATOM      1 CL   LIG    1       25.789 -26.542   5.077  0.00  0.00    -0.090 Cl
ATOM      2  C   LIG    1       24.394 -25.665   5.551  0.00  0.00    +0.111 C 
ATOM      3  C   LIG    1       24.370 -24.633   6.399  0.00  0.00    +0.118 C 
ATOM      4 CL   LIG    1       22.863 -23.866   6.764  0.00  0.00    -0.070 Cl
ATOM      5 CL   LIG    1       25.781 -24.004   7.169  0.00  0.00    -0.070 Cl
ENDROOT
TORSDOF 0
ENDMDL
