MODEL 1
REMARK VINA RESULT:      -6.8      0.000      0.000
REMARK  Name = *****
REMARK                            x       y       z     vdW  Elec       q    Type
REMARK                         _______ _______ _______ _____ _____    ______ ____
ROOT
ATOM      1  C   LIG    1       24.292 -20.789   4.841  0.00  0.00    +0.161 C 
ENDROOT
BRANCH   1   2
ATOM      2  C   LIG    1       25.400 -20.607   5.853  0.00  0.00    -0.014 A 
ATOM      3  C   LIG    1       25.129 -20.757   7.222  0.00  0.00    +0.051 A 
ATOM      4  C   LIG    1       26.147 -20.598   8.159  0.00  0.00    +0.117 A 
ATOM      5  C   LIG    1       27.442 -20.289   7.762  0.00  0.00    +0.045 A 
ATOM      6  C   LIG    1       27.722 -20.133   6.405  0.00  0.00    +0.004 A 
ATOM      7  C   LIG    1       26.706 -20.287   5.457  0.00  0.00    +0.006 A 
BRANCH   4   8
ATOM      8  O   LIG    1       25.825 -20.757   9.475  0.00  0.00    -0.507 OA
ATOM      9  H   LIG    1       25.159 -21.461   9.545  0.00  0.00    +0.292 HD
ENDBRANCH   4   8
ENDBRANCH   1   2
BRANCH   1  11
ATOM     10  C   LIG    1       22.409 -19.040   4.801  0.00  0.00    +0.027 C 
ATOM     11  C   LIG    1       22.876 -20.386   5.348  0.00  0.00    +0.081 C 
BRANCH  11  12
ATOM     12  N   LIG    1       21.909 -21.449   4.978  0.00  0.00    -0.325 NA
ATOM     13  H   LIG    1       21.815 -21.470   3.961  0.00  0.00    +0.118 HD
ATOM     14  H   LIG    1       22.299 -22.359   5.230  0.00  0.00    +0.118 HD
ENDBRANCH  11  12
ENDBRANCH   1  11
BRANCH   1  15
ATOM     15  O   LIG    1       24.253 -22.171   4.458  0.00  0.00    -0.386 OA
ATOM     16  H   LIG    1       25.176 -22.473   4.574  0.00  0.00    +0.210 HD
ENDBRANCH   1  15
TORSDOF 5
ENDMDL
MODEL 2
REMARK VINA RESULT:      -6.8      3.237      4.799
REMARK  Name = *****
REMARK                            x       y       z     vdW  Elec       q    Type
REMARK                         _______ _______ _______ _____ _____    ______ ____
ROOT
ATOM      1  C   LIG    1       25.854 -21.083   7.891  0.00  0.00    +0.161 C 
ENDROOT
BRANCH   1   2
ATOM      2  C   LIG    1       25.244 -22.374   7.396  0.00  0.00    -0.014 A 
ATOM      3  C   LIG    1       23.856 -22.467   7.209  0.00  0.00    +0.051 A 
ATOM      4  C   LIG    1       23.289 -23.652   6.746  0.00  0.00    +0.117 A 
ATOM      5  C   LIG    1       24.079 -24.760   6.464  0.00  0.00    +0.045 A 
ATOM      6  C   LIG    1       25.458 -24.681   6.651  0.00  0.00    +0.004 A 
ATOM      7  C   LIG    1       26.037 -23.497   7.118  0.00  0.00    +0.006 A 
BRANCH   4   8
ATOM      8  O   LIG    1       21.936 -23.683   6.582  0.00  0.00    -0.507 OA
ATOM      9  H   LIG    1       21.744 -23.781   5.635  0.00  0.00    +0.292 HD
ENDBRANCH   4   8
ENDBRANCH   1   2
BRANCH   1  11
ATOM     10  C   LIG    1       27.393 -20.160   6.051  0.00  0.00    +0.027 C 
ATOM     11  C   LIG    1       27.316 -20.832   7.419  0.00  0.00    +0.081 C 
BRANCH  11  12
ATOM     12  N   LIG    1       28.017 -20.005   8.433  0.00  0.00    -0.325 NA
ATOM     13  H   LIG    1       27.810 -19.021   8.254  0.00  0.00    +0.118 HD
ATOM     14  H   LIG    1       27.622 -20.200   9.355  0.00  0.00    +0.118 HD
ENDBRANCH  11  12
ENDBRANCH   1  11
BRANCH   1  15
ATOM     15  O   LIG    1       25.843 -21.100   9.325  0.00  0.00    -0.386 OA
ATOM     16  H   LIG    1       26.340 -20.294   9.574  0.00  0.00    +0.210 HD
ENDBRANCH   1  15
TORSDOF 5
ENDMDL
MODEL 3
REMARK VINA RESULT:      -6.7      2.452      4.377
REMARK  Name = *****
REMARK                            x       y       z     vdW  Elec       q    Type
REMARK                         _______ _______ _______ _____ _____    ______ ____
ROOT
ATOM      1  C   LIG    1       24.198 -21.925   6.863  0.00  0.00    +0.161 C 
ENDROOT
BRANCH   1   2
ATOM      2  C   LIG    1       23.953 -20.859   5.820  0.00  0.00    -0.014 A 
ATOM      3  C   LIG    1       24.983 -20.487   4.943  0.00  0.00    +0.051 A 
ATOM      4  C   LIG    1       24.761 -19.510   3.975  0.00  0.00    +0.117 A 
ATOM      5  C   LIG    1       23.525 -18.887   3.859  0.00  0.00    +0.045 A 
ATOM      6  C   LIG    1       22.495 -19.245   4.728  0.00  0.00    +0.004 A 
ATOM      7  C   LIG    1       22.709 -20.222   5.705  0.00  0.00    +0.006 A 
BRANCH   4   8
ATOM      8  O   LIG    1       25.799 -19.191   3.150  0.00  0.00    -0.507 OA
ATOM      9  H   LIG    1       26.253 -18.413   3.516  0.00  0.00    +0.292 HD
ENDBRANCH   4   8
ENDBRANCH   1   2
BRANCH   1  11
ATOM     10  C   LIG    1       25.295 -24.249   6.877  0.00  0.00    +0.027 C 
ATOM     11  C   LIG    1       24.169 -23.384   6.320  0.00  0.00    +0.081 C 
BRANCH  11  12
ATOM     12  N   LIG    1       22.854 -23.993   6.640  0.00  0.00    -0.325 NA
ATOM     13  H   LIG    1       22.629 -23.796   7.617  0.00  0.00    +0.118 HD
ATOM     14  H   LIG    1       22.126 -23.524   6.097  0.00  0.00    +0.118 HD
ENDBRANCH  11  12
ENDBRANCH   1  11
BRANCH   1  15
ATOM     15  O   LIG    1       23.189 -21.805   7.876  0.00  0.00    -0.386 OA
ATOM     16  H   LIG    1       22.721 -22.663   7.845  0.00  0.00    +0.210 HD
ENDBRANCH   1  15
TORSDOF 5
ENDMDL
MODEL 4
REMARK VINA RESULT:      -6.6      3.037      4.451
REMARK  Name = *****
REMARK                            x       y       z     vdW  Elec       q    Type
REMARK                         _______ _______ _______ _____ _____    ______ ____
ROOT
ATOM      1  C   LIG    1       23.576 -23.155   6.626  0.00  0.00    +0.161 C 
ENDROOT
BRANCH   1   2
ATOM      2  C   LIG    1       23.625 -21.882   5.813  0.00  0.00    -0.014 A 
ATOM      3  C   LIG    1       24.811 -21.513   5.159  0.00  0.00    +0.051 A 
ATOM      4  C   LIG    1       24.861 -20.345   4.403  0.00  0.00    +0.117 A 
ATOM      5  C   LIG    1       23.746 -19.526   4.280  0.00  0.00    +0.045 A 
ATOM      6  C   LIG    1       22.563 -19.879   4.928  0.00  0.00    +0.004 A 
ATOM      7  C   LIG    1       22.504 -21.048   5.693  0.00  0.00    +0.006 A 
BRANCH   4   8
ATOM      8  O   LIG    1       26.040 -20.038   3.790  0.00  0.00    -0.507 OA
ATOM      9  H   LIG    1       26.647 -20.790   3.899  0.00  0.00    +0.292 HD
ENDBRANCH   4   8
ENDBRANCH   1   2
BRANCH   1  11
ATOM     10  C   LIG    1       25.706 -24.522   7.076  0.00  0.00    +0.027 C 
ATOM     11  C   LIG    1       24.533 -24.280   6.131  0.00  0.00    +0.081 C 
BRANCH  11  12
ATOM     12  N   LIG    1       23.755 -25.531   5.952  0.00  0.00    -0.325 NA
ATOM     13  H   LIG    1       23.032 -25.371   5.248  0.00  0.00    +0.118 HD
ATOM     14  H   LIG    1       24.363 -26.249   5.553  0.00  0.00    +0.118 HD
ENDBRANCH  11  12
ENDBRANCH   1  11
BRANCH   1  15
ATOM     15  O   LIG    1       22.234 -23.661   6.590  0.00  0.00    -0.386 OA
ATOM     16  H   LIG    1       22.241 -24.294   5.845  0.00  0.00    +0.210 HD
ENDBRANCH   1  15
TORSDOF 5
ENDMDL
MODEL 5
REMARK VINA RESULT:      -6.5      5.407      7.282
REMARK  Name = *****
REMARK                            x       y       z     vdW  Elec       q    Type
REMARK                         _______ _______ _______ _____ _____    ______ ____
ROOT
ATOM      1  C   LIG    1       30.839 -18.830   9.205  0.00  0.00    +0.161 C 
ENDROOT
BRANCH   1   2
ATOM      2  C   LIG    1       30.013 -19.304   8.031  0.00  0.00    -0.014 A 
ATOM      3  C   LIG    1       29.850 -18.476   6.910  0.00  0.00    +0.051 A 
ATOM      4  C   LIG    1       29.096 -18.909   5.822  0.00  0.00    +0.117 A 
ATOM      5  C   LIG    1       28.494 -20.161   5.824  0.00  0.00    +0.045 A 
ATOM      6  C   LIG    1       28.645 -20.991   6.934  0.00  0.00    +0.004 A 
ATOM      7  C   LIG    1       29.397 -20.563   8.033  0.00  0.00    +0.006 A 
BRANCH   4   8
ATOM      8  O   LIG    1       28.973 -18.062   4.761  0.00  0.00    -0.507 OA
ATOM      9  H   LIG    1       28.820 -18.593   3.961  0.00  0.00    +0.292 HD
ENDBRANCH   4   8
ENDBRANCH   1   2
BRANCH   1  11
ATOM     10  C   LIG    1       30.800 -16.735  10.694  0.00  0.00    +0.027 C 
ATOM     11  C   LIG    1       31.024 -17.286   9.289  0.00  0.00    +0.081 C 
BRANCH  11  12
ATOM     12  N   LIG    1       32.387 -16.936   8.816  0.00  0.00    -0.325 NA
ATOM     13  H   LIG    1       32.597 -17.487   7.981  0.00  0.00    +0.118 HD
ATOM     14  H   LIG    1       32.395 -15.963   8.506  0.00  0.00    +0.118 HD
ENDBRANCH  11  12
ENDBRANCH   1  11
BRANCH   1  15
ATOM     15  O   LIG    1       32.138 -19.432   9.115  0.00  0.00    -0.386 OA
ATOM     16  H   LIG    1       32.180 -20.020   9.896  0.00  0.00    +0.210 HD
ENDBRANCH   1  15
TORSDOF 5
ENDMDL
MODEL 6
REMARK VINA RESULT:      -6.4      3.598      5.694
REMARK  Name = *****
REMARK                            x       y       z     vdW  Elec       q    Type
REMARK                         _______ _______ _______ _____ _____    ______ ____
ROOT
ATOM      1  C   LIG    1       29.297 -20.280   8.023  0.00  0.00    +0.161 C 
ENDROOT
BRANCH   1   2
ATOM      2  C   LIG    1       27.900 -20.373   7.453  0.00  0.00    -0.014 A 
ATOM      3  C   LIG    1       27.694 -20.215   6.074  0.00  0.00    +0.051 A 
ATOM      4  C   LIG    1       26.410 -20.307   5.542  0.00  0.00    +0.117 A 
ATOM      5  C   LIG    1       25.315 -20.553   6.359  0.00  0.00    +0.045 A 
ATOM      6  C   LIG    1       25.506 -20.707   7.731  0.00  0.00    +0.004 A 
ATOM      7  C   LIG    1       26.790 -20.613   8.276  0.00  0.00    +0.006 A 
BRANCH   4   8
ATOM      8  O   LIG    1       26.272 -20.146   4.195  0.00  0.00    -0.507 OA
ATOM      9  H   LIG    1       26.324 -19.197   3.992  0.00  0.00    +0.292 HD
ENDBRANCH   4   8
ENDBRANCH   1   2
BRANCH   1  11
ATOM     10  C   LIG    1       30.360 -17.976   8.434  0.00  0.00    +0.027 C 
ATOM     11  C   LIG    1       30.159 -19.120   7.444  0.00  0.00    +0.081 C 
BRANCH  11  12
ATOM     12  N   LIG    1       31.474 -19.661   7.017  0.00  0.00    -0.325 NA
ATOM     13  H   LIG    1       31.340 -20.226   6.177  0.00  0.00    +0.118 HD
ATOM     14  H   LIG    1       32.076 -18.888   6.727  0.00  0.00    +0.118 HD
ENDBRANCH  11  12
ENDBRANCH   1  11
BRANCH   1  15
ATOM     15  O   LIG    1       29.975 -21.516   7.757  0.00  0.00    -0.386 OA
ATOM     16  H   LIG    1       30.523 -21.321   6.971  0.00  0.00    +0.210 HD
ENDBRANCH   1  15
TORSDOF 5
ENDMDL
MODEL 7
REMARK VINA RESULT:      -6.4      1.293      1.898
REMARK  Name = *****
REMARK                            x       y       z     vdW  Elec       q    Type
REMARK                         _______ _______ _______ _____ _____    ______ ____
ROOT
ATOM      1  C   LIG    1       24.261 -20.769   4.945  0.00  0.00    +0.161 C 
ENDROOT
BRANCH   1   2
ATOM      2  C   LIG    1       25.287 -20.653   6.048  0.00  0.00    -0.014 A 
ATOM      3  C   LIG    1       26.624 -20.366   5.734  0.00  0.00    +0.051 A 
ATOM      4  C   LIG    1       27.573 -20.250   6.746  0.00  0.00    +0.117 A 
ATOM      5  C   LIG    1       27.219 -20.416   8.079  0.00  0.00    +0.045 A 
ATOM      6  C   LIG    1       25.895 -20.706   8.404  0.00  0.00    +0.004 A 
ATOM      7  C   LIG    1       24.935 -20.828   7.395  0.00  0.00    +0.006 A 
BRANCH   4   8
ATOM      8  O   LIG    1       28.857 -19.969   6.381  0.00  0.00    -0.507 OA
ATOM      9  H   LIG    1       29.454 -20.538   6.895  0.00  0.00    +0.292 HD
ENDBRANCH   4   8
ENDBRANCH   1   2
BRANCH   1  11
ATOM     10  C   LIG    1       22.378 -19.031   4.750  0.00  0.00    +0.027 C 
ATOM     11  C   LIG    1       22.815 -20.361   5.356  0.00  0.00    +0.081 C 
BRANCH  11  12
ATOM     12  N   LIG    1       21.876 -21.437   4.954  0.00  0.00    -0.325 NA
ATOM     13  H   LIG    1       20.922 -21.135   5.159  0.00  0.00    +0.118 HD
ATOM     14  H   LIG    1       21.909 -21.549   3.939  0.00  0.00    +0.118 HD
ENDBRANCH  11  12
ENDBRANCH   1  11
BRANCH   1  15
ATOM     15  O   LIG    1       24.231 -22.133   4.499  0.00  0.00    -0.386 OA
ATOM     16  H   LIG    1       24.460 -22.647   5.299  0.00  0.00    +0.210 HD
ENDBRANCH   1  15
TORSDOF 5
ENDMDL
MODEL 8
REMARK VINA RESULT:      -6.4      3.148      4.846
REMARK  Name = *****
REMARK                            x       y       z     vdW  Elec       q    Type
REMARK                         _______ _______ _______ _____ _____    ______ ____
ROOT
ATOM      1  C   LIG    1       25.904 -20.730   7.907  0.00  0.00    +0.161 C 
ENDROOT
BRANCH   1   2
ATOM      2  C   LIG    1       25.125 -21.945   7.459  0.00  0.00    -0.014 A 
ATOM      3  C   LIG    1       25.794 -23.152   7.204  0.00  0.00    +0.051 A 
ATOM      4  C   LIG    1       25.081 -24.277   6.798  0.00  0.00    +0.117 A 
ATOM      5  C   LIG    1       23.702 -24.228   6.637  0.00  0.00    +0.045 A 
ATOM      6  C   LIG    1       23.026 -23.034   6.882  0.00  0.00    +0.004 A 
ATOM      7  C   LIG    1       23.734 -21.898   7.287  0.00  0.00    +0.006 A 
BRANCH   4   8
ATOM      8  O   LIG    1       25.785 -25.422   6.566  0.00  0.00    -0.507 OA
ATOM      9  H   LIG    1       26.371 -25.580   7.325  0.00  0.00    +0.292 HD
ENDBRANCH   4   8
ENDBRANCH   1   2
BRANCH   1  11
ATOM     10  C   LIG    1       27.550 -20.066   6.047  0.00  0.00    +0.027 C 
ATOM     11  C   LIG    1       27.385 -20.695   7.428  0.00  0.00    +0.081 C 
BRANCH  11  12
ATOM     12  N   LIG    1       28.199 -19.954   8.424  0.00  0.00    -0.325 NA
ATOM     13  H   LIG    1       27.608 -19.723   9.225  0.00  0.00    +0.118 HD
ATOM     14  H   LIG    1       28.922 -20.574   8.794  0.00  0.00    +0.118 HD
ENDBRANCH  11  12
ENDBRANCH   1  11
BRANCH   1  15
ATOM     15  O   LIG    1       25.897 -20.693   9.341  0.00  0.00    -0.386 OA
ATOM     16  H   LIG    1       26.059 -21.622   9.601  0.00  0.00    +0.210 HD
ENDBRANCH   1  15
TORSDOF 5
ENDMDL
MODEL 9
REMARK VINA RESULT:      -6.3      2.473      4.189
REMARK  Name = *****
REMARK                            x       y       z     vdW  Elec       q    Type
REMARK                         _______ _______ _______ _____ _____    ______ ____
ROOT
ATOM      1  C   LIG    1       24.172 -21.886   6.820  0.00  0.00    +0.161 C 
ENDROOT
BRANCH   1   2
ATOM      2  C   LIG    1       24.106 -20.858   5.713  0.00  0.00    -0.014 A 
ATOM      3  C   LIG    1       22.914 -20.156   5.479  0.00  0.00    +0.051 A 
ATOM      4  C   LIG    1       22.849 -19.202   4.466  0.00  0.00    +0.117 A 
ATOM      5  C   LIG    1       23.955 -18.929   3.671  0.00  0.00    +0.045 A 
ATOM      6  C   LIG    1       25.144 -19.623   3.891  0.00  0.00    +0.004 A 
ATOM      7  C   LIG    1       25.218 -20.584   4.903  0.00  0.00    +0.006 A 
BRANCH   4   8
ATOM      8  O   LIG    1       21.664 -18.551   4.286  0.00  0.00    -0.507 OA
ATOM      9  H   LIG    1       21.767 -17.926   3.549  0.00  0.00    +0.292 HD
ENDBRANCH   4   8
ENDBRANCH   1   2
BRANCH   1  11
ATOM     10  C   LIG    1       25.297 -24.194   6.930  0.00  0.00    +0.027 C 
ATOM     11  C   LIG    1       24.164 -23.365   6.334  0.00  0.00    +0.081 C 
BRANCH  11  12
ATOM     12  N   LIG    1       22.854 -23.977   6.669  0.00  0.00    -0.325 NA
ATOM     13  H   LIG    1       22.250 -23.934   5.846  0.00  0.00    +0.118 HD
ATOM     14  H   LIG    1       22.987 -24.973   6.853  0.00  0.00    +0.118 HD
ENDBRANCH  11  12
ENDBRANCH   1  11
BRANCH   1  15
ATOM     15  O   LIG    1       23.043 -21.692   7.683  0.00  0.00    -0.386 OA
ATOM     16  H   LIG    1       22.274 -21.906   7.117  0.00  0.00    +0.210 HD
ENDBRANCH   1  15
TORSDOF 5
ENDMDL
