MODEL 1
REMARK VINA RESULT:      -7.9      0.000      0.000
REMARK  Name = *****
REMARK                            x       y       z     vdW  Elec       q    Type
REMARK                         _______ _______ _______ _____ _____    ______ ____
ROOT
ATOM      1  C   UNK A  1       25.743 -21.194   8.247  0.00  0.00    +0.216 C 
ATOM      2  N   UNK A  1       26.564 -21.203   7.130  0.00  0.00    -0.302 N 
ATOM      3  H   UNK A  1       26.289 -21.728   6.301  0.00  0.00    +0.149 HD
ATOM      4  O   UNK A  1       26.058 -20.651   9.292  0.00  0.00    -0.276 OA
ENDROOT
BRANCH   1   5
ATOM      5  C   UNK A  1       24.404 -21.904   8.092  0.00  0.00    +0.129 C 
BRANCH   5   6
ATOM      6  C   UNK A  1       24.085 -22.268   6.620  0.00  0.00    +0.190 C 
BRANCH   6   9
ATOM      7  C   UNK A  0       22.355 -19.434   4.712  0.00  0.00    +0.109 C 
ATOM      8  C   UNK A  0       23.471 -20.260   5.296  0.00  0.00    +0.211 C 
ATOM      9  N   UNK A  1       23.062 -21.389   5.992  0.00  0.00    -0.302 N 
ATOM     10  H   UNK A  1       22.140 -21.356   6.415  0.00  0.00    +0.149 HD
ATOM     11  O   UNK A  0       24.647 -20.025   5.027  0.00  0.00    -0.276 OA
ENDBRANCH   6   9
BRANCH   6  12
ATOM     12  C   UNK A  1       23.501 -23.698   6.609  0.00  0.00    +0.326 C 
ATOM     13  O   UNK A  1       24.160 -24.724   6.677  0.00  0.00    -0.249 OA
BRANCH  12  14
ATOM     14  O   UNK A  1       22.139 -23.712   6.672  0.00  0.00    -0.479 OA
ATOM     15  H   UNK A  1       21.830 -22.840   6.994  0.00  0.00    +0.295 HD
ENDBRANCH  12  14
ENDBRANCH   6  12
ENDBRANCH   5   6
ENDBRANCH   1   5
BRANCH   2  16
ATOM     16  C   UNK A  1       27.858 -20.498   7.094  0.00  0.00    +0.182 C 
BRANCH  16  17
ATOM     17  C   UNK A  1       28.182 -19.714   5.807  0.00  0.00    +0.325 C 
ATOM     18  O   UNK A  1       29.075 -18.894   5.687  0.00  0.00    -0.249 OA
BRANCH  17  19
ATOM     19  O   UNK A  1       27.419 -20.038   4.743  0.00  0.00    -0.479 OA
ATOM     20  H   UNK A  1       28.010 -20.590   4.186  0.00  0.00    +0.295 HD
ENDBRANCH  17  19
ENDBRANCH  16  17
BRANCH  16  21
ATOM     21  C   UNK A  1       29.050 -21.388   7.525  0.00  0.00    +0.045 C 
BRANCH  21  22
ATOM     22  C   UNK A  1       30.248 -20.789   8.279  0.00  0.00    +0.123 C 
BRANCH  22  23
ATOM     23  C   UNK A  1       31.078 -21.734   9.116  0.00  0.00    +0.305 C 
ATOM     24  O   UNK A  1       30.797 -22.120  10.228  0.00  0.00    -0.251 OA
BRANCH  23  25
ATOM     25  O   UNK A  1       32.198 -22.143   8.459  0.00  0.00    -0.481 OA
ATOM     26  H   UNK A  1       32.717 -21.425   8.055  0.00  0.00    +0.295 HD
ENDBRANCH  23  25
ENDBRANCH  22  23
ENDBRANCH  21  22
ENDBRANCH  16  21
ENDBRANCH   2  16
TORSDOF 12
ENDMDL
MODEL 2
REMARK VINA RESULT:      -7.8      2.428      4.592
REMARK  Name = *****
REMARK                            x       y       z     vdW  Elec       q    Type
REMARK                         _______ _______ _______ _____ _____    ______ ____
ROOT
ATOM      1  C   UNK A  1       28.898 -19.944   6.688  0.00  0.00    +0.216 C 
ATOM      2  N   UNK A  1       29.281 -20.618   7.837  0.00  0.00    -0.302 N 
ATOM      3  H   UNK A  1       28.597 -21.167   8.357  0.00  0.00    +0.149 HD
ATOM      4  O   UNK A  1       29.652 -19.211   6.072  0.00  0.00    -0.276 OA
ENDROOT
BRANCH   1   5
ATOM      5  C   UNK A  1       27.465 -20.178   6.228  0.00  0.00    +0.129 C 
BRANCH   5   6
ATOM      6  C   UNK A  1       26.770 -21.332   6.994  0.00  0.00    +0.190 C 
BRANCH   6   9
ATOM      7  C   UNK A  0       24.881 -24.337   5.555  0.00  0.00    +0.109 C 
ATOM      8  C   UNK A  0       25.723 -23.531   6.508  0.00  0.00    +0.211 C 
ATOM      9  N   UNK A  1       25.940 -22.213   6.128  0.00  0.00    -0.302 N 
ATOM     10  H   UNK A  1       25.916 -22.015   5.133  0.00  0.00    +0.149 HD
ATOM     11  O   UNK A  0       26.045 -23.974   7.608  0.00  0.00    -0.276 OA
ENDBRANCH   6   9
BRANCH   6  12
ATOM     12  C   UNK A  1       25.808 -20.698   8.022  0.00  0.00    +0.326 C 
ATOM     13  O   UNK A  1       24.601 -20.584   7.874  0.00  0.00    -0.249 OA
BRANCH  12  14
ATOM     14  O   UNK A  1       26.417 -20.408   9.207  0.00  0.00    -0.479 OA
ATOM     15  H   UNK A  1       25.816 -19.847   9.740  0.00  0.00    +0.295 HD
ENDBRANCH  12  14
ENDBRANCH   6  12
ENDBRANCH   5   6
ENDBRANCH   1   5
BRANCH   2  16
ATOM     16  C   UNK A  1       30.654 -20.557   8.370  0.00  0.00    +0.182 C 
BRANCH  16  17
ATOM     17  C   UNK A  1       31.155 -21.798   9.134  0.00  0.00    +0.325 C 
ATOM     18  O   UNK A  1       30.699 -22.210  10.186  0.00  0.00    -0.249 OA
BRANCH  17  19
ATOM     19  O   UNK A  1       32.144 -22.478   8.518  0.00  0.00    -0.479 OA
ATOM     20  H   UNK A  1       32.127 -22.140   7.596  0.00  0.00    +0.295 HD
ENDBRANCH  17  19
ENDBRANCH  16  17
BRANCH  16  21
ATOM     21  C   UNK A  1       30.945 -19.255   9.158  0.00  0.00    +0.045 C 
BRANCH  21  22
ATOM     22  C   UNK A  1       31.724 -18.099   8.510  0.00  0.00    +0.123 C 
BRANCH  22  23
ATOM     23  C   UNK A  1       32.403 -17.121   9.439  0.00  0.00    +0.305 C 
ATOM     24  O   UNK A  1       32.681 -17.330  10.599  0.00  0.00    -0.251 OA
BRANCH  23  25
ATOM     25  O   UNK A  1       32.705 -15.951   8.812  0.00  0.00    -0.481 OA
ATOM     26  H   UNK A  1       32.646 -15.161   9.376  0.00  0.00    +0.295 HD
ENDBRANCH  23  25
ENDBRANCH  22  23
ENDBRANCH  21  22
ENDBRANCH  16  21
ENDBRANCH   2  16
TORSDOF 12
ENDMDL
MODEL 3
REMARK VINA RESULT:      -7.7      2.240      3.553
REMARK  Name = *****
REMARK                            x       y       z     vdW  Elec       q    Type
REMARK                         _______ _______ _______ _____ _____    ______ ____
ROOT
ATOM      1  C   UNK A  1       28.092 -20.515   6.990  0.00  0.00    +0.216 C 
ATOM      2  N   UNK A  1       28.926 -20.605   8.093  0.00  0.00    -0.302 N 
ATOM      3  H   UNK A  1       28.536 -20.540   9.033  0.00  0.00    +0.149 HD
ATOM      4  O   UNK A  1       28.511 -20.505   5.846  0.00  0.00    -0.276 OA
ENDROOT
BRANCH   1   5
ATOM      5  C   UNK A  1       26.601 -20.434   7.290  0.00  0.00    +0.129 C 
BRANCH   5   6
ATOM      6  C   UNK A  1       25.730 -21.064   6.173  0.00  0.00    +0.190 C 
BRANCH   6   9
ATOM      7  C   UNK A  0       22.366 -19.749   4.901  0.00  0.00    +0.109 C 
ATOM      8  C   UNK A  0       23.754 -20.330   4.860  0.00  0.00    +0.211 C 
ATOM      9  N   UNK A  1       24.351 -20.507   6.101  0.00  0.00    -0.302 N 
ATOM     10  H   UNK A  1       24.049 -19.889   6.846  0.00  0.00    +0.149 HD
ATOM     11  O   UNK A  0       24.237 -20.757   3.814  0.00  0.00    -0.276 OA
ENDBRANCH   6   9
BRANCH   6  12
ATOM     12  C   UNK A  1       25.579 -22.568   6.490  0.00  0.00    +0.326 C 
ATOM     13  O   UNK A  1       25.599 -23.053   7.612  0.00  0.00    -0.249 OA
BRANCH  12  14
ATOM     14  O   UNK A  1       25.257 -23.310   5.392  0.00  0.00    -0.479 OA
ATOM     15  H   UNK A  1       24.388 -23.736   5.545  0.00  0.00    +0.295 HD
ENDBRANCH  12  14
ENDBRANCH   6  12
ENDBRANCH   5   6
ENDBRANCH   1   5
BRANCH   2  16
ATOM     16  C   UNK A  1       30.386 -20.764   7.970  0.00  0.00    +0.182 C 
BRANCH  16  17
ATOM     17  C   UNK A  1       31.105 -21.473   9.135  0.00  0.00    +0.325 C 
ATOM     18  O   UNK A  1       30.656 -22.406   9.776  0.00  0.00    -0.249 OA
BRANCH  17  19
ATOM     19  O   UNK A  1       32.350 -21.020   9.388  0.00  0.00    -0.479 OA
ATOM     20  H   UNK A  1       32.321 -20.760  10.334  0.00  0.00    +0.295 HD
ENDBRANCH  17  19
ENDBRANCH  16  17
BRANCH  16  21
ATOM     21  C   UNK A  1       31.112 -19.454   7.575  0.00  0.00    +0.045 C 
BRANCH  21  22
ATOM     22  C   UNK A  1       30.816 -18.137   8.310  0.00  0.00    +0.123 C 
BRANCH  22  23
ATOM     23  C   UNK A  1       31.913 -17.574   9.182  0.00  0.00    +0.305 C 
ATOM     24  O   UNK A  1       32.281 -18.040  10.238  0.00  0.00    -0.251 OA
BRANCH  23  25
ATOM     25  O   UNK A  1       32.484 -16.469   8.630  0.00  0.00    -0.481 OA
ATOM     26  H   UNK A  1       31.858 -15.760   8.399  0.00  0.00    +0.295 HD
ENDBRANCH  23  25
ENDBRANCH  22  23
ENDBRANCH  21  22
ENDBRANCH  16  21
ENDBRANCH   2  16
TORSDOF 12
ENDMDL
MODEL 4
REMARK VINA RESULT:      -7.7      2.258      4.332
REMARK  Name = *****
REMARK                            x       y       z     vdW  Elec       q    Type
REMARK                         _______ _______ _______ _____ _____    ______ ____
ROOT
ATOM      1  C   UNK A  1       28.596 -20.308   6.783  0.00  0.00    +0.216 C 
ATOM      2  N   UNK A  1       29.196 -20.503   8.017  0.00  0.00    -0.302 N 
ATOM      3  H   UNK A  1       28.621 -20.601   8.853  0.00  0.00    +0.149 HD
ATOM      4  O   UNK A  1       29.234 -20.106   5.764  0.00  0.00    -0.276 OA
ENDROOT
BRANCH   1   5
ATOM      5  C   UNK A  1       27.074 -20.368   6.768  0.00  0.00    +0.129 C 
BRANCH   5   6
ATOM      6  C   UNK A  1       26.524 -21.736   7.245  0.00  0.00    +0.190 C 
BRANCH   6   9
ATOM      7  C   UNK A  0       24.891 -24.517   5.180  0.00  0.00    +0.109 C 
ATOM      8  C   UNK A  0       25.650 -23.861   6.302  0.00  0.00    +0.211 C 
ATOM      9  N   UNK A  1       25.779 -22.482   6.194  0.00  0.00    -0.302 N 
ATOM     10  H   UNK A  1       25.762 -22.094   5.257  0.00  0.00    +0.149 HD
ATOM     11  O   UNK A  0       25.979 -24.490   7.305  0.00  0.00    -0.276 OA
ENDBRANCH   6   9
BRANCH   6  12
ATOM     12  C   UNK A  1       25.517 -21.464   8.384  0.00  0.00    +0.326 C 
ATOM     13  O   UNK A  1       25.792 -20.932   9.449  0.00  0.00    -0.249 OA
BRANCH  12  14
ATOM     14  O   UNK A  1       24.229 -21.736   8.028  0.00  0.00    -0.479 OA
ATOM     15  H   UNK A  1       24.214 -22.572   7.518  0.00  0.00    +0.295 HD
ENDBRANCH  12  14
ENDBRANCH   6  12
ENDBRANCH   5   6
ENDBRANCH   1   5
BRANCH   2  16
ATOM     16  C   UNK A  1       30.660 -20.549   8.186  0.00  0.00    +0.182 C 
BRANCH  16  17
ATOM     17  C   UNK A  1       31.212 -21.628   9.139  0.00  0.00    +0.325 C 
ATOM     18  O   UNK A  1       30.826 -21.826  10.277  0.00  0.00    -0.249 OA
BRANCH  17  19
ATOM     19  O   UNK A  1       32.160 -22.423   8.601  0.00  0.00    -0.479 OA
ATOM     20  H   UNK A  1       32.073 -22.276   7.634  0.00  0.00    +0.295 HD
ENDBRANCH  17  19
ENDBRANCH  16  17
BRANCH  16  21
ATOM     21  C   UNK A  1       31.284 -19.163   8.483  0.00  0.00    +0.045 C 
BRANCH  21  22
ATOM     22  C   UNK A  1       30.403 -17.978   8.910  0.00  0.00    +0.123 C 
BRANCH  22  23
ATOM     23  C   UNK A  1       30.378 -17.633  10.380  0.00  0.00    +0.305 C 
ATOM     24  O   UNK A  1       30.176 -16.532  10.841  0.00  0.00    -0.251 OA
BRANCH  23  25
ATOM     25  O   UNK A  1       30.585 -18.728  11.161  0.00  0.00    -0.481 OA
ATOM     26  H   UNK A  1       30.736 -19.555  10.671  0.00  0.00    +0.295 HD
ENDBRANCH  23  25
ENDBRANCH  22  23
ENDBRANCH  21  22
ENDBRANCH  16  21
ENDBRANCH   2  16
TORSDOF 12
ENDMDL
MODEL 5
REMARK VINA RESULT:      -7.7      2.756      3.923
REMARK  Name = *****
REMARK                            x       y       z     vdW  Elec       q    Type
REMARK                         _______ _______ _______ _____ _____    ______ ____
ROOT
ATOM      1  C   UNK A  1       28.433 -20.730   7.091  0.00  0.00    +0.216 C 
ATOM      2  N   UNK A  1       28.919 -20.158   8.256  0.00  0.00    -0.302 N 
ATOM      3  H   UNK A  1       28.546 -20.448   9.159  0.00  0.00    +0.149 HD
ATOM      4  O   UNK A  1       28.783 -20.367   5.982  0.00  0.00    -0.276 OA
ENDROOT
BRANCH   1   5
ATOM      5  C   UNK A  1       27.427 -21.860   7.276  0.00  0.00    +0.129 C 
BRANCH   5   6
ATOM      6  C   UNK A  1       25.979 -21.436   6.924  0.00  0.00    +0.190 C 
BRANCH   6   9
ATOM      7  C   UNK A  0       25.229 -19.427   3.751  0.00  0.00    +0.109 C 
ATOM      8  C   UNK A  0       25.236 -20.586   4.712  0.00  0.00    +0.211 C 
ATOM      9  N   UNK A  1       25.900 -20.350   5.908  0.00  0.00    -0.302 N 
ATOM     10  H   UNK A  1       26.646 -19.663   5.889  0.00  0.00    +0.149 HD
ATOM     11  O   UNK A  0       24.564 -21.593   4.503  0.00  0.00    -0.276 OA
ENDBRANCH   6   9
BRANCH   6  12
ATOM     12  C   UNK A  1       25.329 -20.879   8.210  0.00  0.00    +0.326 C 
ATOM     13  O   UNK A  1       25.935 -20.582   9.228  0.00  0.00    -0.249 OA
BRANCH  12  14
ATOM     14  O   UNK A  1       24.005 -20.594   8.053  0.00  0.00    -0.479 OA
ATOM     15  H   UNK A  1       23.500 -21.047   8.760  0.00  0.00    +0.295 HD
ENDBRANCH  12  14
ENDBRANCH   6  12
ENDBRANCH   5   6
ENDBRANCH   1   5
BRANCH   2  16
ATOM     16  C   UNK A  1       29.951 -19.107   8.249  0.00  0.00    +0.182 C 
BRANCH  16  17
ATOM     17  C   UNK A  1       31.400 -19.562   7.980  0.00  0.00    +0.325 C 
ATOM     18  O   UNK A  1       31.993 -19.436   6.924  0.00  0.00    -0.249 OA
BRANCH  17  19
ATOM     19  O   UNK A  1       32.033 -20.087   9.049  0.00  0.00    -0.479 OA
ATOM     20  H   UNK A  1       31.460 -19.843   9.809  0.00  0.00    +0.295 HD
ENDBRANCH  17  19
ENDBRANCH  16  17
BRANCH  16  21
ATOM     21  C   UNK A  1       29.876 -18.169   9.480  0.00  0.00    +0.045 C 
BRANCH  21  22
ATOM     22  C   UNK A  1       30.601 -16.814   9.483  0.00  0.00    +0.123 C 
BRANCH  22  23
ATOM     23  C   UNK A  1       32.095 -16.833   9.706  0.00  0.00    +0.305 C 
ATOM     24  O   UNK A  1       32.673 -17.496  10.537  0.00  0.00    -0.251 OA
BRANCH  23  25
ATOM     25  O   UNK A  1       32.749 -16.021   8.831  0.00  0.00    -0.481 OA
ATOM     26  H   UNK A  1       32.211 -15.294   8.470  0.00  0.00    +0.295 HD
ENDBRANCH  23  25
ENDBRANCH  22  23
ENDBRANCH  21  22
ENDBRANCH  16  21
ENDBRANCH   2  16
TORSDOF 12
ENDMDL
MODEL 6
REMARK VINA RESULT:      -7.7      2.317      7.009
REMARK  Name = *****
REMARK                            x       y       z     vdW  Elec       q    Type
REMARK                         _______ _______ _______ _____ _____    ______ ____
ROOT
ATOM      1  C   UNK A  1       28.523 -20.342   6.583  0.00  0.00    +0.216 C 
ATOM      2  N   UNK A  1       27.918 -21.292   7.390  0.00  0.00    -0.302 N 
ATOM      3  H   UNK A  1       28.474 -21.816   8.064  0.00  0.00    +0.149 HD
ATOM      4  O   UNK A  1       27.924 -19.743   5.707  0.00  0.00    -0.276 OA
ENDROOT
BRANCH   1   5
ATOM      5  C   UNK A  1       29.998 -20.077   6.860  0.00  0.00    +0.129 C 
BRANCH   5   6
ATOM      6  C   UNK A  1       30.274 -19.716   8.342  0.00  0.00    +0.190 C 
BRANCH   6   9
ATOM      7  C   UNK A  0       31.735 -16.427   9.652  0.00  0.00    +0.109 C 
ATOM      8  C   UNK A  0       30.842 -17.637   9.576  0.00  0.00    +0.211 C 
ATOM      9  N   UNK A  1       31.107 -18.495   8.516  0.00  0.00    -0.302 N 
ATOM     10  H   UNK A  1       31.525 -18.083   7.689  0.00  0.00    +0.149 HD
ATOM     11  O   UNK A  0       30.057 -17.910  10.482  0.00  0.00    -0.276 OA
ENDBRANCH   6   9
BRANCH   6  12
ATOM     12  C   UNK A  1       31.070 -20.882   8.967  0.00  0.00    +0.326 C 
ATOM     13  O   UNK A  1       32.238 -20.821   9.322  0.00  0.00    -0.249 OA
BRANCH  12  14
ATOM     14  O   UNK A  1       30.293 -21.968   9.238  0.00  0.00    -0.479 OA
ATOM     15  H   UNK A  1       30.067 -21.963  10.192  0.00  0.00    +0.295 HD
ENDBRANCH  12  14
ENDBRANCH   6  12
ENDBRANCH   5   6
ENDBRANCH   1   5
BRANCH   2  16
ATOM     16  C   UNK A  1       26.481 -21.607   7.298  0.00  0.00    +0.182 C 
BRANCH  16  17
ATOM     17  C   UNK A  1       25.556 -20.923   8.325  0.00  0.00    +0.325 C 
ATOM     18  O   UNK A  1       25.906 -20.485   9.406  0.00  0.00    -0.249 OA
BRANCH  17  19
ATOM     19  O   UNK A  1       24.278 -20.775   7.921  0.00  0.00    -0.479 OA
ATOM     20  H   UNK A  1       24.012 -21.677   7.636  0.00  0.00    +0.295 HD
ENDBRANCH  17  19
ENDBRANCH  16  17
BRANCH  16  21
ATOM     21  C   UNK A  1       26.195 -23.127   7.208  0.00  0.00    +0.045 C 
BRANCH  21  22
ATOM     22  C   UNK A  1       25.249 -23.688   6.133  0.00  0.00    +0.123 C 
BRANCH  22  23
ATOM     23  C   UNK A  1       23.851 -24.055   6.570  0.00  0.00    +0.305 C 
ATOM     24  O   UNK A  1       23.013 -23.279   6.973  0.00  0.00    -0.251 OA
BRANCH  23  25
ATOM     25  O   UNK A  1       23.612 -25.388   6.436  0.00  0.00    -0.481 OA
ATOM     26  H   UNK A  1       24.353 -25.963   6.694  0.00  0.00    +0.295 HD
ENDBRANCH  23  25
ENDBRANCH  22  23
ENDBRANCH  21  22
ENDBRANCH  16  21
ENDBRANCH   2  16
TORSDOF 12
ENDMDL
MODEL 7
REMARK VINA RESULT:      -7.5      2.702      4.392
REMARK  Name = *****
REMARK                            x       y       z     vdW  Elec       q    Type
REMARK                         _______ _______ _______ _____ _____    ______ ____
ROOT
ATOM      1  C   UNK A  1       28.408 -19.911   6.987  0.00  0.00    +0.216 C 
ATOM      2  N   UNK A  1       29.713 -19.458   6.879  0.00  0.00    -0.302 N 
ATOM      3  H   UNK A  1       30.100 -19.235   5.962  0.00  0.00    +0.149 HD
ATOM      4  O   UNK A  1       27.920 -20.267   8.046  0.00  0.00    -0.276 OA
ENDROOT
BRANCH   1   5
ATOM      5  C   UNK A  1       27.603 -19.933   5.694  0.00  0.00    +0.129 C 
BRANCH   5   6
ATOM      6  C   UNK A  1       26.193 -20.549   5.877  0.00  0.00    +0.190 C 
BRANCH   6   9
ATOM      7  C   UNK A  0       25.614 -24.121   7.130  0.00  0.00    +0.109 C 
ATOM      8  C   UNK A  0       25.534 -22.619   7.081  0.00  0.00    +0.211 C 
ATOM      9  N   UNK A  1       26.199 -22.032   6.012  0.00  0.00    -0.302 N 
ATOM     10  H   UNK A  1       26.989 -22.541   5.630  0.00  0.00    +0.149 HD
ATOM     11  O   UNK A  0       24.799 -21.993   7.841  0.00  0.00    -0.276 OA
ENDBRANCH   6   9
BRANCH   6  12
ATOM     12  C   UNK A  1       25.375 -20.230   4.606  0.00  0.00    +0.326 C 
ATOM     13  O   UNK A  1       24.306 -20.744   4.314  0.00  0.00    -0.249 OA
BRANCH  12  14
ATOM     14  O   UNK A  1       25.887 -19.184   3.897  0.00  0.00    -0.479 OA
ATOM     15  H   UNK A  1       26.011 -19.466   2.966  0.00  0.00    +0.295 HD
ENDBRANCH  12  14
ENDBRANCH   6  12
ENDBRANCH   5   6
ENDBRANCH   1   5
BRANCH   2  16
ATOM     16  C   UNK A  1       30.597 -19.307   8.048  0.00  0.00    +0.182 C 
BRANCH  16  17
ATOM     17  C   UNK A  1       31.189 -20.602   8.640  0.00  0.00    +0.325 C 
ATOM     18  O   UNK A  1       32.178 -20.666   9.348  0.00  0.00    -0.249 OA
BRANCH  17  19
ATOM     19  O   UNK A  1       30.486 -21.720   8.364  0.00  0.00    -0.479 OA
ATOM     20  H   UNK A  1       29.715 -21.396   7.850  0.00  0.00    +0.295 HD
ENDBRANCH  17  19
ENDBRANCH  16  17
BRANCH  16  21
ATOM     21  C   UNK A  1       29.996 -18.407   9.156  0.00  0.00    +0.045 C 
BRANCH  21  22
ATOM     22  C   UNK A  1       30.605 -17.031   9.470  0.00  0.00    +0.123 C 
BRANCH  22  23
ATOM     23  C   UNK A  1       32.101 -16.970   9.670  0.00  0.00    +0.305 C 
ATOM     24  O   UNK A  1       32.722 -17.567  10.520  0.00  0.00    -0.251 OA
BRANCH  23  25
ATOM     25  O   UNK A  1       32.703 -16.169   8.749  0.00  0.00    -0.481 OA
ATOM     26  H   UNK A  1       33.675 -16.144   8.804  0.00  0.00    +0.295 HD
ENDBRANCH  23  25
ENDBRANCH  22  23
ENDBRANCH  21  22
ENDBRANCH  16  21
ENDBRANCH   2  16
TORSDOF 12
ENDMDL
MODEL 8
REMARK VINA RESULT:      -7.5      2.312      6.935
REMARK  Name = *****
REMARK                            x       y       z     vdW  Elec       q    Type
REMARK                         _______ _______ _______ _____ _____    ______ ____
ROOT
ATOM      1  C   UNK A  1       27.416 -20.396   7.306  0.00  0.00    +0.216 C 
ATOM      2  N   UNK A  1       26.815 -21.055   6.245  0.00  0.00    -0.302 N 
ATOM      3  H   UNK A  1       27.199 -20.960   5.305  0.00  0.00    +0.149 HD
ATOM      4  O   UNK A  1       26.956 -20.408   8.434  0.00  0.00    -0.276 OA
ENDROOT
BRANCH   1   5
ATOM      5  C   UNK A  1       28.704 -19.651   6.981  0.00  0.00    +0.129 C 
BRANCH   5   6
ATOM      6  C   UNK A  1       29.672 -19.573   8.189  0.00  0.00    +0.190 C 
BRANCH   6   9
ATOM      7  C   UNK A  0       30.579 -16.563  10.377  0.00  0.00    +0.109 C 
ATOM      8  C   UNK A  0       30.398 -18.001   9.970  0.00  0.00    +0.211 C 
ATOM      9  N   UNK A  1       29.900 -18.189   8.687  0.00  0.00    -0.302 N 
ATOM     10  H   UNK A  1       29.322 -17.446   8.308  0.00  0.00    +0.149 HD
ATOM     11  O   UNK A  0       30.817 -18.921  10.669  0.00  0.00    -0.276 OA
ENDBRANCH   6   9
BRANCH   6  12
ATOM     12  C   UNK A  1       31.046 -20.102   7.723  0.00  0.00    +0.326 C 
ATOM     13  O   UNK A  1       31.767 -19.552   6.904  0.00  0.00    -0.249 OA
BRANCH  12  14
ATOM     14  O   UNK A  1       31.465 -21.186   8.436  0.00  0.00    -0.479 OA
ATOM     15  H   UNK A  1       31.342 -21.989   7.888  0.00  0.00    +0.295 HD
ENDBRANCH  12  14
ENDBRANCH   6  12
ENDBRANCH   5   6
ENDBRANCH   1   5
BRANCH   2  16
ATOM     16  C   UNK A  1       25.606 -21.881   6.410  0.00  0.00    +0.182 C 
BRANCH  16  17
ATOM     17  C   UNK A  1       24.328 -21.151   6.868  0.00  0.00    +0.325 C 
ATOM     18  O   UNK A  1       23.675 -20.378   6.189  0.00  0.00    -0.249 OA
BRANCH  17  19
ATOM     19  O   UNK A  1       23.912 -21.471   8.111  0.00  0.00    -0.479 OA
ATOM     20  H   UNK A  1       24.625 -21.133   8.695  0.00  0.00    +0.295 HD
ENDBRANCH  17  19
ENDBRANCH  16  17
BRANCH  16  21
ATOM     21  C   UNK A  1       25.852 -23.163   7.243  0.00  0.00    +0.045 C 
BRANCH  21  22
ATOM     22  C   UNK A  1       25.536 -24.551   6.665  0.00  0.00    +0.123 C 
BRANCH  22  23
ATOM     23  C   UNK A  1       24.097 -24.835   6.302  0.00  0.00    +0.305 C 
ATOM     24  O   UNK A  1       23.127 -24.357   6.847  0.00  0.00    -0.251 OA
BRANCH  23  25
ATOM     25  O   UNK A  1       23.999 -25.691   5.249  0.00  0.00    -0.481 OA
ATOM     26  H   UNK A  1       24.377 -26.574   5.405  0.00  0.00    +0.295 HD
ENDBRANCH  23  25
ENDBRANCH  22  23
ENDBRANCH  21  22
ENDBRANCH  16  21
ENDBRANCH   2  16
TORSDOF 12
ENDMDL
MODEL 9
REMARK VINA RESULT:      -7.4      1.740      3.005
REMARK  Name = *****
REMARK                            x       y       z     vdW  Elec       q    Type
REMARK                         _______ _______ _______ _____ _____    ______ ____
ROOT
ATOM      1  C   UNK A  1       26.549 -20.256   6.107  0.00  0.00    +0.216 C 
ATOM      2  N   UNK A  1       27.872 -20.043   5.751  0.00  0.00    -0.302 N 
ATOM      3  H   UNK A  1       28.142 -20.052   4.768  0.00  0.00    +0.149 HD
ATOM      4  O   UNK A  1       26.183 -20.335   7.267  0.00  0.00    -0.276 OA
ENDROOT
BRANCH   1   5
ATOM      5  C   UNK A  1       25.563 -20.380   4.953  0.00  0.00    +0.129 C 
BRANCH   5   6
ATOM      6  C   UNK A  1       24.086 -20.359   5.422  0.00  0.00    +0.190 C 
BRANCH   6   9
ATOM      7  C   UNK A  0       22.564 -23.636   6.692  0.00  0.00    +0.109 C 
ATOM      8  C   UNK A  0       23.185 -22.265   6.734  0.00  0.00    +0.211 C 
ATOM      9  N   UNK A  1       23.459 -21.708   5.492  0.00  0.00    -0.302 N 
ATOM     10  H   UNK A  1       23.636 -22.354   4.730  0.00  0.00    +0.149 HD
ATOM     11  O   UNK A  0       23.281 -21.640   7.788  0.00  0.00    -0.276 OA
ENDBRANCH   6   9
BRANCH   6  12
ATOM     12  C   UNK A  1       23.276 -19.555   4.381  0.00  0.00    +0.326 C 
ATOM     13  O   UNK A  1       23.651 -19.302   3.246  0.00  0.00    -0.249 OA
BRANCH  12  14
ATOM     14  O   UNK A  1       22.009 -19.275   4.799  0.00  0.00    -0.479 OA
ATOM     15  H   UNK A  1       21.460 -20.081   4.699  0.00  0.00    +0.295 HD
ENDBRANCH  12  14
ENDBRANCH   6  12
ENDBRANCH   5   6
ENDBRANCH   1   5
BRANCH   2  16
ATOM     16  C   UNK A  1       28.934 -19.828   6.750  0.00  0.00    +0.182 C 
BRANCH  16  17
ATOM     17  C   UNK A  1       29.931 -18.688   6.463  0.00  0.00    +0.325 C 
ATOM     18  O   UNK A  1       30.855 -18.361   7.186  0.00  0.00    -0.249 OA
BRANCH  17  19
ATOM     19  O   UNK A  1       29.754 -18.070   5.277  0.00  0.00    -0.479 OA
ATOM     20  H   UNK A  1       30.522 -17.462   5.208  0.00  0.00    +0.295 HD
ENDBRANCH  17  19
ENDBRANCH  16  17
BRANCH  16  21
ATOM     21  C   UNK A  1       29.670 -21.132   7.149  0.00  0.00    +0.045 C 
BRANCH  21  22
ATOM     22  C   UNK A  1       29.981 -21.441   8.622  0.00  0.00    +0.123 C 
BRANCH  22  23
ATOM     23  C   UNK A  1       31.435 -21.603   8.999  0.00  0.00    +0.305 C 
ATOM     24  O   UNK A  1       32.174 -20.710   9.348  0.00  0.00    -0.251 OA
BRANCH  23  25
ATOM     25  O   UNK A  1       31.836 -22.901   8.929  0.00  0.00    -0.481 OA
ATOM     26  H   UNK A  1       31.832 -23.375   9.779  0.00  0.00    +0.295 HD
ENDBRANCH  23  25
ENDBRANCH  22  23
ENDBRANCH  21  22
ENDBRANCH  16  21
ENDBRANCH   2  16
TORSDOF 12
ENDMDL
