MODEL 1
REMARK VINA RESULT:      -8.4      0.000      0.000
REMARK  Name = *****
REMARK                            x       y       z     vdW  Elec       q    Type
REMARK                         _______ _______ _______ _____ _____    ______ ____
ROOT
ATOM      1  C   LIG    1       29.865 -20.939   8.078  0.00  0.00    +0.125 A 
ATOM      2  C   LIG    1       30.006 -20.072   6.993  0.00  0.00    +0.069 A 
ATOM      3 CL   LIG    1       31.469 -19.244   6.598  0.00  0.00    -0.082 Cl
ATOM      4  C   LIG    1       28.907 -19.839   6.147  0.00  0.00    +0.046 A 
ATOM      5  C   LIG    1       27.672 -20.475   6.344  0.00  0.00    +0.056 A 
ATOM      6  N   LIG    1       26.595 -20.125   5.533  0.00  0.00    -0.328 N 
ATOM      7  H   LIG    1       26.858 -19.818   4.600  0.00  0.00    +0.147 HD
ATOM      8  C   LIG    1       25.394 -20.925   5.553  0.00  0.00    +0.209 C 
ATOM      9  N   LIG    1       24.952 -21.107   6.917  0.00  0.00    -0.173 NA
ATOM     10  H   LIG    1       24.010 -21.487   6.988  0.00  0.00    +0.150 HD
ATOM     11  S   LIG    1       26.013 -22.071   7.780  0.00  0.00    +0.062 S 
ATOM     12  O   LIG    1       26.018 -23.372   7.147  0.00  0.00    -0.153 OA
ATOM     13  O   LIG    1       25.694 -21.909   9.179  0.00  0.00    -0.153 OA
ATOM     14  C   LIG    1       27.562 -21.313   7.454  0.00  0.00    +0.128 A 
ATOM     15  C   LIG    1       28.633 -21.557   8.321  0.00  0.00    +0.060 A 
ENDROOT
BRANCH   1  16
ATOM     16  S   LIG    1       31.196 -21.257   9.192  0.00  0.00    +0.057 S 
ATOM     17  O   LIG    1       31.961 -20.050   9.388  0.00  0.00    -0.153 OA
ATOM     18  O   LIG    1       30.695 -22.031  10.306  0.00  0.00    -0.153 OA
BRANCH  16  19
ATOM     19  N   LIG    1       32.163 -22.330   8.336  0.00  0.00    -0.203 NA
ATOM     20  H   LIG    1       33.016 -21.857   8.032  0.00  0.00    +0.144 HD
ATOM     21  H   LIG    1       32.333 -23.165   8.897  0.00  0.00    +0.144 HD
ENDBRANCH  16  19
ENDBRANCH   1  16
TORSDOF 2
ENDMDL
MODEL 2
REMARK VINA RESULT:      -8.0      1.388      1.440
REMARK  Name = *****
REMARK                            x       y       z     vdW  Elec       q    Type
REMARK                         _______ _______ _______ _____ _____    ______ ____
ROOT
ATOM      1  C   LIG    1       29.158 -20.225   7.486  0.00  0.00    +0.125 A 
ATOM      2  C   LIG    1       28.948 -19.544   6.285  0.00  0.00    +0.069 A 
ATOM      3 CL   LIG    1       30.076 -18.436   5.590  0.00  0.00    -0.082 Cl
ATOM      4  C   LIG    1       27.754 -19.751   5.571  0.00  0.00    +0.046 A 
ATOM      5  C   LIG    1       26.771 -20.648   6.016  0.00  0.00    +0.056 A 
ATOM      6  N   LIG    1       25.568 -20.733   5.318  0.00  0.00    -0.328 N 
ATOM      7  H   LIG    1       25.648 -20.527   4.326  0.00  0.00    +0.147 HD
ATOM      8  C   LIG    1       24.648 -21.807   5.606  0.00  0.00    +0.209 C 
ATOM      9  N   LIG    1       24.404 -21.871   7.029  0.00  0.00    -0.173 NA
ATOM     10  H   LIG    1       23.618 -22.469   7.276  0.00  0.00    +0.150 HD
ATOM     11  S   LIG    1       25.769 -22.366   7.862  0.00  0.00    +0.062 S 
ATOM     12  O   LIG    1       26.080 -23.705   7.413  0.00  0.00    -0.153 OA
ATOM     13  O   LIG    1       25.548 -22.064   9.258  0.00  0.00    -0.153 OA
ATOM     14  C   LIG    1       27.005 -21.291   7.233  0.00  0.00    +0.128 A 
ATOM     15  C   LIG    1       28.177 -21.097   7.972  0.00  0.00    +0.060 A 
ENDROOT
BRANCH   1  16
ATOM     16  S   LIG    1       30.622 -19.993   8.443  0.00  0.00    +0.057 S 
ATOM     17  O   LIG    1       31.775 -20.026   7.575  0.00  0.00    -0.153 OA
ATOM     18  O   LIG    1       30.401 -18.912   9.376  0.00  0.00    -0.153 OA
BRANCH  16  19
ATOM     19  N   LIG    1       30.676 -21.372   9.400  0.00  0.00    -0.203 NA
ATOM     20  H   LIG    1       29.748 -21.797   9.442  0.00  0.00    +0.144 HD
ATOM     21  H   LIG    1       31.402 -22.001   9.058  0.00  0.00    +0.144 HD
ENDBRANCH  16  19
ENDBRANCH   1  16
TORSDOF 2
ENDMDL
MODEL 3
REMARK VINA RESULT:      -7.8      1.435      1.692
REMARK  Name = *****
REMARK                            x       y       z     vdW  Elec       q    Type
REMARK                         _______ _______ _______ _____ _____    ______ ____
ROOT
ATOM      1  C   LIG    1       29.167 -20.310   7.513  0.00  0.00    +0.125 A 
ATOM      2  C   LIG    1       28.953 -19.589   6.337  0.00  0.00    +0.069 A 
ATOM      3 CL   LIG    1       30.114 -18.522   5.631  0.00  0.00    -0.082 Cl
ATOM      4  C   LIG    1       27.729 -19.719   5.657  0.00  0.00    +0.046 A 
ATOM      5  C   LIG    1       26.717 -20.577   6.113  0.00  0.00    +0.056 A 
ATOM      6  N   LIG    1       25.490 -20.584   5.453  0.00  0.00    -0.328 N 
ATOM      7  H   LIG    1       25.548 -20.357   4.464  0.00  0.00    +0.147 HD
ATOM      8  C   LIG    1       24.526 -21.618   5.746  0.00  0.00    +0.209 C 
ATOM      9  N   LIG    1       24.324 -21.706   7.174  0.00  0.00    -0.173 NA
ATOM     10  H   LIG    1       23.517 -22.270   7.433  0.00  0.00    +0.150 HD
ATOM     11  S   LIG    1       25.688 -22.288   7.950  0.00  0.00    +0.062 S 
ATOM     12  O   LIG    1       25.916 -23.630   7.460  0.00  0.00    -0.153 OA
ATOM     13  O   LIG    1       25.527 -22.011   9.359  0.00  0.00    -0.153 OA
ATOM     14  C   LIG    1       26.956 -21.261   7.306  0.00  0.00    +0.128 A 
ATOM     15  C   LIG    1       28.159 -21.144   8.011  0.00  0.00    +0.060 A 
ENDROOT
BRANCH   1  16
ATOM     16  S   LIG    1       30.671 -20.175   8.427  0.00  0.00    +0.057 S 
ATOM     17  O   LIG    1       30.728 -21.222   9.418  0.00  0.00    -0.153 OA
ATOM     18  O   LIG    1       31.756 -19.940   7.502  0.00  0.00    -0.153 OA
BRANCH  16  19
ATOM     19  N   LIG    1       30.492 -18.720   9.245  0.00  0.00    -0.203 NA
ATOM     20  H   LIG    1       29.518 -18.416   9.199  0.00  0.00    +0.144 HD
ATOM     21  H   LIG    1       30.849 -18.813  10.196  0.00  0.00    +0.144 HD
ENDBRANCH  16  19
ENDBRANCH   1  16
TORSDOF 2
ENDMDL
MODEL 4
REMARK VINA RESULT:      -7.8      2.311      5.166
REMARK  Name = *****
REMARK                            x       y       z     vdW  Elec       q    Type
REMARK                         _______ _______ _______ _____ _____    ______ ____
ROOT
ATOM      1  C   LIG    1       26.642 -20.853   7.196  0.00  0.00    +0.125 A 
ATOM      2  C   LIG    1       26.760 -20.255   5.940  0.00  0.00    +0.069 A 
ATOM      3 CL   LIG    1       25.467 -20.134   4.800  0.00  0.00    -0.082 Cl
ATOM      4  C   LIG    1       27.993 -19.705   5.548  0.00  0.00    +0.046 A 
ATOM      5  C   LIG    1       29.111 -19.714   6.396  0.00  0.00    +0.056 A 
ATOM      6  N   LIG    1       30.330 -19.245   5.911  0.00  0.00    -0.328 N 
ATOM      7  H   LIG    1       30.246 -18.525   5.199  0.00  0.00    +0.147 HD
ATOM      8  C   LIG    1       31.425 -19.020   6.825  0.00  0.00    +0.209 C 
ATOM      9  N   LIG    1       31.631 -20.197   7.637  0.00  0.00    -0.173 NA
ATOM     10  H   LIG    1       32.506 -20.178   8.157  0.00  0.00    +0.150 HD
ATOM     11  S   LIG    1       30.356 -20.441   8.694  0.00  0.00    +0.062 S 
ATOM     12  O   LIG    1       30.314 -19.301   9.582  0.00  0.00    -0.153 OA
ATOM     13  O   LIG    1       30.472 -21.791   9.196  0.00  0.00    -0.153 OA
ATOM     14  C   LIG    1       28.962 -20.343   7.633  0.00  0.00    +0.128 A 
ATOM     15  C   LIG    1       27.751 -20.909   8.047  0.00  0.00    +0.060 A 
ENDROOT
BRANCH   1  16
ATOM     16  S   LIG    1       25.130 -21.582   7.741  0.00  0.00    +0.057 S 
ATOM     17  O   LIG    1       24.091 -20.581   7.758  0.00  0.00    -0.153 OA
ATOM     18  O   LIG    1       24.957 -22.849   7.069  0.00  0.00    -0.153 OA
BRANCH  16  19
ATOM     19  N   LIG    1       25.456 -21.992   9.337  0.00  0.00    -0.203 NA
ATOM     20  H   LIG    1       24.608 -22.348   9.780  0.00  0.00    +0.144 HD
ATOM     21  H   LIG    1       26.243 -22.640   9.372  0.00  0.00    +0.144 HD
ENDBRANCH  16  19
ENDBRANCH   1  16
TORSDOF 2
ENDMDL
MODEL 5
REMARK VINA RESULT:      -7.2      2.868      5.545
REMARK  Name = *****
REMARK                            x       y       z     vdW  Elec       q    Type
REMARK                         _______ _______ _______ _____ _____    ______ ____
ROOT
ATOM      1  C   LIG    1       25.495 -20.694   6.320  0.00  0.00    +0.125 A 
ATOM      2  C   LIG    1       25.701 -20.127   5.061  0.00  0.00    +0.069 A 
ATOM      3 CL   LIG    1       24.488 -20.028   3.834  0.00  0.00    -0.082 Cl
ATOM      4  C   LIG    1       26.961 -19.592   4.739  0.00  0.00    +0.046 A 
ATOM      5  C   LIG    1       28.019 -19.585   5.660  0.00  0.00    +0.056 A 
ATOM      6  N   LIG    1       29.271 -19.133   5.248  0.00  0.00    -0.328 N 
ATOM      7  H   LIG    1       29.239 -18.429   4.515  0.00  0.00    +0.147 HD
ATOM      8  C   LIG    1       30.303 -18.891   6.227  0.00  0.00    +0.209 C 
ATOM      9  N   LIG    1       30.448 -20.048   7.080  0.00  0.00    -0.173 NA
ATOM     10  H   LIG    1       31.286 -20.021   7.656  0.00  0.00    +0.150 HD
ATOM     11  S   LIG    1       29.104 -20.262   8.054  0.00  0.00    +0.062 S 
ATOM     12  O   LIG    1       29.009 -19.100   8.910  0.00  0.00    -0.153 OA
ATOM     13  O   LIG    1       29.178 -21.600   8.594  0.00  0.00    -0.153 OA
ATOM     14  C   LIG    1       27.785 -20.184   6.899  0.00  0.00    +0.128 A 
ATOM     15  C   LIG    1       26.545 -20.734   7.245  0.00  0.00    +0.060 A 
ENDROOT
BRANCH   1  16
ATOM     16  S   LIG    1       23.946 -21.403   6.779  0.00  0.00    +0.057 S 
ATOM     17  O   LIG    1       24.045 -21.956   8.109  0.00  0.00    -0.153 OA
ATOM     18  O   LIG    1       22.889 -20.489   6.410  0.00  0.00    -0.153 OA
BRANCH  16  19
ATOM     19  N   LIG    1       23.783 -22.689   5.712  0.00  0.00    -0.203 NA
ATOM     20  H   LIG    1       22.903 -22.602   5.201  0.00  0.00    +0.144 HD
ATOM     21  H   LIG    1       24.605 -22.744   5.110  0.00  0.00    +0.144 HD
ENDBRANCH  16  19
ENDBRANCH   1  16
TORSDOF 2
ENDMDL
MODEL 6
REMARK VINA RESULT:      -7.1      3.117      3.557
REMARK  Name = *****
REMARK                            x       y       z     vdW  Elec       q    Type
REMARK                         _______ _______ _______ _____ _____    ______ ____
ROOT
ATOM      1  C   LIG    1       28.537 -20.085   6.748  0.00  0.00    +0.125 A 
ATOM      2  C   LIG    1       28.642 -21.200   7.583  0.00  0.00    +0.069 A 
ATOM      3 CL   LIG    1       29.993 -21.515   8.612  0.00  0.00    -0.082 Cl
ATOM      4  C   LIG    1       27.599 -22.143   7.612  0.00  0.00    +0.046 A 
ATOM      5  C   LIG    1       26.435 -21.984   6.845  0.00  0.00    +0.056 A 
ATOM      6  N   LIG    1       25.484 -23.003   6.841  0.00  0.00    -0.328 N 
ATOM      7  H   LIG    1       25.448 -23.541   7.703  0.00  0.00    +0.147 HD
ATOM      8  C   LIG    1       24.185 -22.766   6.260  0.00  0.00    +0.209 C 
ATOM      9  N   LIG    1       24.336 -22.222   4.931  0.00  0.00    -0.173 NA
ATOM     10  H   LIG    1       23.470 -22.221   4.395  0.00  0.00    +0.150 HD
ATOM     11  S   LIG    1       24.972 -20.675   4.972  0.00  0.00    +0.062 S 
ATOM     12  O   LIG    1       24.022 -19.842   5.677  0.00  0.00    -0.153 OA
ATOM     13  O   LIG    1       25.411 -20.359   3.633  0.00  0.00    -0.153 OA
ATOM     14  C   LIG    1       26.378 -20.872   6.004  0.00  0.00    +0.128 A 
ATOM     15  C   LIG    1       27.404 -19.922   5.944  0.00  0.00    +0.060 A 
ENDROOT
BRANCH   1  16
ATOM     16  S   LIG    1       29.818 -18.876   6.646  0.00  0.00    +0.057 S 
ATOM     17  O   LIG    1       29.745 -17.998   7.788  0.00  0.00    -0.153 OA
ATOM     18  O   LIG    1       31.048 -19.534   6.268  0.00  0.00    -0.153 OA
BRANCH  16  19
ATOM     19  N   LIG    1       29.389 -17.977   5.294  0.00  0.00    -0.203 NA
ATOM     20  H   LIG    1       29.632 -18.494   4.446  0.00  0.00    +0.144 HD
ATOM     21  H   LIG    1       28.404 -17.719   5.350  0.00  0.00    +0.144 HD
ENDBRANCH  16  19
ENDBRANCH   1  16
TORSDOF 2
ENDMDL
MODEL 7
REMARK VINA RESULT:      -6.6      4.158      5.538
REMARK  Name = *****
REMARK                            x       y       z     vdW  Elec       q    Type
REMARK                         _______ _______ _______ _____ _____    ______ ____
ROOT
ATOM      1  C   LIG    1       25.589 -22.658   7.509  0.00  0.00    +0.125 A 
ATOM      2  C   LIG    1       24.332 -22.420   6.950  0.00  0.00    +0.069 A 
ATOM      3 CL   LIG    1       23.514 -20.900   7.020  0.00  0.00    -0.082 Cl
ATOM      4  C   LIG    1       23.664 -23.460   6.279  0.00  0.00    +0.046 A 
ATOM      5  C   LIG    1       24.237 -24.732   6.129  0.00  0.00    +0.056 A 
ATOM      6  N   LIG    1       23.482 -25.747   5.544  0.00  0.00    -0.328 N 
ATOM      7  H   LIG    1       22.800 -25.420   4.865  0.00  0.00    +0.147 HD
ATOM      8  C   LIG    1       24.121 -26.983   5.162  0.00  0.00    +0.209 C 
ATOM      9  N   LIG    1       24.879 -27.505   6.275  0.00  0.00    -0.173 NA
ATOM     10  H   LIG    1       25.187 -28.466   6.138  0.00  0.00    +0.150 HD
ATOM     11  S   LIG    1       26.200 -26.538   6.622  0.00  0.00    +0.062 S 
ATOM     12  O   LIG    1       27.062 -26.561   5.461  0.00  0.00    -0.153 OA
ATOM     13  O   LIG    1       26.678 -26.924   7.930  0.00  0.00    -0.153 OA
ATOM     14  C   LIG    1       25.482 -24.940   6.724  0.00  0.00    +0.128 A 
ATOM     15  C   LIG    1       26.167 -23.929   7.407  0.00  0.00    +0.060 A 
ENDROOT
BRANCH   1  16
ATOM     16  S   LIG    1       26.472 -21.405   8.384  0.00  0.00    +0.057 S 
ATOM     17  O   LIG    1       25.630 -20.857   9.420  0.00  0.00    -0.153 OA
ATOM     18  O   LIG    1       27.807 -21.884   8.661  0.00  0.00    -0.153 OA
BRANCH  16  19
ATOM     19  N   LIG    1       26.685 -20.208   7.226  0.00  0.00    -0.203 NA
ATOM     20  H   LIG    1       25.792 -20.005   6.773  0.00  0.00    +0.144 HD
ATOM     21  H   LIG    1       27.127 -19.393   7.650  0.00  0.00    +0.144 HD
ENDBRANCH  16  19
ENDBRANCH   1  16
TORSDOF 2
ENDMDL
MODEL 8
REMARK VINA RESULT:      -6.1      3.191      5.689
REMARK  Name = *****
REMARK                            x       y       z     vdW  Elec       q    Type
REMARK                         _______ _______ _______ _____ _____    ______ ____
ROOT
ATOM      1  C   LIG    1       28.507 -19.625   7.963  0.00  0.00    +0.125 A 
ATOM      2  C   LIG    1       29.297 -19.507   6.818  0.00  0.00    +0.069 A 
ATOM      3 CL   LIG    1       28.872 -20.157   5.276  0.00  0.00    -0.082 Cl
ATOM      4  C   LIG    1       30.522 -18.818   6.890  0.00  0.00    +0.046 A 
ATOM      5  C   LIG    1       30.965 -18.219   8.079  0.00  0.00    +0.056 A 
ATOM      6  N   LIG    1       32.232 -17.640   8.111  0.00  0.00    -0.328 N 
ATOM      7  H   LIG    1       32.545 -17.273   7.217  0.00  0.00    +0.147 HD
ATOM      8  C   LIG    1       32.613 -16.815   9.232  0.00  0.00    +0.209 C 
ATOM      9  N   LIG    1       32.356 -17.520  10.467  0.00  0.00    -0.173 NA
ATOM     10  H   LIG    1       32.784 -17.079  11.279  0.00  0.00    +0.150 HD
ATOM     11  S   LIG    1       30.714 -17.710  10.732  0.00  0.00    +0.062 S 
ATOM     12  O   LIG    1       30.148 -16.385  10.862  0.00  0.00    -0.153 OA
ATOM     13  O   LIG    1       30.563 -18.705  11.768  0.00  0.00    -0.153 OA
ATOM     14  C   LIG    1       30.161 -18.381   9.208  0.00  0.00    +0.128 A 
ATOM     15  C   LIG    1       28.943 -19.069   9.171  0.00  0.00    +0.060 A 
ENDROOT
BRANCH   1  16
ATOM     16  S   LIG    1       26.972 -20.495   7.947  0.00  0.00    +0.057 S 
ATOM     17  O   LIG    1       26.358 -20.414   9.251  0.00  0.00    -0.153 OA
ATOM     18  O   LIG    1       26.252 -20.146   6.743  0.00  0.00    -0.153 OA
BRANCH  16  19
ATOM     19  N   LIG    1       27.439 -22.091   7.711  0.00  0.00    -0.203 NA
ATOM     20  H   LIG    1       26.773 -22.715   8.169  0.00  0.00    +0.144 HD
ATOM     21  H   LIG    1       27.554 -22.272   6.713  0.00  0.00    +0.144 HD
ENDBRANCH  16  19
ENDBRANCH   1  16
TORSDOF 2
ENDMDL
MODEL 9
REMARK VINA RESULT:      -5.9      3.201      5.867
REMARK  Name = *****
REMARK                            x       y       z     vdW  Elec       q    Type
REMARK                         _______ _______ _______ _____ _____    ______ ____
ROOT
ATOM      1  C   LIG    1       26.528 -20.817   6.262  0.00  0.00    +0.125 A 
ATOM      2  C   LIG    1       26.553 -21.882   7.164  0.00  0.00    +0.069 A 
ATOM      3 CL   LIG    1       25.260 -23.010   7.365  0.00  0.00    -0.082 Cl
ATOM      4  C   LIG    1       27.686 -22.079   7.973  0.00  0.00    +0.046 A 
ATOM      5  C   LIG    1       28.813 -21.248   7.883  0.00  0.00    +0.056 A 
ATOM      6  N   LIG    1       29.862 -21.433   8.782  0.00  0.00    -0.328 N 
ATOM      7  H   LIG    1       29.968 -22.390   9.107  0.00  0.00    +0.147 HD
ATOM      8  C   LIG    1       31.120 -20.761   8.562  0.00  0.00    +0.209 C 
ATOM      9  N   LIG    1       30.889 -19.351   8.349  0.00  0.00    -0.173 NA
ATOM     10  H   LIG    1       31.740 -18.793   8.387  0.00  0.00    +0.150 HD
ATOM     11  S   LIG    1       30.101 -19.073   6.899  0.00  0.00    +0.062 S 
ATOM     12  O   LIG    1       30.975 -19.535   5.843  0.00  0.00    -0.153 OA
ATOM     13  O   LIG    1       29.607 -17.715   6.936  0.00  0.00    -0.153 OA
ATOM     14  C   LIG    1       28.742 -20.179   6.989  0.00  0.00    +0.128 A 
ATOM     15  C   LIG    1       27.624 -19.950   6.179  0.00  0.00    +0.060 A 
ENDROOT
BRANCH   1  16
ATOM     16  S   LIG    1       25.130 -20.500   5.234  0.00  0.00    +0.057 S 
ATOM     17  O   LIG    1       23.975 -20.239   6.059  0.00  0.00    -0.153 OA
ATOM     18  O   LIG    1       25.527 -19.603   4.173  0.00  0.00    -0.153 OA
BRANCH  16  19
ATOM     19  N   LIG    1       24.877 -21.973   4.467  0.00  0.00    -0.203 NA
ATOM     20  H   LIG    1       25.740 -22.518   4.478  0.00  0.00    +0.144 HD
ATOM     21  H   LIG    1       24.082 -22.451   4.893  0.00  0.00    +0.144 HD
ENDBRANCH  16  19
ENDBRANCH   1  16
TORSDOF 2
ENDMDL
