MODEL 1
REMARK VINA RESULT:      -5.5      0.000      0.000
REMARK  Name = *****
REMARK                            x       y       z     vdW  Elec       q    Type
REMARK                         _______ _______ _______ _____ _____    ______ ____
ROOT
ATOM      1  CA  HYP A  1       31.393 -20.734   8.371  0.00  0.00    +0.166 C 
ATOM      2  N   HYP A  1       31.956 -19.566   9.081  0.00  0.00    -0.302 NA
ATOM      3  H   HYP A  1       32.734 -19.727   9.713  0.00  0.00    +0.123 HD
ATOM      4  CD  HYP A  1       30.856 -18.710   9.511  0.00  0.00    +0.113 C 
ATOM      5  CG  HYP A  1       29.892 -18.830   8.334  0.00  0.00    +0.130 C 
ATOM      6  CB  HYP A  1       29.996 -20.294   7.924  0.00  0.00    +0.062 C 
ENDROOT
BRANCH   1   8
ATOM      7  O   HYP A  1       30.725 -22.052  10.301  0.00  0.00    -0.249 OA
ATOM      8  C   HYP A  1       31.307 -22.001   9.227  0.00  0.00    +0.322 C 
BRANCH   8   9
ATOM      9  OXT HYP A  1       31.975 -23.066   8.725  0.00  0.00    -0.479 OA
ATOM     10  HXT HYP A  1       31.899 -23.102   7.755  0.00  0.00    +0.295 HD
ENDBRANCH   8   9
ENDBRANCH   1   8
BRANCH   5  11
ATOM     11  OD  HYP A  1       30.337 -18.004   7.257  0.00  0.00    -0.391 OA
ATOM     12  HD  HYP A  1       31.166 -17.586   7.556  0.00  0.00    +0.210 HD
ENDBRANCH   5  11
TORSDOF 3
ENDMDL
MODEL 2
REMARK VINA RESULT:      -5.5      2.375      3.845
REMARK  Name = *****
REMARK                            x       y       z     vdW  Elec       q    Type
REMARK                         _______ _______ _______ _____ _____    ______ ____
ROOT
ATOM      1  CA  HYP A  1       31.387 -18.147   9.783  0.00  0.00    +0.166 C 
ATOM      2  N   HYP A  1       31.899 -19.365   9.119  0.00  0.00    -0.302 NA
ATOM      3  H   HYP A  1       32.852 -19.650   9.323  0.00  0.00    +0.123 HD
ATOM      4  CD  HYP A  1       31.435 -19.370   7.736  0.00  0.00    +0.113 C 
ATOM      5  CG  HYP A  1       30.030 -18.791   7.880  0.00  0.00    +0.130 C 
ATOM      6  CB  HYP A  1       30.186 -17.708   8.939  0.00  0.00    +0.062 C 
ENDROOT
BRANCH   1   8
ATOM      7  O   HYP A  1       33.025 -16.748  10.910  0.00  0.00    -0.249 OA
ATOM      8  C   HYP A  1       32.415 -17.016   9.884  0.00  0.00    +0.322 C 
BRANCH   8   9
ATOM      9  OXT HYP A  1       32.567 -16.292   8.752  0.00  0.00    -0.479 OA
ATOM     10  HXT HYP A  1       33.498 -16.274   8.468  0.00  0.00    +0.295 HD
ENDBRANCH   8   9
ENDBRANCH   1   8
BRANCH   5  11
ATOM     11  OD  HYP A  1       29.136 -19.797   8.360  0.00  0.00    -0.391 OA
ATOM     12  HD  HYP A  1       29.007 -20.423   7.622  0.00  0.00    +0.210 HD
ENDBRANCH   5  11
TORSDOF 3
ENDMDL
MODEL 3
REMARK VINA RESULT:      -5.3      2.442      3.321
REMARK  Name = *****
REMARK                            x       y       z     vdW  Elec       q    Type
REMARK                         _______ _______ _______ _____ _____    ______ ____
ROOT
ATOM      1  CA  HYP A  1       31.117 -17.977   8.797  0.00  0.00    +0.166 C 
ATOM      2  N   HYP A  1       32.108 -16.889   8.934  0.00  0.00    -0.302 NA
ATOM      3  H   HYP A  1       32.777 -16.761   8.182  0.00  0.00    +0.123 HD
ATOM      4  CD  HYP A  1       32.576 -16.859  10.316  0.00  0.00    +0.113 C 
ATOM      5  CG  HYP A  1       31.298 -17.188  11.082  0.00  0.00    +0.130 C 
ATOM      6  CB  HYP A  1       30.614 -18.241  10.219  0.00  0.00    +0.062 C 
ENDROOT
BRANCH   1   8
ATOM      7  O   HYP A  1       31.716 -19.476   6.979  0.00  0.00    -0.249 OA
ATOM      8  C   HYP A  1       31.684 -19.260   8.182  0.00  0.00    +0.322 C 
BRANCH   8   9
ATOM      9  OXT HYP A  1       32.111 -20.175   9.083  0.00  0.00    -0.479 OA
ATOM     10  HXT HYP A  1       32.459 -20.969   8.640  0.00  0.00    +0.295 HD
ENDBRANCH   8   9
ENDBRANCH   1   8
BRANCH   5  11
ATOM     11  OD  HYP A  1       30.467 -16.028  11.162  0.00  0.00    -0.391 OA
ATOM     12  HD  HYP A  1       29.950 -16.005  10.334  0.00  0.00    +0.210 HD
ENDBRANCH   5  11
TORSDOF 3
ENDMDL
MODEL 4
REMARK VINA RESULT:      -5.3      2.341      3.811
REMARK  Name = *****
REMARK                            x       y       z     vdW  Elec       q    Type
REMARK                         _______ _______ _______ _____ _____    ______ ____
ROOT
ATOM      1  CA  HYP A  1       29.855 -19.730   7.149  0.00  0.00    +0.166 C 
ATOM      2  N   HYP A  1       29.354 -19.286   8.468  0.00  0.00    -0.302 NA
ATOM      3  H   HYP A  1       28.350 -19.209   8.592  0.00  0.00    +0.123 HD
ATOM      4  CD  HYP A  1       30.215 -18.212   8.953  0.00  0.00    +0.113 C 
ATOM      5  CG  HYP A  1       31.588 -18.679   8.478  0.00  0.00    +0.130 C 
ATOM      6  CB  HYP A  1       31.317 -19.279   7.104  0.00  0.00    +0.062 C 
ENDROOT
BRANCH   1   8
ATOM      7  O   HYP A  1       28.044 -19.642   5.528  0.00  0.00    -0.249 OA
ATOM      8  C   HYP A  1       29.077 -19.152   5.963  0.00  0.00    +0.322 C 
BRANCH   8   9
ATOM      9  OXT HYP A  1       29.651 -18.069   5.389  0.00  0.00    -0.479 OA
ATOM     10  HXT HYP A  1       29.678 -18.157   4.420  0.00  0.00    +0.295 HD
ENDBRANCH   8   9
ENDBRANCH   1   8
BRANCH   5  11
ATOM     11  OD  HYP A  1       32.083 -19.696   9.350  0.00  0.00    -0.391 OA
ATOM     12  HD  HYP A  1       32.911 -20.022   8.948  0.00  0.00    +0.210 HD
ENDBRANCH   5  11
TORSDOF 3
ENDMDL
MODEL 5
REMARK VINA RESULT:      -5.2      2.400      3.311
REMARK  Name = *****
REMARK                            x       y       z     vdW  Elec       q    Type
REMARK                         _______ _______ _______ _____ _____    ______ ____
ROOT
ATOM      1  CA  HYP A  1       30.224 -18.570   7.893  0.00  0.00    +0.166 C 
ATOM      2  N   HYP A  1       29.299 -19.499   8.578  0.00  0.00    -0.302 NA
ATOM      3  H   HYP A  1       29.333 -19.539   9.592  0.00  0.00    +0.123 HD
ATOM      4  CD  HYP A  1       29.245 -20.743   7.818  0.00  0.00    +0.113 C 
ATOM      5  CG  HYP A  1       29.312 -20.232   6.382  0.00  0.00    +0.130 C 
ATOM      6  CB  HYP A  1       30.302 -19.076   6.450  0.00  0.00    +0.062 C 
ENDROOT
BRANCH   1   8
ATOM      7  O   HYP A  1       32.089 -19.404   9.212  0.00  0.00    -0.249 OA
ATOM      8  C   HYP A  1       31.621 -18.512   8.518  0.00  0.00    +0.322 C 
BRANCH   8   9
ATOM      9  OXT HYP A  1       32.295 -17.362   8.283  0.00  0.00    -0.479 OA
ATOM     10  HXT HYP A  1       33.062 -17.277   8.876  0.00  0.00    +0.295 HD
ENDBRANCH   8   9
ENDBRANCH   1   8
BRANCH   5  11
ATOM     11  OD  HYP A  1       28.033 -19.736   5.983  0.00  0.00    -0.391 OA
ATOM     12  HD  HYP A  1       27.851 -18.962   6.548  0.00  0.00    +0.210 HD
ENDBRANCH   5  11
TORSDOF 3
ENDMDL
MODEL 6
REMARK VINA RESULT:      -5.1      2.401      3.280
REMARK  Name = *****
REMARK                            x       y       z     vdW  Elec       q    Type
REMARK                         _______ _______ _______ _____ _____    ______ ____
ROOT
ATOM      1  CA  HYP A  1       31.280 -19.527   8.423  0.00  0.00    +0.166 C 
ATOM      2  N   HYP A  1       31.619 -19.614   6.986  0.00  0.00    -0.302 NA
ATOM      3  H   HYP A  1       32.550 -19.325   6.701  0.00  0.00    +0.123 HD
ATOM      4  CD  HYP A  1       30.467 -19.167   6.210  0.00  0.00    +0.113 C 
ATOM      5  CG  HYP A  1       29.307 -19.728   7.028  0.00  0.00    +0.130 C 
ATOM      6  CB  HYP A  1       29.749 -19.532   8.473  0.00  0.00    +0.062 C 
ENDROOT
BRANCH   1   8
ATOM      7  O   HYP A  1       31.924 -18.167  10.333  0.00  0.00    -0.249 OA
ATOM      8  C   HYP A  1       31.835 -18.280   9.118  0.00  0.00    +0.322 C 
BRANCH   8   9
ATOM      9  OXT HYP A  1       32.182 -17.276   8.280  0.00  0.00    -0.479 OA
ATOM     10  HXT HYP A  1       32.880 -16.720   8.667  0.00  0.00    +0.295 HD
ENDBRANCH   8   9
ENDBRANCH   1   8
BRANCH   5  11
ATOM     11  OD  HYP A  1       29.156 -21.124   6.764  0.00  0.00    -0.391 OA
ATOM     12  HD  HYP A  1       29.787 -21.583   7.349  0.00  0.00    +0.210 HD
ENDBRANCH   5  11
TORSDOF 3
ENDMDL
MODEL 7
REMARK VINA RESULT:      -5.1      1.856      2.337
REMARK  Name = *****
REMARK                            x       y       z     vdW  Elec       q    Type
REMARK                         _______ _______ _______ _____ _____    ______ ____
ROOT
ATOM      1  CA  HYP A  1       30.439 -19.587   8.338  0.00  0.00    +0.166 C 
ATOM      2  N   HYP A  1       29.016 -19.766   7.978  0.00  0.00    -0.302 NA
ATOM      3  H   HYP A  1       28.418 -20.250   8.640  0.00  0.00    +0.123 HD
ATOM      4  CD  HYP A  1       28.935 -20.111   6.562  0.00  0.00    +0.113 C 
ATOM      5  CG  HYP A  1       30.044 -19.246   5.970  0.00  0.00    +0.130 C 
ATOM      6  CB  HYP A  1       31.154 -19.308   7.012  0.00  0.00    +0.062 C 
ENDROOT
BRANCH   1   8
ATOM      7  O   HYP A  1       32.245 -20.876   9.332  0.00  0.00    -0.249 OA
ATOM      8  C   HYP A  1       31.060 -20.799   9.038  0.00  0.00    +0.322 C 
BRANCH   8   9
ATOM      9  OXT HYP A  1       30.199 -21.817   9.269  0.00  0.00    -0.479 OA
ATOM     10  HXT HYP A  1       29.502 -21.552   9.895  0.00  0.00    +0.295 HD
ENDBRANCH   8   9
ENDBRANCH   1   8
BRANCH   5  11
ATOM     11  OD  HYP A  1       29.591 -17.898   5.839  0.00  0.00    -0.391 OA
ATOM     12  HD  HYP A  1       29.466 -17.742   4.884  0.00  0.00    +0.210 HD
ENDBRANCH   5  11
TORSDOF 3
ENDMDL
MODEL 8
REMARK VINA RESULT:      -5.0      7.942      8.885
REMARK  Name = *****
REMARK                            x       y       z     vdW  Elec       q    Type
REMARK                         _______ _______ _______ _____ _____    ______ ____
ROOT
ATOM      1  CA  HYP A  1       24.763 -24.371   5.872  0.00  0.00    +0.166 C 
ATOM      2  N   HYP A  1       24.185 -25.589   5.264  0.00  0.00    -0.302 NA
ATOM      3  H   HYP A  1       23.253 -25.523   4.868  0.00  0.00    +0.123 HD
ATOM      4  CD  HYP A  1       24.522 -26.732   6.106  0.00  0.00    +0.113 C 
ATOM      5  CG  HYP A  1       25.938 -26.379   6.554  0.00  0.00    +0.130 C 
ATOM      6  CB  HYP A  1       25.884 -24.874   6.785  0.00  0.00    +0.062 C 
ENDROOT
BRANCH   1   8
ATOM      7  O   HYP A  1       24.067 -22.566   7.345  0.00  0.00    -0.249 OA
ATOM      8  C   HYP A  1       23.755 -23.536   6.668  0.00  0.00    +0.322 C 
BRANCH   8   9
ATOM      9  OXT HYP A  1       22.480 -23.985   6.607  0.00  0.00    -0.479 OA
ATOM     10  HXT HYP A  1       22.412 -24.774   6.042  0.00  0.00    +0.295 HD
ENDBRANCH   8   9
ENDBRANCH   1   8
BRANCH   5  11
ATOM     11  OD  HYP A  1       26.865 -26.664   5.505  0.00  0.00    -0.391 OA
ATOM     12  HD  HYP A  1       27.737 -26.359   5.819  0.00  0.00    +0.210 HD
ENDBRANCH   5  11
TORSDOF 3
ENDMDL
MODEL 9
REMARK VINA RESULT:      -5.0      2.213      2.892
REMARK  Name = *****
REMARK                            x       y       z     vdW  Elec       q    Type
REMARK                         _______ _______ _______ _____ _____    ______ ____
ROOT
ATOM      1  CA  HYP A  1       30.320 -19.643   6.795  0.00  0.00    +0.166 C 
ATOM      2  N   HYP A  1       31.437 -20.234   7.563  0.00  0.00    -0.302 NA
ATOM      3  H   HYP A  1       31.614 -21.227   7.452  0.00  0.00    +0.123 HD
ATOM      4  CD  HYP A  1       31.436 -19.656   8.902  0.00  0.00    +0.113 C 
ATOM      5  CG  HYP A  1       31.037 -18.211   8.615  0.00  0.00    +0.130 C 
ATOM      6  CB  HYP A  1       29.991 -18.332   7.514  0.00  0.00    +0.062 C 
ENDROOT
BRANCH   1   8
ATOM      7  O   HYP A  1       28.821 -21.410   7.534  0.00  0.00    -0.249 OA
ATOM      8  C   HYP A  1       29.080 -20.539   6.715  0.00  0.00    +0.322 C 
BRANCH   8   9
ATOM      9  OXT HYP A  1       28.301 -20.325   5.630  0.00  0.00    -0.479 OA
ATOM     10  HXT HYP A  1       27.364 -20.498   5.829  0.00  0.00    +0.295 HD
ENDBRANCH   8   9
ENDBRANCH   1   8
BRANCH   5  11
ATOM     11  OD  HYP A  1       32.163 -17.485   8.120  0.00  0.00    -0.391 OA
ATOM     12  HD  HYP A  1       32.076 -17.473   7.148  0.00  0.00    +0.210 HD
ENDBRANCH   5  11
TORSDOF 3
ENDMDL
