MODEL 1
REMARK VINA RESULT:      -4.5      0.000      0.000
REMARK  Name = *****
REMARK                            x       y       z     vdW  Elec       q    Type
REMARK                         _______ _______ _______ _____ _____    ______ ____
ROOT
ATOM      1  C   LIG    1       23.132 -21.405   6.816  0.00  0.00    +0.439 C 
ATOM      2  N   LIG    1       23.480 -20.535   5.675  0.00  0.00    -0.199 N 
ATOM      3  C   LIG    1       24.700 -20.577   5.079  0.00  0.00    +0.229 A 
ATOM      4  C   LIG    1       25.035 -19.680   4.066  0.00  0.00    +0.080 A 
ATOM      5  C   LIG    1       24.088 -18.767   3.626  0.00  0.00    +0.012 A 
ATOM      6  C   LIG    1       22.829 -18.763   4.209  0.00  0.00    +0.070 A 
ATOM      7  C   LIG    1       22.545 -19.660   5.234  0.00  0.00    +0.309 A 
ENDROOT
BRANCH   3   8
ATOM      8  C   LIG    1       25.716 -21.549   5.510  0.00  0.00    +0.230 C 
ATOM      9  N   LIG    1       26.628 -21.366   6.414  0.00  0.00    -0.089 NA
BRANCH   9  10
ATOM     10  O   LIG    1       26.499 -20.131   7.056  0.00  0.00    -0.409 OA
ATOM     11  H   LIG    1       25.767 -20.299   7.689  0.00  0.00    +0.328 HD
ENDBRANCH   9  10
ENDBRANCH   3   8
TORSDOF 2
ENDMDL
MODEL 2
REMARK VINA RESULT:      -4.1      2.032      3.859
REMARK  Name = *****
REMARK                            x       y       z     vdW  Elec       q    Type
REMARK                         _______ _______ _______ _____ _____    ______ ____
ROOT
ATOM      1  C   LIG    1       25.306 -19.364   3.519  0.00  0.00    +0.439 C 
ATOM      2  N   LIG    1       25.787 -20.067   4.725  0.00  0.00    -0.199 N 
ATOM      3  C   LIG    1       25.033 -20.992   5.372  0.00  0.00    +0.229 A 
ATOM      4  C   LIG    1       25.472 -21.572   6.562  0.00  0.00    +0.080 A 
ATOM      5  C   LIG    1       26.721 -21.234   7.062  0.00  0.00    +0.012 A 
ATOM      6  C   LIG    1       27.504 -20.322   6.368  0.00  0.00    +0.070 A 
ATOM      7  C   LIG    1       27.017 -19.751   5.198  0.00  0.00    +0.309 A 
ENDROOT
BRANCH   3   8
ATOM      8  C   LIG    1       23.715 -21.386   4.854  0.00  0.00    +0.230 C 
ATOM      9  N   LIG    1       22.576 -20.831   5.134  0.00  0.00    -0.089 NA
BRANCH   9  10
ATOM     10  O   LIG    1       22.721 -19.698   5.940  0.00  0.00    -0.409 OA
ATOM     11  H   LIG    1       23.635 -19.800   6.282  0.00  0.00    +0.328 HD
ENDBRANCH   9  10
ENDBRANCH   3   8
TORSDOF 2
ENDMDL
MODEL 3
REMARK VINA RESULT:      -4.1      2.063      3.293
REMARK  Name = *****
REMARK                            x       y       z     vdW  Elec       q    Type
REMARK                         _______ _______ _______ _____ _____    ______ ____
ROOT
ATOM      1  C   LIG    1       23.147 -21.549   7.030  0.00  0.00    +0.439 C 
ATOM      2  N   LIG    1       24.324 -20.959   6.361  0.00  0.00    -0.199 N 
ATOM      3  C   LIG    1       24.282 -20.520   5.077  0.00  0.00    +0.229 A 
ATOM      4  C   LIG    1       25.431 -20.056   4.438  0.00  0.00    +0.080 A 
ATOM      5  C   LIG    1       26.623 -19.993   5.145  0.00  0.00    +0.012 A 
ATOM      6  C   LIG    1       26.646 -20.400   6.472  0.00  0.00    +0.070 A 
ATOM      7  C   LIG    1       25.481 -20.879   7.062  0.00  0.00    +0.309 A 
ENDROOT
BRANCH   3   8
ATOM      8  C   LIG    1       23.028 -20.554   4.310  0.00  0.00    +0.230 C 
ATOM      9  N   LIG    1       22.056 -19.698   4.377  0.00  0.00    -0.089 NA
BRANCH   9  10
ATOM     10  O   LIG    1       22.356 -18.619   5.214  0.00  0.00    -0.409 OA
ATOM     11  H   LIG    1       23.083 -18.979   5.768  0.00  0.00    +0.328 HD
ENDBRANCH   9  10
ENDBRANCH   3   8
TORSDOF 2
ENDMDL
MODEL 4
REMARK VINA RESULT:      -4.1      2.243      4.041
REMARK  Name = *****
REMARK                            x       y       z     vdW  Elec       q    Type
REMARK                         _______ _______ _______ _____ _____    ______ ____
ROOT
ATOM      1  C   LIG    1       24.910 -19.417   3.141  0.00  0.00    +0.439 C 
ATOM      2  N   LIG    1       24.616 -19.965   4.481  0.00  0.00    -0.199 N 
ATOM      3  C   LIG    1       23.350 -20.057   4.963  0.00  0.00    +0.229 A 
ATOM      4  C   LIG    1       23.107 -20.489   6.266  0.00  0.00    +0.080 A 
ATOM      5  C   LIG    1       24.174 -20.880   7.062  0.00  0.00    +0.012 A 
ATOM      6  C   LIG    1       25.461 -20.827   6.544  0.00  0.00    +0.070 A 
ATOM      7  C   LIG    1       25.659 -20.366   5.247  0.00  0.00    +0.309 A 
ENDROOT
BRANCH   3   8
ATOM      8  C   LIG    1       22.199 -19.671   4.134  0.00  0.00    +0.230 C 
ATOM      9  N   LIG    1       21.653 -18.496   4.067  0.00  0.00    -0.089 NA
BRANCH   9  10
ATOM     10  O   LIG    1       22.349 -17.543   4.816  0.00  0.00    -0.409 OA
ATOM     11  H   LIG    1       21.836 -17.517   5.653  0.00  0.00    +0.328 HD
ENDBRANCH   9  10
ENDBRANCH   3   8
TORSDOF 2
ENDMDL
MODEL 5
REMARK VINA RESULT:      -4.0      6.454      6.991
REMARK  Name = *****
REMARK                            x       y       z     vdW  Elec       q    Type
REMARK                         _______ _______ _______ _____ _____    ______ ____
ROOT
ATOM      1  C   LIG    1       26.282 -13.547   5.761  0.00  0.00    +0.439 C 
ATOM      2  N   LIG    1       25.617 -13.275   4.471  0.00  0.00    -0.199 N 
ATOM      3  C   LIG    1       26.059 -13.807   3.303  0.00  0.00    +0.229 A 
ATOM      4  C   LIG    1       25.472 -13.459   2.087  0.00  0.00    +0.080 A 
ATOM      5  C   LIG    1       24.385 -12.597   2.080  0.00  0.00    +0.012 A 
ATOM      6  C   LIG    1       23.911 -12.095   3.284  0.00  0.00    +0.070 A 
ATOM      7  C   LIG    1       24.542 -12.450   4.471  0.00  0.00    +0.309 A 
ENDROOT
BRANCH   3   8
ATOM      8  C   LIG    1       27.195 -14.741   3.283  0.00  0.00    +0.230 C 
ATOM      9  N   LIG    1       27.132 -16.037   3.303  0.00  0.00    -0.089 NA
BRANCH   9  10
ATOM     10  O   LIG    1       25.817 -16.506   3.241  0.00  0.00    -0.409 OA
ATOM     11  H   LIG    1       25.890 -17.254   2.608  0.00  0.00    +0.328 HD
ENDBRANCH   9  10
ENDBRANCH   3   8
TORSDOF 2
ENDMDL
MODEL 6
REMARK VINA RESULT:      -4.0      7.448      7.586
REMARK  Name = *****
REMARK                            x       y       z     vdW  Elec       q    Type
REMARK                         _______ _______ _______ _____ _____    ______ ____
ROOT
ATOM      1  C   LIG    1       26.329 -13.458   5.904  0.00  0.00    +0.439 C 
ATOM      2  N   LIG    1       25.743 -13.307   4.558  0.00  0.00    -0.199 N 
ATOM      3  C   LIG    1       26.423 -13.640   3.431  0.00  0.00    +0.229 A 
ATOM      4  C   LIG    1       25.883 -13.398   2.168  0.00  0.00    +0.080 A 
ATOM      5  C   LIG    1       24.609 -12.858   2.066  0.00  0.00    +0.012 A 
ATOM      6  C   LIG    1       23.903 -12.564   3.224  0.00  0.00    +0.070 A 
ATOM      7  C   LIG    1       24.490 -12.799   4.463  0.00  0.00    +0.309 A 
ENDROOT
BRANCH   3   8
ATOM      8  C   LIG    1       27.765 -14.234   3.509  0.00  0.00    +0.230 C 
ATOM      9  N   LIG    1       28.895 -13.596   3.522  0.00  0.00    -0.089 NA
BRANCH   9  10
ATOM     10  O   LIG    1       28.721 -12.210   3.559  0.00  0.00    -0.409 OA
ATOM     11  H   LIG    1       29.289 -11.908   2.816  0.00  0.00    +0.328 HD
ENDBRANCH   9  10
ENDBRANCH   3   8
TORSDOF 2
ENDMDL
MODEL 7
REMARK VINA RESULT:      -3.9      2.114      3.206
REMARK  Name = *****
REMARK                            x       y       z     vdW  Elec       q    Type
REMARK                         _______ _______ _______ _____ _____    ______ ____
ROOT
ATOM      1  C   LIG    1       26.648 -20.446   6.439  0.00  0.00    +0.439 C 
ATOM      2  N   LIG    1       25.240 -20.743   6.105  0.00  0.00    -0.199 N 
ATOM      3  C   LIG    1       24.707 -20.447   4.892  0.00  0.00    +0.229 A 
ATOM      4  C   LIG    1       23.352 -20.650   4.634  0.00  0.00    +0.080 A 
ATOM      5  C   LIG    1       22.550 -21.212   5.617  0.00  0.00    +0.012 A 
ATOM      6  C   LIG    1       23.115 -21.554   6.838  0.00  0.00    +0.070 A 
ATOM      7  C   LIG    1       24.466 -21.312   7.060  0.00  0.00    +0.309 A 
ENDROOT
BRANCH   3   8
ATOM      8  C   LIG    1       25.538 -19.872   3.824  0.00  0.00    +0.230 C 
ATOM      9  N   LIG    1       25.332 -18.752   3.201  0.00  0.00    -0.089 NA
BRANCH   9  10
ATOM     10  O   LIG    1       24.247 -18.044   3.727  0.00  0.00    -0.409 OA
ATOM     11  H   LIG    1       23.499 -18.375   3.183  0.00  0.00    +0.328 HD
ENDBRANCH   9  10
ENDBRANCH   3   8
TORSDOF 2
ENDMDL
MODEL 8
REMARK VINA RESULT:      -3.9      6.494      7.666
REMARK  Name = *****
REMARK                            x       y       z     vdW  Elec       q    Type
REMARK                         _______ _______ _______ _____ _____    ______ ____
ROOT
ATOM      1  C   LIG    1       23.376 -14.999   4.257  0.00  0.00    +0.439 C 
ATOM      2  N   LIG    1       24.767 -14.618   3.941  0.00  0.00    -0.199 N 
ATOM      3  C   LIG    1       25.177 -13.323   3.925  0.00  0.00    +0.229 A 
ATOM      4  C   LIG    1       26.471 -12.984   3.530  0.00  0.00    +0.080 A 
ATOM      5  C   LIG    1       27.366 -13.991   3.200  0.00  0.00    +0.012 A 
ATOM      6  C   LIG    1       26.951 -15.314   3.264  0.00  0.00    +0.070 A 
ATOM      7  C   LIG    1       25.644 -15.605   3.640  0.00  0.00    +0.309 A 
ENDROOT
BRANCH   3   8
ATOM      8  C   LIG    1       24.256 -12.237   4.291  0.00  0.00    +0.230 C 
ATOM      9  N   LIG    1       23.621 -11.453   3.476  0.00  0.00    -0.089 NA
BRANCH   9  10
ATOM     10  O   LIG    1       23.815 -11.807   2.138  0.00  0.00    -0.409 OA
ATOM     11  H   LIG    1       22.923 -11.665   1.752  0.00  0.00    +0.328 HD
ENDBRANCH   9  10
ENDBRANCH   3   8
TORSDOF 2
ENDMDL
MODEL 9
REMARK VINA RESULT:      -3.7      6.225      7.115
REMARK  Name = *****
REMARK                            x       y       z     vdW  Elec       q    Type
REMARK                         _______ _______ _______ _____ _____    ______ ____
ROOT
ATOM      1  C   LIG    1       27.077 -16.013   3.698  0.00  0.00    +0.439 C 
ATOM      2  N   LIG    1       26.078 -14.926   3.659  0.00  0.00    -0.199 N 
ATOM      3  C   LIG    1       26.429 -13.629   3.460  0.00  0.00    +0.229 A 
ATOM      4  C   LIG    1       25.478 -12.610   3.522  0.00  0.00    +0.080 A 
ATOM      5  C   LIG    1       24.147 -12.936   3.737  0.00  0.00    +0.012 A 
ATOM      6  C   LIG    1       23.792 -14.269   3.893  0.00  0.00    +0.070 A 
ATOM      7  C   LIG    1       24.776 -15.250   3.848  0.00  0.00    +0.309 A 
ENDROOT
BRANCH   3   8
ATOM      8  C   LIG    1       27.828 -13.257   3.208  0.00  0.00    +0.230 C 
ATOM      9  N   LIG    1       28.661 -12.749   4.063  0.00  0.00    -0.089 NA
BRANCH   9  10
ATOM     10  O   LIG    1       28.119 -12.671   5.350  0.00  0.00    -0.409 OA
ATOM     11  H   LIG    1       28.171 -11.709   5.541  0.00  0.00    +0.328 HD
ENDBRANCH   9  10
ENDBRANCH   3   8
TORSDOF 2
ENDMDL
