MODEL 1
REMARK VINA RESULT:     -10.9      0.000      0.000
REMARK  Name = *****
REMARK                            x       y       z     vdW  Elec       q    Type
REMARK                         _______ _______ _______ _____ _____    ______ ____
ROOT
ATOM      1  N   LIG    1       26.670 -21.528   8.708  0.00  0.00    -0.311 NA
ATOM      2  H   LIG    1       26.450 -21.286   9.679  0.00  0.00    +0.122 HD
ENDROOT
BRANCH   1   3
ATOM      3  C   LIG    1       27.109 -20.324   7.964  0.00  0.00    +0.115 C 
BRANCH   3   4
ATOM      4  C   LIG    1       28.527 -20.514   7.364  0.00  0.00    +0.169 C 
BRANCH   4   5
ATOM      5  C   LIG    1       29.488 -19.341   7.683  0.00  0.00    +0.203 C 
ATOM      6  O   LIG    1       29.403 -19.033   9.086  0.00  0.00    -0.486 OA
ATOM      7  C   LIG    1       30.336 -18.133   9.536  0.00  0.00    +0.124 A 
ATOM      8  C   LIG    1       31.523 -17.847   8.853  0.00  0.00    -0.003 A 
ATOM      9  C   LIG    1       32.411 -16.900   9.390  0.00  0.00    +0.045 A 
ATOM     10  C   LIG    1       32.117 -16.286  10.603  0.00  0.00    +0.124 A 
ATOM     11  C   LIG    1       30.954 -16.589  11.294  0.00  0.00    +0.042 A 
ATOM     12  F   LIG    1       32.974 -15.387  11.109  0.00  0.00    -0.205 F 
ATOM     13  C   LIG    1       31.851 -18.518   7.553  0.00  0.00    +0.042 C 
ATOM     14  C   LIG    1       30.059 -17.520  10.760  0.00  0.00    +0.049 A 
ATOM     15  C   LIG    1       30.929 -19.702   7.300  0.00  0.00    +0.052 C 
ENDBRANCH   4   5
BRANCH   4  16
ATOM     16  O   LIG    1       28.415 -20.671   5.942  0.00  0.00    -0.387 OA
ATOM     17  H   LIG    1       28.978 -19.967   5.564  0.00  0.00    +0.210 HD
ENDBRANCH   4  16
ENDBRANCH   3   4
ENDBRANCH   1   3
BRANCH   1  18
ATOM     18  C   LIG    1       25.448 -22.111   8.105  0.00  0.00    +0.115 C 
BRANCH  18  19
ATOM     19  C   LIG    1       25.780 -23.042   6.907  0.00  0.00    +0.169 C 
BRANCH  19  20
ATOM     20  C   LIG    1       24.572 -23.200   5.939  0.00  0.00    +0.203 C 
ATOM     21  O   LIG    1       24.733 -22.366   4.779  0.00  0.00    -0.486 OA
ATOM     22  C   LIG    1       24.059 -21.178   4.738  0.00  0.00    +0.124 A 
ATOM     23  C   LIG    1       23.144 -20.759   5.706  0.00  0.00    -0.003 A 
ATOM     24  C   LIG    1       22.533 -19.501   5.570  0.00  0.00    +0.045 A 
ATOM     25  C   LIG    1       22.824 -18.707   4.467  0.00  0.00    +0.124 A 
ATOM     26  C   LIG    1       23.716 -19.128   3.494  0.00  0.00    +0.042 A 
ATOM     27  F   LIG    1       22.229 -17.510   4.343  0.00  0.00    -0.205 F 
ATOM     28  C   LIG    1       22.832 -21.617   6.894  0.00  0.00    +0.042 C 
ATOM     29  C   LIG    1       24.339 -20.371   3.631  0.00  0.00    +0.049 A 
ATOM     30  C   LIG    1       23.193 -23.063   6.596  0.00  0.00    +0.052 C 
ENDBRANCH  19  20
BRANCH  19  31
ATOM     31  O   LIG    1       26.219 -24.307   7.421  0.00  0.00    -0.387 OA
ATOM     32  H   LIG    1       26.344 -24.194   8.380  0.00  0.00    +0.210 HD
ENDBRANCH  19  31
ENDBRANCH  18  19
ENDBRANCH   1  18
TORSDOF 8
ENDMDL
MODEL 2
REMARK VINA RESULT:     -10.2      2.662      3.900
REMARK  Name = *****
REMARK                            x       y       z     vdW  Elec       q    Type
REMARK                         _______ _______ _______ _____ _____    ______ ____
ROOT
ATOM      1  N   LIG    1       27.323 -20.168   5.339  0.00  0.00    -0.311 NA
ATOM      2  H   LIG    1       27.168 -21.003   4.766  0.00  0.00    +0.122 HD
ENDROOT
BRANCH   1   3
ATOM      3  C   LIG    1       28.759 -20.037   5.681  0.00  0.00    +0.115 C 
BRANCH   3   4
ATOM      4  C   LIG    1       28.982 -20.084   7.215  0.00  0.00    +0.169 C 
BRANCH   4   5
ATOM      5  C   LIG    1       29.915 -18.959   7.732  0.00  0.00    +0.203 C 
ATOM      6  O   LIG    1       29.667 -18.752   9.134  0.00  0.00    -0.486 OA
ATOM      7  C   LIG    1       30.553 -17.909   9.757  0.00  0.00    +0.124 A 
ATOM      8  C   LIG    1       31.818 -17.602   9.242  0.00  0.00    -0.003 A 
ATOM      9  C   LIG    1       32.649 -16.718   9.949  0.00  0.00    +0.045 A 
ATOM     10  C   LIG    1       32.221 -16.187  11.162  0.00  0.00    +0.124 A 
ATOM     11  C   LIG    1       30.979 -16.511  11.686  0.00  0.00    +0.042 A 
ATOM     12  F   LIG    1       33.025 -15.348  11.831  0.00  0.00    -0.205 F 
ATOM     13  C   LIG    1       32.288 -18.186   7.944  0.00  0.00    +0.042 C 
ATOM     14  C   LIG    1       30.141 -17.380  10.982  0.00  0.00    +0.049 A 
ATOM     15  C   LIG    1       31.386 -19.326   7.496  0.00  0.00    +0.052 C 
ENDBRANCH   4   5
BRANCH   4  16
ATOM     16  O   LIG    1       29.530 -21.363   7.567  0.00  0.00    -0.387 OA
ATOM     17  H   LIG    1       30.297 -21.482   6.973  0.00  0.00    +0.210 HD
ENDBRANCH   4  16
ENDBRANCH   3   4
ENDBRANCH   1   3
BRANCH   1  18
ATOM     18  C   LIG    1       26.495 -20.306   6.561  0.00  0.00    +0.115 C 
BRANCH  18  19
ATOM     19  C   LIG    1       25.212 -21.142   6.301  0.00  0.00    +0.169 C 
BRANCH  19  20
ATOM     20  C   LIG    1       24.936 -22.160   7.446  0.00  0.00    +0.203 C 
ATOM     21  O   LIG    1       25.836 -23.278   7.363  0.00  0.00    -0.486 OA
ATOM     22  C   LIG    1       25.377 -24.438   6.803  0.00  0.00    +0.124 A 
ATOM     23  C   LIG    1       24.059 -24.644   6.390  0.00  0.00    -0.003 A 
ATOM     24  C   LIG    1       23.711 -25.871   5.801  0.00  0.00    +0.045 A 
ATOM     25  C   LIG    1       24.670 -26.867   5.662  0.00  0.00    +0.124 A 
ATOM     26  C   LIG    1       25.974 -26.674   6.089  0.00  0.00    +0.042 A 
ATOM     27  F   LIG    1       24.326 -28.039   5.105  0.00  0.00    -0.205 F 
ATOM     28  C   LIG    1       23.027 -23.568   6.541  0.00  0.00    +0.042 C 
ATOM     29  C   LIG    1       26.330 -25.450   6.661  0.00  0.00    +0.049 A 
ATOM     30  C   LIG    1       23.468 -22.574   7.603  0.00  0.00    +0.052 C 
ENDBRANCH  19  20
BRANCH  19  31
ATOM     31  O   LIG    1       25.342 -21.793   5.030  0.00  0.00    -0.387 OA
ATOM     32  H   LIG    1       24.570 -22.378   4.932  0.00  0.00    +0.210 HD
ENDBRANCH  19  31
ENDBRANCH  18  19
ENDBRANCH   1  18
TORSDOF 8
ENDMDL
MODEL 3
REMARK VINA RESULT:     -10.0      6.176      9.642
REMARK  Name = *****
REMARK                            x       y       z     vdW  Elec       q    Type
REMARK                         _______ _______ _______ _____ _____    ______ ____
ROOT
ATOM      1  N   LIG    1       25.990 -27.390   6.643  0.00  0.00    -0.311 NA
ATOM      2  H   LIG    1       26.105 -27.657   7.626  0.00  0.00    +0.122 HD
ENDROOT
BRANCH   1   3
ATOM      3  C   LIG    1       25.033 -26.264   6.524  0.00  0.00    +0.115 C 
BRANCH   3   4
ATOM      4  C   LIG    1       25.600 -25.133   5.627  0.00  0.00    +0.169 C 
BRANCH   4   5
ATOM      5  C   LIG    1       25.008 -23.739   5.955  0.00  0.00    +0.203 C 
ATOM      6  O   LIG    1       24.863 -22.991   4.734  0.00  0.00    -0.486 OA
ATOM      7  C   LIG    1       24.181 -21.807   4.861  0.00  0.00    +0.124 A 
ATOM      8  C   LIG    1       23.330 -21.518   5.934  0.00  0.00    -0.003 A 
ATOM      9  C   LIG    1       22.684 -20.272   5.980  0.00  0.00    +0.045 A 
ATOM     10  C   LIG    1       22.872 -19.358   4.948  0.00  0.00    +0.124 A 
ATOM     11  C   LIG    1       23.694 -19.653   3.871  0.00  0.00    +0.042 A 
ATOM     12  F   LIG    1       22.247 -18.172   4.999  0.00  0.00    -0.205 F 
ATOM     13  C   LIG    1       23.114 -22.508   7.039  0.00  0.00    +0.042 C 
ATOM     14  C   LIG    1       24.350 -20.886   3.824  0.00  0.00    +0.049 A 
ATOM     15  C   LIG    1       23.652 -23.880   6.661  0.00  0.00    +0.052 C 
ENDBRANCH   4   5
BRANCH   4  16
ATOM     16  O   LIG    1       25.340 -25.454   4.252  0.00  0.00    -0.387 OA
ATOM     17  H   LIG    1       25.829 -26.284   4.088  0.00  0.00    +0.210 HD
ENDBRANCH   4  16
ENDBRANCH   3   4
ENDBRANCH   1   3
BRANCH   1  18
ATOM     18  C   LIG    1       25.502 -28.583   5.911  0.00  0.00    +0.115 C 
BRANCH  18  19
ATOM     19  C   LIG    1       24.172 -29.123   6.503  0.00  0.00    +0.169 C 
BRANCH  19  20
ATOM     20  C   LIG    1       24.384 -30.438   7.310  0.00  0.00    +0.203 C 
ATOM     21  O   LIG    1       23.292 -30.662   8.219  0.00  0.00    -0.486 OA
ATOM     22  C   LIG    1       23.467 -30.333   9.534  0.00  0.00    +0.124 A 
ATOM     23  C   LIG    1       24.671 -29.882  10.078  0.00  0.00    -0.003 A 
ATOM     24  C   LIG    1       24.722 -29.547  11.442  0.00  0.00    +0.045 A 
ATOM     25  C   LIG    1       23.588 -29.694  12.232  0.00  0.00    +0.124 A 
ATOM     26  C   LIG    1       22.396 -30.161  11.700  0.00  0.00    +0.042 A 
ATOM     27  F   LIG    1       23.649 -29.379  13.535  0.00  0.00    -0.205 F 
ATOM     28  C   LIG    1       25.892 -29.724   9.224  0.00  0.00    +0.042 C 
ATOM     29  C   LIG    1       22.335 -30.480  10.341  0.00  0.00    +0.049 A 
ATOM     30  C   LIG    1       25.760 -30.576   7.972  0.00  0.00    +0.052 C 
ENDBRANCH  19  20
BRANCH  19  31
ATOM     31  O   LIG    1       23.235 -29.302   5.432  0.00  0.00    -0.387 OA
ATOM     32  H   LIG    1       22.348 -29.322   5.833  0.00  0.00    +0.210 HD
ENDBRANCH  19  31
ENDBRANCH  18  19
ENDBRANCH   1  18
TORSDOF 8
ENDMDL
MODEL 4
REMARK VINA RESULT:      -9.8      5.419      9.405
REMARK  Name = *****
REMARK                            x       y       z     vdW  Elec       q    Type
REMARK                         _______ _______ _______ _____ _____    ______ ____
ROOT
ATOM      1  N   LIG    1       23.250 -24.725   6.196  0.00  0.00    -0.311 NA
ATOM      2  H   LIG    1       22.404 -25.079   6.651  0.00  0.00    +0.122 HD
ENDROOT
BRANCH   1   3
ATOM      3  C   LIG    1       24.419 -25.562   6.558  0.00  0.00    +0.115 C 
BRANCH   3   4
ATOM      4  C   LIG    1       24.769 -26.564   5.426  0.00  0.00    +0.169 C 
BRANCH   4   5
ATOM      5  C   LIG    1       25.165 -27.966   5.952  0.00  0.00    +0.203 C 
ATOM      6  O   LIG    1       25.468 -27.872   7.355  0.00  0.00    -0.486 OA
ATOM      7  C   LIG    1       25.658 -29.076   7.985  0.00  0.00    +0.124 A 
ATOM      8  C   LIG    1       25.197 -30.295   7.475  0.00  0.00    -0.003 A 
ATOM      9  C   LIG    1       25.451 -31.478   8.190  0.00  0.00    +0.045 A 
ATOM     10  C   LIG    1       26.125 -31.419   9.406  0.00  0.00    +0.124 A 
ATOM     11  C   LIG    1       26.559 -30.209   9.926  0.00  0.00    +0.042 A 
ATOM     12  F   LIG    1       26.358 -32.553  10.083  0.00  0.00    -0.205 F 
ATOM     13  C   LIG    1       24.457 -30.360   6.173  0.00  0.00    +0.042 C 
ATOM     14  C   LIG    1       26.321 -29.030   9.214  0.00  0.00    +0.049 A 
ATOM     15  C   LIG    1       24.030 -28.972   5.715  0.00  0.00    +0.052 C 
ENDBRANCH   4   5
BRANCH   4  16
ATOM     16  O   LIG    1       25.844 -26.023   4.642  0.00  0.00    -0.387 OA
ATOM     17  H   LIG    1       26.659 -26.369   5.057  0.00  0.00    +0.210 HD
ENDBRANCH   4  16
ENDBRANCH   3   4
ENDBRANCH   1   3
BRANCH   1  18
ATOM     18  C   LIG    1       23.442 -23.324   6.640  0.00  0.00    +0.115 C 
BRANCH  18  19
ATOM     19  C   LIG    1       24.686 -22.671   5.978  0.00  0.00    +0.169 C 
BRANCH  19  20
ATOM     20  C   LIG    1       24.729 -21.132   6.205  0.00  0.00    +0.203 C 
ATOM     21  O   LIG    1       25.849 -20.544   5.522  0.00  0.00    -0.486 OA
ATOM     22  C   LIG    1       26.969 -20.250   6.248  0.00  0.00    +0.124 A 
ATOM     23  C   LIG    1       27.067 -20.392   7.634  0.00  0.00    -0.003 A 
ATOM     24  C   LIG    1       28.282 -20.084   8.268  0.00  0.00    +0.045 A 
ATOM     25  C   LIG    1       29.355 -19.618   7.517  0.00  0.00    +0.124 A 
ATOM     26  C   LIG    1       29.255 -19.456   6.145  0.00  0.00    +0.042 A 
ATOM     27  F   LIG    1       30.509 -19.319   8.134  0.00  0.00    -0.205 F 
ATOM     28  C   LIG    1       25.908 -20.894   8.441  0.00  0.00    +0.042 C 
ATOM     29  C   LIG    1       28.054 -19.776   5.506  0.00  0.00    +0.049 A 
ATOM     30  C   LIG    1       24.615 -20.691   7.670  0.00  0.00    +0.052 C 
ENDBRANCH  19  20
BRANCH  19  31
ATOM     31  O   LIG    1       24.686 -23.002   4.582  0.00  0.00    -0.387 OA
ATOM     32  H   LIG    1       25.608 -23.194   4.337  0.00  0.00    +0.210 HD
ENDBRANCH  19  31
ENDBRANCH  18  19
ENDBRANCH   1  18
TORSDOF 8
ENDMDL
MODEL 5
REMARK VINA RESULT:      -9.7      5.627      9.966
REMARK  Name = *****
REMARK                            x       y       z     vdW  Elec       q    Type
REMARK                         _______ _______ _______ _____ _____    ______ ____
ROOT
ATOM      1  N   LIG    1       23.224 -24.556   6.349  0.00  0.00    -0.311 NA
ATOM      2  H   LIG    1       22.621 -25.036   7.023  0.00  0.00    +0.122 HD
ENDROOT
BRANCH   1   3
ATOM      3  C   LIG    1       24.584 -25.145   6.363  0.00  0.00    +0.115 C 
BRANCH   3   4
ATOM      4  C   LIG    1       24.689 -26.350   5.392  0.00  0.00    +0.169 C 
BRANCH   4   5
ATOM      5  C   LIG    1       24.645 -27.721   6.114  0.00  0.00    +0.203 C 
ATOM      6  O   LIG    1       25.112 -28.741   5.211  0.00  0.00    -0.486 OA
ATOM      7  C   LIG    1       25.295 -29.975   5.783  0.00  0.00    +0.124 A 
ATOM      8  C   LIG    1       25.444 -30.173   7.161  0.00  0.00    -0.003 A 
ATOM      9  C   LIG    1       25.616 -31.478   7.651  0.00  0.00    +0.045 A 
ATOM     10  C   LIG    1       25.669 -32.548   6.763  0.00  0.00    +0.124 A 
ATOM     11  C   LIG    1       25.549 -32.351   5.396  0.00  0.00    +0.042 A 
ATOM     12  F   LIG    1       25.839 -33.790   7.241  0.00  0.00    -0.205 F 
ATOM     13  C   LIG    1       25.403 -29.020   8.118  0.00  0.00    +0.042 C 
ATOM     14  C   LIG    1       25.365 -31.056   4.902  0.00  0.00    +0.049 A 
ATOM     15  C   LIG    1       25.508 -27.692   7.382  0.00  0.00    +0.052 C 
ENDBRANCH   4   5
BRANCH   4  16
ATOM     16  O   LIG    1       25.908 -26.240   4.643  0.00  0.00    -0.387 OA
ATOM     17  H   LIG    1       26.374 -25.471   5.027  0.00  0.00    +0.210 HD
ENDBRANCH   4  16
ENDBRANCH   3   4
ENDBRANCH   1   3
BRANCH   1  18
ATOM     18  C   LIG    1       23.261 -23.123   6.725  0.00  0.00    +0.115 C 
BRANCH  18  19
ATOM     19  C   LIG    1       24.343 -22.342   5.929  0.00  0.00    +0.169 C 
BRANCH  19  20
ATOM     20  C   LIG    1       24.668 -20.967   6.580  0.00  0.00    +0.203 C 
ATOM     21  O   LIG    1       25.725 -20.301   5.868  0.00  0.00    -0.486 OA
ATOM     22  C   LIG    1       26.990 -20.360   6.383  0.00  0.00    +0.124 A 
ATOM     23  C   LIG    1       27.313 -20.944   7.609  0.00  0.00    -0.003 A 
ATOM     24  C   LIG    1       28.656 -20.970   8.022  0.00  0.00    +0.045 A 
ATOM     25  C   LIG    1       29.635 -20.393   7.222  0.00  0.00    +0.124 A 
ATOM     26  C   LIG    1       29.316 -19.794   6.014  0.00  0.00    +0.042 A 
ATOM     27  F   LIG    1       30.914 -20.416   7.629  0.00  0.00    -0.205 F 
ATOM     28  C   LIG    1       26.255 -21.565   8.470  0.00  0.00    +0.042 C 
ATOM     29  C   LIG    1       27.984 -19.779   5.591  0.00  0.00    +0.049 A 
ATOM     30  C   LIG    1       24.892 -21.006   8.097  0.00  0.00    +0.052 C 
ENDBRANCH  19  20
BRANCH  19  31
ATOM     31  O   LIG    1       23.895 -22.196   4.574  0.00  0.00    -0.387 OA
ATOM     32  H   LIG    1       24.431 -21.488   4.174  0.00  0.00    +0.210 HD
ENDBRANCH  19  31
ENDBRANCH  18  19
ENDBRANCH   1  18
TORSDOF 8
ENDMDL
MODEL 6
REMARK VINA RESULT:      -9.4      5.355      7.690
REMARK  Name = *****
REMARK                            x       y       z     vdW  Elec       q    Type
REMARK                         _______ _______ _______ _____ _____    ______ ____
ROOT
ATOM      1  N   LIG    1       24.046 -24.864   5.753  0.00  0.00    -0.311 NA
ATOM      2  H   LIG    1       23.380 -24.406   5.124  0.00  0.00    +0.122 HD
ENDROOT
BRANCH   1   3
ATOM      3  C   LIG    1       24.460 -23.934   6.830  0.00  0.00    +0.115 C 
BRANCH   3   4
ATOM      4  C   LIG    1       23.884 -22.512   6.602  0.00  0.00    +0.169 C 
BRANCH   4   5
ATOM      5  C   LIG    1       24.980 -21.422   6.476  0.00  0.00    +0.203 C 
ATOM      6  O   LIG    1       26.202 -21.919   7.051  0.00  0.00    -0.486 OA
ATOM      7  C   LIG    1       27.300 -21.123   6.844  0.00  0.00    +0.124 A 
ATOM      8  C   LIG    1       27.373 -20.156   5.834  0.00  0.00    -0.003 A 
ATOM      9  C   LIG    1       28.539 -19.382   5.709  0.00  0.00    +0.045 A 
ATOM     10  C   LIG    1       29.613 -19.607   6.564  0.00  0.00    +0.124 A 
ATOM     11  C   LIG    1       29.553 -20.583   7.547  0.00  0.00    +0.042 A 
ATOM     12  F   LIG    1       30.723 -18.867   6.433  0.00  0.00    -0.205 F 
ATOM     13  C   LIG    1       26.223 -19.921   4.902  0.00  0.00    +0.042 C 
ATOM     14  C   LIG    1       28.392 -21.349   7.686  0.00  0.00    +0.049 A 
ATOM     15  C   LIG    1       25.195 -21.040   5.006  0.00  0.00    +0.052 C 
ENDBRANCH   4   5
BRANCH   4  16
ATOM     16  O   LIG    1       23.004 -22.185   7.687  0.00  0.00    -0.387 OA
ATOM     17  H   LIG    1       23.531 -22.339   8.496  0.00  0.00    +0.210 HD
ENDBRANCH   4  16
ENDBRANCH   3   4
ENDBRANCH   1   3
BRANCH   1  18
ATOM     18  C   LIG    1       25.211 -25.287   4.939  0.00  0.00    +0.115 C 
BRANCH  18  19
ATOM     19  C   LIG    1       25.547 -26.789   5.145  0.00  0.00    +0.169 C 
BRANCH  19  20
ATOM     20  C   LIG    1       24.512 -27.499   6.066  0.00  0.00    +0.203 C 
ATOM     21  O   LIG    1       25.026 -27.639   7.401  0.00  0.00    -0.486 OA
ATOM     22  C   LIG    1       25.542 -28.850   7.772  0.00  0.00    +0.124 A 
ATOM     23  C   LIG    1       25.516 -29.994   6.972  0.00  0.00    -0.003 A 
ATOM     24  C   LIG    1       26.104 -31.176   7.450  0.00  0.00    +0.045 A 
ATOM     25  C   LIG    1       26.675 -31.200   8.717  0.00  0.00    +0.124 A 
ATOM     26  C   LIG    1       26.684 -30.072   9.523  0.00  0.00    +0.042 A 
ATOM     27  F   LIG    1       27.227 -32.337   9.168  0.00  0.00    -0.205 F 
ATOM     28  C   LIG    1       24.899 -29.965   5.606  0.00  0.00    +0.042 C 
ATOM     29  C   LIG    1       26.115 -28.889   9.046  0.00  0.00    +0.049 A 
ATOM     30  C   LIG    1       23.929 -28.800   5.501  0.00  0.00    +0.052 C 
ENDBRANCH  19  20
BRANCH  19  31
ATOM     31  O   LIG    1       26.879 -26.890   5.667  0.00  0.00    -0.387 OA
ATOM     32  H   LIG    1       27.136 -25.998   5.962  0.00  0.00    +0.210 HD
ENDBRANCH  19  31
ENDBRANCH  18  19
ENDBRANCH   1  18
TORSDOF 8
ENDMDL
MODEL 7
REMARK VINA RESULT:      -9.4      6.291      9.995
REMARK  Name = *****
REMARK                            x       y       z     vdW  Elec       q    Type
REMARK                         _______ _______ _______ _____ _____    ______ ____
ROOT
ATOM      1  N   LIG    1       23.779 -30.300   6.731  0.00  0.00    -0.311 NA
ATOM      2  H   LIG    1       24.173 -30.768   5.909  0.00  0.00    +0.122 HD
ENDROOT
BRANCH   1   3
ATOM      3  C   LIG    1       24.382 -28.956   6.898  0.00  0.00    +0.115 C 
BRANCH   3   4
ATOM      4  C   LIG    1       24.685 -28.299   5.525  0.00  0.00    +0.169 C 
BRANCH   4   5
ATOM      5  C   LIG    1       24.963 -26.777   5.625  0.00  0.00    +0.203 C 
ATOM      6  O   LIG    1       23.805 -26.124   6.176  0.00  0.00    -0.486 OA
ATOM      7  C   LIG    1       23.985 -24.799   6.487  0.00  0.00    +0.124 A 
ATOM      8  C   LIG    1       25.243 -24.214   6.673  0.00  0.00    -0.003 A 
ATOM      9  C   LIG    1       25.324 -22.846   6.978  0.00  0.00    +0.045 A 
ATOM     10  C   LIG    1       24.158 -22.100   7.122  0.00  0.00    +0.124 A 
ATOM     11  C   LIG    1       22.911 -22.684   6.964  0.00  0.00    +0.042 A 
ATOM     12  F   LIG    1       24.246 -20.795   7.419  0.00  0.00    -0.205 F 
ATOM     13  C   LIG    1       26.500 -25.019   6.534  0.00  0.00    +0.042 C 
ATOM     14  C   LIG    1       22.822 -24.042   6.648  0.00  0.00    +0.049 A 
ATOM     15  C   LIG    1       26.196 -26.510   6.499  0.00  0.00    +0.052 C 
ENDBRANCH   4   5
BRANCH   4  16
ATOM     16  O   LIG    1       23.575 -28.527   4.644  0.00  0.00    -0.387 OA
ATOM     17  H   LIG    1       23.958 -28.976   3.864  0.00  0.00    +0.210 HD
ENDBRANCH   4  16
ENDBRANCH   3   4
ENDBRANCH   1   3
BRANCH   1  18
ATOM     18  C   LIG    1       24.057 -31.157   7.908  0.00  0.00    +0.115 C 
BRANCH  18  19
ATOM     19  C   LIG    1       23.667 -30.458   9.239  0.00  0.00    +0.169 C 
BRANCH  19  20
ATOM     20  C   LIG    1       24.626 -30.842  10.404  0.00  0.00    +0.203 C 
ATOM     21  O   LIG    1       24.329 -30.078  11.585  0.00  0.00    -0.486 OA
ATOM     22  C   LIG    1       25.113 -28.994  11.868  0.00  0.00    +0.124 A 
ATOM     23  C   LIG    1       26.248 -28.633  11.140  0.00  0.00    -0.003 A 
ATOM     24  C   LIG    1       26.960 -27.480  11.511  0.00  0.00    +0.045 A 
ATOM     25  C   LIG    1       26.544 -26.734  12.607  0.00  0.00    +0.124 A 
ATOM     26  C   LIG    1       25.430 -27.101  13.345  0.00  0.00    +0.042 A 
ATOM     27  F   LIG    1       27.235 -25.638  12.958  0.00  0.00    -0.205 F 
ATOM     28  C   LIG    1       26.695 -29.440   9.959  0.00  0.00    +0.042 C 
ATOM     29  C   LIG    1       24.708 -28.238  12.972  0.00  0.00    +0.049 A 
ATOM     30  C   LIG    1       26.116 -30.842  10.042  0.00  0.00    +0.052 C 
ENDBRANCH  19  20
BRANCH  19  31
ATOM     31  O   LIG    1       22.304 -30.784   9.543  0.00  0.00    -0.387 OA
ATOM     32  H   LIG    1       21.851 -29.946   9.744  0.00  0.00    +0.210 HD
ENDBRANCH  19  31
ENDBRANCH  18  19
ENDBRANCH   1  18
TORSDOF 8
ENDMDL
MODEL 8
REMARK VINA RESULT:      -9.3      6.572      9.772
REMARK  Name = *****
REMARK                            x       y       z     vdW  Elec       q    Type
REMARK                         _______ _______ _______ _____ _____    ______ ____
ROOT
ATOM      1  N   LIG    1       25.593 -29.530   5.383  0.00  0.00    -0.311 NA
ATOM      2  H   LIG    1       26.520 -29.845   5.082  0.00  0.00    +0.122 HD
ENDROOT
BRANCH   1   3
ATOM      3  C   LIG    1       25.427 -28.082   5.112  0.00  0.00    +0.115 C 
BRANCH   3   4
ATOM      4  C   LIG    1       26.224 -27.222   6.128  0.00  0.00    +0.169 C 
BRANCH   4   5
ATOM      5  C   LIG    1       25.415 -26.019   6.677  0.00  0.00    +0.203 C 
ATOM      6  O   LIG    1       26.225 -24.832   6.594  0.00  0.00    -0.486 OA
ATOM      7  C   LIG    1       25.565 -23.664   6.879  0.00  0.00    +0.124 A 
ATOM      8  C   LIG    1       24.172 -23.534   6.836  0.00  0.00    -0.003 A 
ATOM      9  C   LIG    1       23.588 -22.297   7.156  0.00  0.00    +0.045 A 
ATOM     10  C   LIG    1       24.399 -21.213   7.478  0.00  0.00    +0.124 A 
ATOM     11  C   LIG    1       25.780 -21.332   7.494  0.00  0.00    +0.042 A 
ATOM     12  F   LIG    1       23.832 -20.035   7.776  0.00  0.00    -0.205 F 
ATOM     13  C   LIG    1       23.296 -24.696   6.475  0.00  0.00    +0.042 C 
ATOM     14  C   LIG    1       26.368 -22.563   7.190  0.00  0.00    +0.049 A 
ATOM     15  C   LIG    1       24.114 -25.836   5.884  0.00  0.00    +0.052 C 
ENDBRANCH   4   5
BRANCH   4  16
ATOM     16  O   LIG    1       27.423 -26.747   5.498  0.00  0.00    -0.387 OA
ATOM     17  H   LIG    1       27.290 -26.913   4.543  0.00  0.00    +0.210 HD
ENDBRANCH   4  16
ENDBRANCH   3   4
ENDBRANCH   1   3
BRANCH   1  18
ATOM     18  C   LIG    1       25.473 -29.817   6.833  0.00  0.00    +0.115 C 
BRANCH  18  19
ATOM     19  C   LIG    1       24.030 -30.237   7.224  0.00  0.00    +0.169 C 
BRANCH  19  20
ATOM     20  C   LIG    1       24.018 -31.269   8.389  0.00  0.00    +0.203 C 
ATOM     21  O   LIG    1       22.700 -31.392   8.950  0.00  0.00    -0.486 OA
ATOM     22  C   LIG    1       22.426 -30.723  10.110  0.00  0.00    +0.124 A 
ATOM     23  C   LIG    1       23.370 -30.004  10.845  0.00  0.00    -0.003 A 
ATOM     24  C   LIG    1       22.963 -29.333  12.010  0.00  0.00    +0.045 A 
ATOM     25  C   LIG    1       21.641 -29.417  12.429  0.00  0.00    +0.124 A 
ATOM     26  C   LIG    1       20.705 -30.147  11.715  0.00  0.00    +0.042 A 
ATOM     27  F   LIG    1       21.264 -28.779  13.549  0.00  0.00    -0.205 F 
ATOM     28  C   LIG    1       24.796 -29.915  10.391  0.00  0.00    +0.042 C 
ATOM     29  C   LIG    1       21.100 -30.803  10.546  0.00  0.00    +0.049 A 
ATOM     30  C   LIG    1       25.109 -31.064   9.447  0.00  0.00    +0.052 C 
ENDBRANCH  19  20
BRANCH  19  31
ATOM     31  O   LIG    1       23.371 -30.745   6.055  0.00  0.00    -0.387 OA
ATOM     32  H   LIG    1       23.583 -30.138   5.325  0.00  0.00    +0.210 HD
ENDBRANCH  19  31
ENDBRANCH  18  19
ENDBRANCH   1  18
TORSDOF 8
ENDMDL
MODEL 9
REMARK VINA RESULT:      -9.2      5.279      9.001
REMARK  Name = *****
REMARK                            x       y       z     vdW  Elec       q    Type
REMARK                         _______ _______ _______ _____ _____    ______ ____
ROOT
ATOM      1  N   LIG    1       26.191 -24.610   5.761  0.00  0.00    -0.311 NA
ATOM      2  H   LIG    1       27.091 -25.099   5.735  0.00  0.00    +0.122 HD
ENDROOT
BRANCH   1   3
ATOM      3  C   LIG    1       25.825 -24.278   7.159  0.00  0.00    +0.115 C 
BRANCH   3   4
ATOM      4  C   LIG    1       26.314 -22.858   7.549  0.00  0.00    +0.169 C 
BRANCH   4   5
ATOM      5  C   LIG    1       25.303 -21.742   7.183  0.00  0.00    +0.203 C 
ATOM      6  O   LIG    1       25.489 -21.376   5.803  0.00  0.00    -0.486 OA
ATOM      7  C   LIG    1       24.536 -20.526   5.300  0.00  0.00    +0.124 A 
ATOM      8  C   LIG    1       23.276 -20.348   5.882  0.00  0.00    -0.003 A 
ATOM      9  C   LIG    1       22.372 -19.445   5.298  0.00  0.00    +0.045 A 
ATOM     10  C   LIG    1       22.728 -18.766   4.136  0.00  0.00    +0.124 A 
ATOM     11  C   LIG    1       23.965 -18.962   3.543  0.00  0.00    +0.042 A 
ATOM     12  F   LIG    1       21.855 -17.911   3.583  0.00  0.00    -0.205 F 
ATOM     13  C   LIG    1       22.885 -21.089   7.125  0.00  0.00    +0.042 C 
ATOM     14  C   LIG    1       24.874 -19.849   4.126  0.00  0.00    +0.049 A 
ATOM     15  C   LIG    1       23.864 -22.216   7.423  0.00  0.00    +0.052 C 
ENDBRANCH   4   5
BRANCH   4  16
ATOM     16  O   LIG    1       27.569 -22.603   6.900  0.00  0.00    -0.387 OA
ATOM     17  H   LIG    1       27.461 -21.728   6.475  0.00  0.00    +0.210 HD
ENDBRANCH   4  16
ENDBRANCH   3   4
ENDBRANCH   1   3
BRANCH   1  18
ATOM     18  C   LIG    1       25.180 -25.502   5.144  0.00  0.00    +0.115 C 
BRANCH  18  19
ATOM     19  C   LIG    1       25.544 -27.001   5.324  0.00  0.00    +0.169 C 
BRANCH  19  20
ATOM     20  C   LIG    1       24.530 -27.742   6.244  0.00  0.00    +0.203 C 
ATOM     21  O   LIG    1       25.074 -27.923   7.563  0.00  0.00    -0.486 OA
ATOM     22  C   LIG    1       25.600 -29.143   7.883  0.00  0.00    +0.124 A 
ATOM     23  C   LIG    1       25.559 -30.261   7.048  0.00  0.00    -0.003 A 
ATOM     24  C   LIG    1       26.160 -31.457   7.476  0.00  0.00    +0.045 A 
ATOM     25  C   LIG    1       26.759 -31.519   8.728  0.00  0.00    +0.124 A 
ATOM     26  C   LIG    1       26.784 -30.418   9.569  0.00  0.00    +0.042 A 
ATOM     27  F   LIG    1       27.323 -32.669   9.131  0.00  0.00    -0.205 F 
ATOM     28  C   LIG    1       24.912 -30.192   5.698  0.00  0.00    +0.042 C 
ATOM     29  C   LIG    1       26.202 -29.221   9.142  0.00  0.00    +0.049 A 
ATOM     30  C   LIG    1       23.938 -29.027   5.652  0.00  0.00    +0.052 C 
ENDBRANCH  19  20
BRANCH  19  31
ATOM     31  O   LIG    1       26.883 -27.088   5.830  0.00  0.00    -0.387 OA
ATOM     32  H   LIG    1       27.185 -26.176   5.989  0.00  0.00    +0.210 HD
ENDBRANCH  19  31
ENDBRANCH  18  19
ENDBRANCH   1  18
TORSDOF 8
ENDMDL
