MODEL 1
REMARK VINA RESULT:      -6.4      0.000      0.000
REMARK  Name = *****
REMARK                            x       y       z     vdW  Elec       q    Type
REMARK                         _______ _______ _______ _____ _____    ______ ____
ROOT
ATOM      1  C   LIG    1       22.833 -20.614   5.024  0.00  0.00    +0.084 C 
ATOM      2  C   LIG    1       22.462 -21.572   6.177  0.00  0.00    +0.027 C 
ENDROOT
BRANCH   1   3
ATOM      3  N   LIG    1       22.689 -19.251   5.506  0.00  0.00    -0.308 NA
ATOM      4  H   LIG    1       23.088 -19.003   6.402  0.00  0.00    +0.122 HD
BRANCH   3   6
ATOM      5  C   LIG    1       21.224 -18.958   3.716  0.00  0.00    +0.024 C 
ATOM      6  C   LIG    1       22.041 -18.192   4.731  0.00  0.00    +0.051 C 
BRANCH   6   7
ATOM      7  C   LIG    1       23.055 -17.181   4.076  0.00  0.00    +0.023 C 
BRANCH   7   8
ATOM      8  C   LIG    1       23.226 -15.693   4.517  0.00  0.00    +0.036 C 
BRANCH   8   9
ATOM      9  C   LIG    1       24.217 -14.718   3.870  0.00  0.00    -0.047 A 
ATOM     10  C   LIG    1       23.839 -13.506   3.326  0.00  0.00    +0.003 A 
ATOM     11  C   LIG    1       24.803 -12.672   2.690  0.00  0.00    +0.000 A 
ATOM     12  C   LIG    1       26.138 -13.068   2.554  0.00  0.00    +0.000 A 
ATOM     13  C   LIG    1       26.497 -14.281   3.054  0.00  0.00    +0.000 A 
ATOM     14  C   LIG    1       25.585 -15.017   3.724  0.00  0.00    +0.003 A 
ENDBRANCH   8   9
ENDBRANCH   7   8
ENDBRANCH   6   7
ENDBRANCH   3   6
ENDBRANCH   1   3
BRANCH   1  15
ATOM     15  C   LIG    1       24.261 -21.046   4.457  0.00  0.00    +0.161 C 
BRANCH  15  16
ATOM     16  C   LIG    1       25.549 -20.667   5.197  0.00  0.00    -0.018 A 
ATOM     17  C   LIG    1       26.450 -19.711   4.676  0.00  0.00    +0.010 A 
ATOM     18  C   LIG    1       27.672 -19.425   5.299  0.00  0.00    +0.046 A 
ATOM     19  C   LIG    1       28.020 -20.090   6.462  0.00  0.00    +0.117 A 
ATOM     20  C   LIG    1       27.178 -21.060   6.990  0.00  0.00    +0.046 A 
ATOM     21  C   LIG    1       25.958 -21.352   6.357  0.00  0.00    +0.010 A 
BRANCH  19  22
ATOM     22  O   LIG    1       29.199 -19.757   7.062  0.00  0.00    -0.507 OA
ATOM     23  H   LIG    1       29.590 -19.008   6.584  0.00  0.00    +0.292 HD
ENDBRANCH  19  22
ENDBRANCH  15  16
BRANCH  15  24
ATOM     24  O   LIG    1       24.400 -20.550   3.107  0.00  0.00    -0.386 OA
ATOM     25  H   LIG    1       24.455 -21.296   2.490  0.00  0.00    +0.210 HD
ENDBRANCH  15  24
ENDBRANCH   1  15
TORSDOF 9
ENDMDL
MODEL 2
REMARK VINA RESULT:      -6.1      2.062      4.617
REMARK  Name = *****
REMARK                            x       y       z     vdW  Elec       q    Type
REMARK                         _______ _______ _______ _____ _____    ______ ____
ROOT
ATOM      1  C   LIG    1       27.163 -20.034   6.099  0.00  0.00    +0.084 C 
ATOM      2  C   LIG    1       28.091 -20.840   7.034  0.00  0.00    +0.027 C 
ENDROOT
BRANCH   1   3
ATOM      3  N   LIG    1       27.944 -19.597   4.955  0.00  0.00    -0.308 NA
ATOM      4  H   LIG    1       27.879 -20.117   4.089  0.00  0.00    +0.122 HD
BRANCH   3   6
ATOM      5  C   LIG    1       29.475 -18.479   6.311  0.00  0.00    +0.024 C 
ATOM      6  C   LIG    1       28.785 -18.399   4.969  0.00  0.00    +0.051 C 
BRANCH   6   7
ATOM      7  C   LIG    1       27.978 -17.062   4.765  0.00  0.00    +0.023 C 
BRANCH   7   8
ATOM      8  C   LIG    1       27.007 -16.792   3.572  0.00  0.00    +0.036 C 
BRANCH   8   9
ATOM      9  C   LIG    1       26.295 -15.455   3.335  0.00  0.00    -0.047 A 
ATOM     10  C   LIG    1       26.914 -14.358   2.771  0.00  0.00    +0.003 A 
ATOM     11  C   LIG    1       26.209 -13.128   2.630  0.00  0.00    +0.000 A 
ATOM     12  C   LIG    1       24.899 -12.977   3.097  0.00  0.00    +0.000 A 
ATOM     13  C   LIG    1       24.307 -14.048   3.691  0.00  0.00    +0.000 A 
ATOM     14  C   LIG    1       24.965 -15.226   3.739  0.00  0.00    +0.003 A 
ENDBRANCH   8   9
ENDBRANCH   7   8
ENDBRANCH   6   7
ENDBRANCH   3   6
ENDBRANCH   1   3
BRANCH   1  15
ATOM     15  C   LIG    1       25.863 -20.912   5.810  0.00  0.00    +0.161 C 
BRANCH  15  16
ATOM     16  C   LIG    1       24.599 -20.276   5.218  0.00  0.00    -0.018 A 
ATOM     17  C   LIG    1       24.662 -19.368   4.138  0.00  0.00    +0.010 A 
ATOM     18  C   LIG    1       23.522 -18.713   3.651  0.00  0.00    +0.046 A 
ATOM     19  C   LIG    1       22.291 -18.955   4.235  0.00  0.00    +0.117 A 
ATOM     20  C   LIG    1       22.190 -19.817   5.320  0.00  0.00    +0.046 A 
ATOM     21  C   LIG    1       23.337 -20.463   5.812  0.00  0.00    +0.010 A 
BRANCH  19  22
ATOM     22  O   LIG    1       21.199 -18.330   3.709  0.00  0.00    -0.507 OA
ATOM     23  H   LIG    1       21.143 -18.545   2.765  0.00  0.00    +0.292 HD
ENDBRANCH  19  22
ENDBRANCH  15  16
BRANCH  15  24
ATOM     24  O   LIG    1       25.459 -21.570   7.032  0.00  0.00    -0.386 OA
ATOM     25  H   LIG    1       26.142 -21.448   7.708  0.00  0.00    +0.210 HD
ENDBRANCH  15  24
ENDBRANCH   1  15
TORSDOF 9
ENDMDL
MODEL 3
REMARK VINA RESULT:      -5.7      1.477      2.491
REMARK  Name = *****
REMARK                            x       y       z     vdW  Elec       q    Type
REMARK                         _______ _______ _______ _____ _____    ______ ____
ROOT
ATOM      1  C   LIG    1       22.104 -18.906   4.189  0.00  0.00    +0.084 C 
ATOM      2  C   LIG    1       20.662 -19.113   3.676  0.00  0.00    +0.027 C 
ENDROOT
BRANCH   1   3
ATOM      3  N   LIG    1       22.216 -17.544   4.684  0.00  0.00    -0.308 NA
ATOM      4  H   LIG    1       21.782 -17.306   5.566  0.00  0.00    +0.122 HD
BRANCH   3   6
ATOM      5  C   LIG    1       24.300 -17.177   3.708  0.00  0.00    +0.024 C 
ATOM      6  C   LIG    1       22.979 -16.502   3.996  0.00  0.00    +0.051 C 
BRANCH   6   7
ATOM      7  C   LIG    1       23.128 -15.176   4.832  0.00  0.00    +0.023 C 
BRANCH   7   8
ATOM      8  C   LIG    1       23.793 -13.868   4.299  0.00  0.00    +0.036 C 
BRANCH   8   9
ATOM      9  C   LIG    1       25.297 -13.715   4.044  0.00  0.00    -0.047 A 
ATOM     10  C   LIG    1       25.876 -13.896   2.804  0.00  0.00    +0.003 A 
ATOM     11  C   LIG    1       27.288 -13.793   2.648  0.00  0.00    +0.000 A 
ATOM     12  C   LIG    1       28.130 -13.556   3.740  0.00  0.00    +0.000 A 
ATOM     13  C   LIG    1       27.560 -13.421   4.967  0.00  0.00    +0.000 A 
ATOM     14  C   LIG    1       26.214 -13.440   5.077  0.00  0.00    +0.003 A 
ENDBRANCH   8   9
ENDBRANCH   7   8
ENDBRANCH   6   7
ENDBRANCH   3   6
ENDBRANCH   1   3
BRANCH   1  15
ATOM     15  C   LIG    1       22.446 -20.088   5.205  0.00  0.00    +0.161 C 
BRANCH  15  16
ATOM     16  C   LIG    1       23.900 -20.456   5.524  0.00  0.00    -0.018 A 
ATOM     17  C   LIG    1       24.251 -21.121   6.720  0.00  0.00    +0.010 A 
ATOM     18  C   LIG    1       25.586 -21.379   7.061  0.00  0.00    +0.046 A 
ATOM     19  C   LIG    1       26.601 -20.979   6.209  0.00  0.00    +0.117 A 
ATOM     20  C   LIG    1       26.300 -20.294   5.039  0.00  0.00    +0.046 A 
ATOM     21  C   LIG    1       24.961 -20.027   4.706  0.00  0.00    +0.010 A 
BRANCH  19  22
ATOM     22  O   LIG    1       27.884 -21.283   6.555  0.00  0.00    -0.507 OA
ATOM     23  H   LIG    1       28.466 -20.568   6.251  0.00  0.00    +0.292 HD
ENDBRANCH  19  22
ENDBRANCH  15  16
BRANCH  15  24
ATOM     24  O   LIG    1       21.805 -21.300   4.748  0.00  0.00    -0.386 OA
ATOM     25  H   LIG    1       21.264 -21.671   5.461  0.00  0.00    +0.210 HD
ENDBRANCH  15  24
ENDBRANCH   1  15
TORSDOF 9
ENDMDL
MODEL 4
REMARK VINA RESULT:      -4.4      2.449      6.270
REMARK  Name = *****
REMARK                            x       y       z     vdW  Elec       q    Type
REMARK                         _______ _______ _______ _____ _____    ______ ____
ROOT
ATOM      1  C   LIG    1       23.142 -15.853   4.846  0.00  0.00    +0.084 C 
ATOM      2  C   LIG    1       22.604 -14.829   5.870  0.00  0.00    +0.027 C 
ENDROOT
BRANCH   1   3
ATOM      3  N   LIG    1       22.052 -16.744   4.485  0.00  0.00    -0.308 NA
ATOM      4  H   LIG    1       21.111 -16.376   4.446  0.00  0.00    +0.122 HD
BRANCH   3   6
ATOM      5  C   LIG    1       20.945 -18.518   3.455  0.00  0.00    +0.024 C 
ATOM      6  C   LIG    1       22.252 -18.145   4.116  0.00  0.00    +0.051 C 
BRANCH   6   7
ATOM      7  C   LIG    1       22.617 -19.072   5.336  0.00  0.00    +0.023 C 
BRANCH   7   8
ATOM      8  C   LIG    1       23.465 -20.379   5.229  0.00  0.00    +0.036 C 
BRANCH   8   9
ATOM      9  C   LIG    1       24.950 -20.468   5.600  0.00  0.00    -0.047 A 
ATOM     10  C   LIG    1       25.406 -21.078   6.751  0.00  0.00    +0.003 A 
ATOM     11  C   LIG    1       26.797 -21.076   7.062  0.00  0.00    +0.000 A 
ATOM     12  C   LIG    1       27.729 -20.424   6.248  0.00  0.00    +0.000 A 
ATOM     13  C   LIG    1       27.269 -19.788   5.136  0.00  0.00    +0.000 A 
ATOM     14  C   LIG    1       25.960 -19.873   4.819  0.00  0.00    +0.003 A 
ENDBRANCH   8   9
ENDBRANCH   7   8
ENDBRANCH   6   7
ENDBRANCH   3   6
ENDBRANCH   1   3
BRANCH   1  15
ATOM     15  C   LIG    1       23.857 -15.051   3.667  0.00  0.00    +0.161 C 
BRANCH  15  16
ATOM     16  C   LIG    1       25.285 -14.515   3.832  0.00  0.00    -0.018 A 
ATOM     17  C   LIG    1       25.654 -13.717   4.938  0.00  0.00    +0.010 A 
ATOM     18  C   LIG    1       26.930 -13.149   5.050  0.00  0.00    +0.046 A 
ATOM     19  C   LIG    1       27.868 -13.369   4.056  0.00  0.00    +0.117 A 
ATOM     20  C   LIG    1       27.535 -14.120   2.936  0.00  0.00    +0.046 A 
ATOM     21  C   LIG    1       26.251 -14.680   2.823  0.00  0.00    +0.010 A 
BRANCH  19  22
ATOM     22  O   LIG    1       29.111 -12.833   4.219  0.00  0.00    -0.507 OA
ATOM     23  H   LIG    1       29.661 -13.086   3.461  0.00  0.00    +0.292 HD
ENDBRANCH  19  22
ENDBRANCH  15  16
BRANCH  15  24
ATOM     24  O   LIG    1       23.033 -13.921   3.301  0.00  0.00    -0.386 OA
ATOM     25  H   LIG    1       22.870 -13.933   2.346  0.00  0.00    +0.210 HD
ENDBRANCH  15  24
ENDBRANCH   1  15
TORSDOF 9
ENDMDL
MODEL 5
REMARK VINA RESULT:      -4.0      1.992      4.847
REMARK  Name = *****
REMARK                            x       y       z     vdW  Elec       q    Type
REMARK                         _______ _______ _______ _____ _____    ______ ____
ROOT
ATOM      1  C   LIG    1       24.744 -21.394   5.104  0.00  0.00    +0.084 C 
ATOM      2  C   LIG    1       24.589 -21.411   3.567  0.00  0.00    +0.027 C 
ENDROOT
BRANCH   1   3
ATOM      3  N   LIG    1       25.801 -20.455   5.441  0.00  0.00    -0.308 NA
ATOM      4  H   LIG    1       26.075 -20.352   6.409  0.00  0.00    +0.122 HD
BRANCH   3   6
ATOM      5  C   LIG    1       27.816 -19.320   5.155  0.00  0.00    +0.024 C 
ATOM      6  C   LIG    1       26.537 -19.686   4.438  0.00  0.00    +0.051 C 
BRANCH   6   7
ATOM      7  C   LIG    1       25.747 -18.434   3.901  0.00  0.00    +0.023 C 
BRANCH   7   8
ATOM      8  C   LIG    1       26.419 -17.144   3.333  0.00  0.00    +0.036 C 
BRANCH   8   9
ATOM      9  C   LIG    1       25.785 -15.750   3.394  0.00  0.00    -0.047 A 
ATOM     10  C   LIG    1       26.435 -14.604   2.982  0.00  0.00    +0.003 A 
ATOM     11  C   LIG    1       25.807 -13.333   3.119  0.00  0.00    +0.000 A 
ATOM     12  C   LIG    1       24.547 -13.198   3.711  0.00  0.00    +0.000 A 
ATOM     13  C   LIG    1       23.927 -14.325   4.154  0.00  0.00    +0.000 A 
ATOM     14  C   LIG    1       24.506 -15.526   3.939  0.00  0.00    +0.003 A 
ENDBRANCH   8   9
ENDBRANCH   7   8
ENDBRANCH   6   7
ENDBRANCH   3   6
ENDBRANCH   1   3
BRANCH   1  15
ATOM     15  C   LIG    1       23.305 -21.144   5.748  0.00  0.00    +0.161 C 
BRANCH  15  16
ATOM     16  C   LIG    1       22.256 -20.292   5.023  0.00  0.00    -0.018 A 
ATOM     17  C   LIG    1       21.092 -20.866   4.465  0.00  0.00    +0.010 A 
ATOM     18  C   LIG    1       20.175 -20.109   3.723  0.00  0.00    +0.046 A 
ATOM     19  C   LIG    1       20.403 -18.758   3.523  0.00  0.00    +0.117 A 
ATOM     20  C   LIG    1       21.552 -18.163   4.027  0.00  0.00    +0.046 A 
ATOM     21  C   LIG    1       22.474 -18.927   4.761  0.00  0.00    +0.010 A 
BRANCH  19  22
ATOM     22  O   LIG    1       19.468 -18.047   2.830  0.00  0.00    -0.507 OA
ATOM     23  H   LIG    1       18.754 -18.648   2.565  0.00  0.00    +0.292 HD
ENDBRANCH  19  22
ENDBRANCH  15  16
BRANCH  15  24
ATOM     24  O   LIG    1       23.473 -20.563   7.060  0.00  0.00    -0.386 OA
ATOM     25  H   LIG    1       22.936 -19.759   7.131  0.00  0.00    +0.210 HD
ENDBRANCH  15  24
ENDBRANCH   1  15
TORSDOF 9
ENDMDL
MODEL 6
REMARK VINA RESULT:      -4.0      2.079      5.448
REMARK  Name = *****
REMARK                            x       y       z     vdW  Elec       q    Type
REMARK                         _______ _______ _______ _____ _____    ______ ____
ROOT
ATOM      1  C   LIG    1       25.867 -14.857   3.624  0.00  0.00    +0.084 C 
ATOM      2  C   LIG    1       25.725 -13.850   2.461  0.00  0.00    +0.027 C 
ENDROOT
BRANCH   1   3
ATOM      3  N   LIG    1       24.656 -15.659   3.676  0.00  0.00    -0.308 NA
ATOM      4  H   LIG    1       24.701 -16.633   3.407  0.00  0.00    +0.122 HD
BRANCH   3   6
ATOM      5  C   LIG    1       23.774 -13.942   4.983  0.00  0.00    +0.024 C 
ATOM      6  C   LIG    1       23.374 -15.143   4.156  0.00  0.00    +0.051 C 
BRANCH   6   7
ATOM      7  C   LIG    1       22.534 -16.200   4.965  0.00  0.00    +0.023 C 
BRANCH   7   8
ATOM      8  C   LIG    1       21.998 -17.542   4.372  0.00  0.00    +0.036 C 
BRANCH   8   9
ATOM      9  C   LIG    1       22.719 -18.888   4.512  0.00  0.00    -0.047 A 
ATOM     10  C   LIG    1       23.410 -19.487   3.478  0.00  0.00    +0.003 A 
ATOM     11  C   LIG    1       24.010 -20.766   3.661  0.00  0.00    +0.000 A 
ATOM     12  C   LIG    1       23.880 -21.471   4.862  0.00  0.00    +0.000 A 
ATOM     13  C   LIG    1       23.162 -20.896   5.864  0.00  0.00    +0.000 A 
ATOM     14  C   LIG    1       22.674 -19.649   5.696  0.00  0.00    +0.003 A 
ENDBRANCH   8   9
ENDBRANCH   7   8
ENDBRANCH   6   7
ENDBRANCH   3   6
ENDBRANCH   1   3
BRANCH   1  15
ATOM     15  C   LIG    1       27.253 -15.628   3.449  0.00  0.00    +0.161 C 
BRANCH  15  16
ATOM     16  C   LIG    1       27.501 -16.970   4.149  0.00  0.00    -0.018 A 
ATOM     17  C   LIG    1       28.679 -17.213   4.890  0.00  0.00    +0.010 A 
ATOM     18  C   LIG    1       28.954 -18.465   5.456  0.00  0.00    +0.046 A 
ATOM     19  C   LIG    1       28.053 -19.504   5.294  0.00  0.00    +0.117 A 
ATOM     20  C   LIG    1       26.899 -19.316   4.545  0.00  0.00    +0.046 A 
ATOM     21  C   LIG    1       26.631 -18.062   3.970  0.00  0.00    +0.010 A 
BRANCH  19  22
ATOM     22  O   LIG    1       28.337 -20.696   5.892  0.00  0.00    -0.507 OA
ATOM     23  H   LIG    1       28.336 -21.392   5.215  0.00  0.00    +0.292 HD
ENDBRANCH  19  22
ENDBRANCH  15  16
BRANCH  15  24
ATOM     24  O   LIG    1       28.331 -14.751   3.846  0.00  0.00    -0.386 OA
ATOM     25  H   LIG    1       28.125 -14.349   4.703  0.00  0.00    +0.210 HD
ENDBRANCH  15  24
ENDBRANCH   1  15
TORSDOF 9
ENDMDL
MODEL 7
REMARK VINA RESULT:      -3.9      2.725      6.318
REMARK  Name = *****
REMARK                            x       y       z     vdW  Elec       q    Type
REMARK                         _______ _______ _______ _____ _____    ______ ____
ROOT
ATOM      1  C   LIG    1       24.684 -12.744   2.861  0.00  0.00    +0.084 C 
ATOM      2  C   LIG    1       24.291 -11.675   1.818  0.00  0.00    +0.027 C 
ENDROOT
BRANCH   1   3
ATOM      3  N   LIG    1       23.568 -13.663   3.006  0.00  0.00    -0.308 NA
ATOM      4  H   LIG    1       23.061 -13.953   2.180  0.00  0.00    +0.122 HD
BRANCH   3   6
ATOM      5  C   LIG    1       23.893 -13.379   5.297  0.00  0.00    +0.024 C 
ATOM      6  C   LIG    1       23.170 -14.243   4.289  0.00  0.00    +0.051 C 
BRANCH   6   7
ATOM      7  C   LIG    1       23.518 -15.774   4.422  0.00  0.00    +0.023 C 
BRANCH   7   8
ATOM      8  C   LIG    1       22.461 -16.923   4.401  0.00  0.00    +0.036 C 
BRANCH   8   9
ATOM      9  C   LIG    1       22.817 -18.414   4.414  0.00  0.00    -0.047 A 
ATOM     10  C   LIG    1       22.282 -19.311   5.316  0.00  0.00    +0.003 A 
ATOM     11  C   LIG    1       22.700 -20.673   5.309  0.00  0.00    +0.000 A 
ATOM     12  C   LIG    1       23.689 -21.132   4.431  0.00  0.00    +0.000 A 
ATOM     13  C   LIG    1       24.244 -20.234   3.573  0.00  0.00    +0.000 A 
ATOM     14  C   LIG    1       23.774 -18.969   3.542  0.00  0.00    +0.003 A 
ENDBRANCH   8   9
ENDBRANCH   7   8
ENDBRANCH   6   7
ENDBRANCH   3   6
ENDBRANCH   1   3
BRANCH   1  15
ATOM     15  C   LIG    1       26.094 -13.360   2.437  0.00  0.00    +0.161 C 
BRANCH  15  16
ATOM     16  C   LIG    1       26.635 -14.626   3.112  0.00  0.00    -0.018 A 
ATOM     17  C   LIG    1       27.739 -14.582   3.993  0.00  0.00    +0.010 A 
ATOM     18  C   LIG    1       28.296 -15.745   4.542  0.00  0.00    +0.046 A 
ATOM     19  C   LIG    1       27.758 -16.980   4.223  0.00  0.00    +0.117 A 
ATOM     20  C   LIG    1       26.693 -17.069   3.336  0.00  0.00    +0.046 A 
ATOM     21  C   LIG    1       26.144 -15.902   2.778  0.00  0.00    +0.010 A 
BRANCH  19  22
ATOM     22  O   LIG    1       28.301 -18.086   4.808  0.00  0.00    -0.507 OA
ATOM     23  H   LIG    1       29.098 -17.820   5.294  0.00  0.00    +0.292 HD
ENDBRANCH  19  22
ENDBRANCH  15  16
BRANCH  15  24
ATOM     24  O   LIG    1       27.113 -12.346   2.586  0.00  0.00    -0.386 OA
ATOM     25  H   LIG    1       27.974 -12.768   2.725  0.00  0.00    +0.210 HD
ENDBRANCH  15  24
ENDBRANCH   1  15
TORSDOF 9
ENDMDL
MODEL 8
REMARK VINA RESULT:      -3.9      2.273      6.205
REMARK  Name = *****
REMARK                            x       y       z     vdW  Elec       q    Type
REMARK                         _______ _______ _______ _____ _____    ______ ____
ROOT
ATOM      1  C   LIG    1       22.700 -17.669   3.900  0.00  0.00    +0.084 C 
ATOM      2  C   LIG    1       24.099 -18.133   3.437  0.00  0.00    +0.027 C 
ENDROOT
BRANCH   1   3
ATOM      3  N   LIG    1       22.236 -18.590   4.923  0.00  0.00    -0.308 NA
ATOM      4  H   LIG    1       21.455 -18.321   5.507  0.00  0.00    +0.122 HD
BRANCH   3   6
ATOM      5  C   LIG    1       21.659 -20.843   4.762  0.00  0.00    +0.024 C 
ATOM      6  C   LIG    1       22.805 -19.924   5.117  0.00  0.00    +0.051 C 
BRANCH   6   7
ATOM      7  C   LIG    1       23.365 -20.163   6.570  0.00  0.00    +0.023 C 
BRANCH   7   8
ATOM      8  C   LIG    1       24.562 -21.107   6.910  0.00  0.00    +0.036 C 
BRANCH   8   9
ATOM      9  C   LIG    1       26.010 -20.839   6.485  0.00  0.00    -0.047 A 
ATOM     10  C   LIG    1       27.094 -21.489   7.040  0.00  0.00    +0.003 A 
ATOM     11  C   LIG    1       28.418 -21.151   6.638  0.00  0.00    +0.000 A 
ATOM     12  C   LIG    1       28.665 -20.130   5.715  0.00  0.00    +0.000 A 
ATOM     13  C   LIG    1       27.596 -19.462   5.202  0.00  0.00    +0.000 A 
ATOM     14  C   LIG    1       26.349 -19.855   5.536  0.00  0.00    +0.003 A 
ENDBRANCH   8   9
ENDBRANCH   7   8
ENDBRANCH   6   7
ENDBRANCH   3   6
ENDBRANCH   1   3
BRANCH   1  15
ATOM     15  C   LIG    1       22.790 -16.124   4.287  0.00  0.00    +0.161 C 
BRANCH  15  16
ATOM     16  C   LIG    1       24.021 -15.289   3.913  0.00  0.00    -0.018 A 
ATOM     17  C   LIG    1       25.287 -15.884   3.710  0.00  0.00    +0.010 A 
ATOM     18  C   LIG    1       26.434 -15.120   3.458  0.00  0.00    +0.046 A 
ATOM     19  C   LIG    1       26.340 -13.740   3.402  0.00  0.00    +0.117 A 
ATOM     20  C   LIG    1       25.121 -13.114   3.628  0.00  0.00    +0.046 A 
ATOM     21  C   LIG    1       23.975 -13.883   3.891  0.00  0.00    +0.010 A 
BRANCH  19  22
ATOM     22  O   LIG    1       27.470 -13.033   3.116  0.00  0.00    -0.507 OA
ATOM     23  H   LIG    1       27.311 -12.502   2.319  0.00  0.00    +0.292 HD
ENDBRANCH  19  22
ENDBRANCH  15  16
BRANCH  15  24
ATOM     24  O   LIG    1       22.618 -15.987   5.716  0.00  0.00    -0.386 OA
ATOM     25  H   LIG    1       21.838 -16.487   5.999  0.00  0.00    +0.210 HD
ENDBRANCH  15  24
ENDBRANCH   1  15
TORSDOF 9
ENDMDL
