MODEL 1
REMARK VINA RESULT:      -4.8      0.000      0.000
REMARK  Name = *****
REMARK                            x       y       z     vdW  Elec       q    Type
REMARK                         _______ _______ _______ _____ _____    ______ ____
ROOT
ATOM      1  CA  LYS A  1       27.485 -14.051   4.163  0.00  0.00    +0.161 C 
ENDROOT
BRANCH   1   2
ATOM      2  N   LYS A  1       28.455 -13.044   3.684  0.00  0.00    -0.318 NA
ATOM      3  H1  LYS A  1       28.457 -12.203   4.255  0.00  0.00    +0.119 HD
ATOM      4  H2  LYS A  1       29.383 -13.429   3.529  0.00  0.00    +0.119 HD
ENDBRANCH   1   2
BRANCH   1   5
ATOM      5  C   LYS A  1       26.871 -14.868   3.006  0.00  0.00    +0.322 C 
ATOM      6  O   LYS A  1       26.462 -16.010   3.116  0.00  0.00    -0.249 OA
BRANCH   5   7
ATOM      7  OXT LYS A  1       26.825 -14.200   1.826  0.00  0.00    -0.479 OA
ATOM      8  HXT LYS A  1       27.671 -14.272   1.353  0.00  0.00    +0.295 HD
ENDBRANCH   5   7
ENDBRANCH   1   5
BRANCH   1   9
ATOM      9  CB  LYS A  1       26.394 -13.408   5.038  0.00  0.00    +0.030 C 
BRANCH   9  10
ATOM     10  CG  LYS A  1       24.963 -13.637   4.529  0.00  0.00    +0.003 C 
BRANCH  10  11
ATOM     11  CD  LYS A  1       24.142 -12.341   4.498  0.00  0.00    +0.015 C 
BRANCH  11  12
ATOM     12  CE  LYS A  1       23.919 -11.811   3.077  0.00  0.00    +0.077 C 
BRANCH  12  13
ATOM     13  NZ  LYS A  1       24.056 -12.863   2.077  0.00  0.00    -0.330 NA
ATOM     14  HZ1 LYS A  1       23.800 -12.501   1.158  0.00  0.00    +0.118 HD
ATOM     15  HZ2 LYS A  1       25.031 -13.151   2.011  0.00  0.00    +0.118 HD
ENDBRANCH  12  13
ENDBRANCH  11  12
ENDBRANCH  10  11
ENDBRANCH   9  10
ENDBRANCH   1   9
TORSDOF 8
ENDMDL
MODEL 2
REMARK VINA RESULT:      -4.4      6.630      7.621
REMARK  Name = *****
REMARK                            x       y       z     vdW  Elec       q    Type
REMARK                         _______ _______ _______ _____ _____    ______ ____
ROOT
ATOM      1  CA  LYS A  1       23.796 -19.816   3.567  0.00  0.00    +0.161 C 
ENDROOT
BRANCH   1   2
ATOM      2  N   LYS A  1       23.817 -21.275   3.331  0.00  0.00    -0.318 NA
ATOM      3  H1  LYS A  1       24.433 -21.537   2.566  0.00  0.00    +0.119 HD
ATOM      4  H2  LYS A  1       23.973 -21.812   4.179  0.00  0.00    +0.119 HD
ENDBRANCH   1   2
BRANCH   1   5
ATOM      5  C   LYS A  1       25.215 -19.216   3.650  0.00  0.00    +0.322 C 
ATOM      6  O   LYS A  1       25.498 -18.080   3.314  0.00  0.00    -0.249 OA
BRANCH   5   7
ATOM      7  OXT LYS A  1       26.148 -20.075   4.133  0.00  0.00    -0.479 OA
ATOM      8  HXT LYS A  1       27.040 -19.816   3.847  0.00  0.00    +0.295 HD
ENDBRANCH   5   7
ENDBRANCH   1   5
BRANCH   1   9
ATOM      9  CB  LYS A  1       22.961 -19.461   4.811  0.00  0.00    +0.030 C 
BRANCH   9  10
ATOM     10  CG  LYS A  1       22.700 -20.646   5.752  0.00  0.00    +0.003 C 
BRANCH  10  11
ATOM     11  CD  LYS A  1       23.562 -20.583   7.020  0.00  0.00    +0.015 C 
BRANCH  11  12
ATOM     12  CE  LYS A  1       24.826 -21.444   6.926  0.00  0.00    +0.077 C 
BRANCH  12  13
ATOM     13  NZ  LYS A  1       26.038 -20.644   7.062  0.00  0.00    -0.330 NA
ATOM     14  HZ1 LYS A  1       26.219 -20.458   8.048  0.00  0.00    +0.118 HD
ATOM     15  HZ2 LYS A  1       26.839 -21.171   6.718  0.00  0.00    +0.118 HD
ENDBRANCH  12  13
ENDBRANCH  11  12
ENDBRANCH  10  11
ENDBRANCH   9  10
ENDBRANCH   1   9
TORSDOF 8
ENDMDL
MODEL 3
REMARK VINA RESULT:      -4.4      2.268      2.589
REMARK  Name = *****
REMARK                            x       y       z     vdW  Elec       q    Type
REMARK                         _______ _______ _______ _____ _____    ______ ____
ROOT
ATOM      1  CA  LYS A  1       27.451 -13.698   4.740  0.00  0.00    +0.161 C 
ENDROOT
BRANCH   1   2
ATOM      2  N   LYS A  1       26.801 -13.282   6.000  0.00  0.00    -0.318 NA
ATOM      3  H1  LYS A  1       27.427 -13.339   6.799  0.00  0.00    +0.119 HD
ATOM      4  H2  LYS A  1       26.323 -12.388   5.924  0.00  0.00    +0.119 HD
ENDBRANCH   1   2
BRANCH   1   5
ATOM      5  C   LYS A  1       28.708 -12.861   4.425  0.00  0.00    +0.322 C 
ATOM      6  O   LYS A  1       29.420 -13.033   3.451  0.00  0.00    -0.249 OA
BRANCH   5   7
ATOM      7  OXT LYS A  1       28.972 -11.897   5.343  0.00  0.00    -0.479 OA
ATOM      8  HXT LYS A  1       28.188 -11.343   5.500  0.00  0.00    +0.295 HD
ENDBRANCH   5   7
ENDBRANCH   1   5
BRANCH   1   9
ATOM      9  CB  LYS A  1       26.457 -13.683   3.564  0.00  0.00    +0.030 C 
BRANCH   9  10
ATOM     10  CG  LYS A  1       25.274 -14.648   3.730  0.00  0.00    +0.003 C 
BRANCH  10  11
ATOM     11  CD  LYS A  1       23.926 -13.914   3.777  0.00  0.00    +0.015 C 
BRANCH  11  12
ATOM     12  CE  LYS A  1       24.075 -12.390   3.720  0.00  0.00    +0.077 C 
BRANCH  12  13
ATOM     13  NZ  LYS A  1       23.803 -11.867   2.386  0.00  0.00    -0.330 NA
ATOM     14  HZ1 LYS A  1       24.631 -11.968   1.800  0.00  0.00    +0.118 HD
ATOM     15  HZ2 LYS A  1       23.069 -12.418   1.943  0.00  0.00    +0.118 HD
ENDBRANCH  12  13
ENDBRANCH  11  12
ENDBRANCH  10  11
ENDBRANCH   9  10
ENDBRANCH   1   9
TORSDOF 8
ENDMDL
MODEL 4
REMARK VINA RESULT:      -4.4      1.699      2.025
REMARK  Name = *****
REMARK                            x       y       z     vdW  Elec       q    Type
REMARK                         _______ _______ _______ _____ _____    ______ ____
ROOT
ATOM      1  CA  LYS A  1       26.495 -13.746   3.270  0.00  0.00    +0.161 C 
ENDROOT
BRANCH   1   2
ATOM      2  N   LYS A  1       26.445 -13.983   1.812  0.00  0.00    -0.318 NA
ATOM      3  H1  LYS A  1       27.105 -13.404   1.301  0.00  0.00    +0.119 HD
ATOM      4  H2  LYS A  1       26.497 -14.968   1.567  0.00  0.00    +0.119 HD
ENDBRANCH   1   2
BRANCH   1   5
ATOM      5  C   LYS A  1       27.883 -14.060   3.867  0.00  0.00    +0.322 C 
ATOM      6  O   LYS A  1       28.817 -13.279   3.876  0.00  0.00    -0.249 OA
BRANCH   5   7
ATOM      7  OXT LYS A  1       27.987 -15.307   4.391  0.00  0.00    -0.479 OA
ATOM      8  HXT LYS A  1       28.642 -15.835   3.904  0.00  0.00    +0.295 HD
ENDBRANCH   5   7
ENDBRANCH   1   5
BRANCH   1   9
ATOM      9  CB  LYS A  1       25.380 -14.517   4.002  0.00  0.00    +0.030 C 
BRANCH   9  10
ATOM     10  CG  LYS A  1       23.989 -13.881   3.873  0.00  0.00    +0.003 C 
BRANCH  10  11
ATOM     11  CD  LYS A  1       23.983 -12.403   4.287  0.00  0.00    +0.015 C 
BRANCH  11  12
ATOM     12  CE  LYS A  1       23.866 -11.450   3.092  0.00  0.00    +0.077 C 
BRANCH  12  13
ATOM     13  NZ  LYS A  1       23.865 -12.168   1.823  0.00  0.00    -0.330 NA
ATOM     14  HZ1 LYS A  1       23.678 -11.519   1.059  0.00  0.00    +0.118 HD
ATOM     15  HZ2 LYS A  1       24.789 -12.560   1.648  0.00  0.00    +0.118 HD
ENDBRANCH  12  13
ENDBRANCH  11  12
ENDBRANCH  10  11
ENDBRANCH   9  10
ENDBRANCH   1   9
TORSDOF 8
ENDMDL
MODEL 5
REMARK VINA RESULT:      -4.3      2.216      3.898
REMARK  Name = *****
REMARK                            x       y       z     vdW  Elec       q    Type
REMARK                         _______ _______ _______ _____ _____    ______ ____
ROOT
ATOM      1  CA  LYS A  1       24.567 -13.033   2.443  0.00  0.00    +0.161 C 
ENDROOT
BRANCH   1   2
ATOM      2  N   LYS A  1       24.028 -11.744   1.960  0.00  0.00    -0.318 NA
ATOM      3  H1  LYS A  1       24.649 -10.964   2.158  0.00  0.00    +0.119 HD
ATOM      4  H2  LYS A  1       23.719 -11.780   0.993  0.00  0.00    +0.119 HD
ENDBRANCH   1   2
BRANCH   1   5
ATOM      5  C   LYS A  1       24.023 -13.410   3.837  0.00  0.00    +0.322 C 
ATOM      6  O   LYS A  1       23.561 -14.501   4.120  0.00  0.00    -0.249 OA
BRANCH   5   7
ATOM      7  OXT LYS A  1       24.094 -12.404   4.745  0.00  0.00    -0.479 OA
ATOM      8  HXT LYS A  1       24.842 -11.814   4.552  0.00  0.00    +0.295 HD
ENDBRANCH   5   7
ENDBRANCH   1   5
BRANCH   1   9
ATOM      9  CB  LYS A  1       26.106 -13.042   2.418  0.00  0.00    +0.030 C 
BRANCH   9  10
ATOM     10  CG  LYS A  1       26.728 -14.439   2.559  0.00  0.00    +0.003 C 
BRANCH  10  11
ATOM     11  CD  LYS A  1       27.512 -14.599   3.868  0.00  0.00    +0.015 C 
BRANCH  11  12
ATOM     12  CE  LYS A  1       27.661 -13.282   4.638  0.00  0.00    +0.077 C 
BRANCH  12  13
ATOM     13  NZ  LYS A  1       26.939 -13.310   5.905  0.00  0.00    -0.330 NA
ATOM     14  HZ1 LYS A  1       27.377 -13.979   6.538  0.00  0.00    +0.118 HD
ATOM     15  HZ2 LYS A  1       27.004 -12.400   6.359  0.00  0.00    +0.118 HD
ENDBRANCH  12  13
ENDBRANCH  11  12
ENDBRANCH  10  11
ENDBRANCH   9  10
ENDBRANCH   1   9
TORSDOF 8
ENDMDL
MODEL 6
REMARK VINA RESULT:      -4.3      7.002      7.540
REMARK  Name = *****
REMARK                            x       y       z     vdW  Elec       q    Type
REMARK                         _______ _______ _______ _____ _____    ______ ____
ROOT
ATOM      1  CA  LYS A  1       26.688 -20.008   5.732  0.00  0.00    +0.161 C 
ENDROOT
BRANCH   1   2
ATOM      2  N   LYS A  1       26.190 -20.490   4.426  0.00  0.00    -0.318 NA
ATOM      3  H1  LYS A  1       25.303 -20.978   4.504  0.00  0.00    +0.119 HD
ATOM      4  H2  LYS A  1       26.194 -19.770   3.710  0.00  0.00    +0.119 HD
ENDBRANCH   1   2
BRANCH   1   5
ATOM      5  C   LYS A  1       28.226 -19.902   5.770  0.00  0.00    +0.322 C 
ATOM      6  O   LYS A  1       28.955 -20.708   6.321  0.00  0.00    -0.249 OA
BRANCH   5   7
ATOM      7  OXT LYS A  1       28.719 -18.811   5.130  0.00  0.00    -0.479 OA
ATOM      8  HXT LYS A  1       28.063 -18.445   4.513  0.00  0.00    +0.295 HD
ENDBRANCH   5   7
ENDBRANCH   1   5
BRANCH   1   9
ATOM      9  CB  LYS A  1       26.155 -20.873   6.890  0.00  0.00    +0.030 C 
BRANCH   9  10
ATOM     10  CG  LYS A  1       24.820 -21.569   6.590  0.00  0.00    +0.003 C 
BRANCH  10  11
ATOM     11  CD  LYS A  1       23.613 -20.676   6.908  0.00  0.00    +0.015 C 
BRANCH  11  12
ATOM     12  CE  LYS A  1       22.769 -20.351   5.670  0.00  0.00    +0.077 C 
BRANCH  12  13
ATOM     13  NZ  LYS A  1       23.099 -21.219   4.545  0.00  0.00    -0.330 NA
ATOM     14  HZ1 LYS A  1       23.935 -21.762   4.762  0.00  0.00    +0.118 HD
ATOM     15  HZ2 LYS A  1       22.349 -21.892   4.398  0.00  0.00    +0.118 HD
ENDBRANCH  12  13
ENDBRANCH  11  12
ENDBRANCH  10  11
ENDBRANCH   9  10
ENDBRANCH   1   9
TORSDOF 8
ENDMDL
MODEL 7
REMARK VINA RESULT:      -4.3      2.346      2.695
REMARK  Name = *****
REMARK                            x       y       z     vdW  Elec       q    Type
REMARK                         _______ _______ _______ _____ _____    ______ ____
ROOT
ATOM      1  CA  LYS A  1       27.939 -13.353   3.740  0.00  0.00    +0.161 C 
ENDROOT
BRANCH   1   2
ATOM      2  N   LYS A  1       29.330 -13.285   3.243  0.00  0.00    -0.318 NA
ATOM      3  H1  LYS A  1       29.600 -12.344   2.971  0.00  0.00    +0.119 HD
ATOM      4  H2  LYS A  1       29.996 -13.733   3.866  0.00  0.00    +0.119 HD
ENDBRANCH   1   2
BRANCH   1   5
ATOM      5  C   LYS A  1       27.830 -12.968   5.230  0.00  0.00    +0.322 C 
ATOM      6  O   LYS A  1       26.981 -13.402   5.989  0.00  0.00    -0.249 OA
BRANCH   5   7
ATOM      7  OXT LYS A  1       28.772 -12.081   5.639  0.00  0.00    -0.479 OA
ATOM      8  HXT LYS A  1       29.622 -12.250   5.200  0.00  0.00    +0.295 HD
ENDBRANCH   5   7
ENDBRANCH   1   5
BRANCH   1   9
ATOM      9  CB  LYS A  1       27.314 -14.734   3.469  0.00  0.00    +0.030 C 
BRANCH   9  10
ATOM     10  CG  LYS A  1       25.844 -14.683   3.027  0.00  0.00    +0.003 C 
BRANCH  10  11
ATOM     11  CD  LYS A  1       25.484 -13.349   2.359  0.00  0.00    +0.015 C 
BRANCH  11  12
ATOM     12  CE  LYS A  1       24.254 -12.682   2.985  0.00  0.00    +0.077 C 
BRANCH  12  13
ATOM     13  NZ  LYS A  1       24.277 -12.759   4.441  0.00  0.00    -0.330 NA
ATOM     14  HZ1 LYS A  1       24.602 -11.873   4.828  0.00  0.00    +0.118 HD
ATOM     15  HZ2 LYS A  1       23.331 -12.896   4.794  0.00  0.00    +0.118 HD
ENDBRANCH  12  13
ENDBRANCH  11  12
ENDBRANCH  10  11
ENDBRANCH   9  10
ENDBRANCH   1   9
TORSDOF 8
ENDMDL
MODEL 8
REMARK VINA RESULT:      -4.2      7.333      8.284
REMARK  Name = *****
REMARK                            x       y       z     vdW  Elec       q    Type
REMARK                         _______ _______ _______ _____ _____    ______ ____
ROOT
ATOM      1  CA  LYS A  1       24.639 -21.174   4.869  0.00  0.00    +0.161 C 
ENDROOT
BRANCH   1   2
ATOM      2  N   LYS A  1       25.609 -20.320   4.152  0.00  0.00    -0.318 NA
ATOM      3  H1  LYS A  1       26.447 -20.140   4.697  0.00  0.00    +0.119 HD
ATOM      4  H2  LYS A  1       25.801 -20.644   3.208  0.00  0.00    +0.119 HD
ENDBRANCH   1   2
BRANCH   1   5
ATOM      5  C   LYS A  1       23.217 -20.576   4.866  0.00  0.00    +0.322 C 
ATOM      6  O   LYS A  1       22.976 -19.383   4.916  0.00  0.00    -0.249 OA
BRANCH   5   7
ATOM      7  OXT LYS A  1       22.230 -21.506   4.809  0.00  0.00    -0.479 OA
ATOM      8  HXT LYS A  1       21.388 -21.139   5.129  0.00  0.00    +0.295 HD
ENDBRANCH   5   7
ENDBRANCH   1   5
BRANCH   1   9
ATOM      9  CB  LYS A  1       25.116 -21.484   6.301  0.00  0.00    +0.030 C 
BRANCH   9  10
ATOM     10  CG  LYS A  1       26.191 -20.522   6.826  0.00  0.00    +0.003 C 
BRANCH  10  11
ATOM     11  CD  LYS A  1       27.536 -21.223   7.061  0.00  0.00    +0.015 C 
BRANCH  11  12
ATOM     12  CE  LYS A  1       28.722 -20.449   6.474  0.00  0.00    +0.077 C 
BRANCH  12  13
ATOM     13  NZ  LYS A  1       28.393 -19.845   5.189  0.00  0.00    -0.330 NA
ATOM     14  HZ1 LYS A  1       27.380 -19.805   5.075  0.00  0.00    +0.118 HD
ATOM     15  HZ2 LYS A  1       28.723 -18.882   5.166  0.00  0.00    +0.118 HD
ENDBRANCH  12  13
ENDBRANCH  11  12
ENDBRANCH  10  11
ENDBRANCH   9  10
ENDBRANCH   1   9
TORSDOF 8
ENDMDL
MODEL 9
REMARK VINA RESULT:      -4.1      6.987      7.744
REMARK  Name = *****
REMARK                            x       y       z     vdW  Elec       q    Type
REMARK                         _______ _______ _______ _____ _____    ______ ____
ROOT
ATOM      1  CA  LYS A  1       25.653 -20.878   5.368  0.00  0.00    +0.161 C 
ENDROOT
BRANCH   1   2
ATOM      2  N   LYS A  1       26.021 -20.065   4.190  0.00  0.00    -0.318 NA
ATOM      3  H1  LYS A  1       26.972 -20.238   3.879  0.00  0.00    +0.119 HD
ATOM      4  H2  LYS A  1       25.335 -20.116   3.442  0.00  0.00    +0.119 HD
ENDBRANCH   1   2
BRANCH   1   5
ATOM      5  C   LYS A  1       24.136 -20.852   5.647  0.00  0.00    +0.322 C 
ATOM      6  O   LYS A  1       23.643 -20.577   6.727  0.00  0.00    -0.249 OA
BRANCH   5   7
ATOM      7  OXT LYS A  1       23.373 -21.171   4.572  0.00  0.00    -0.479 OA
ATOM      8  HXT LYS A  1       22.876 -20.398   4.256  0.00  0.00    +0.295 HD
ENDBRANCH   5   7
ENDBRANCH   1   5
BRANCH   1   9
ATOM      9  CB  LYS A  1       26.461 -20.463   6.611  0.00  0.00    +0.030 C 
BRANCH   9  10
ATOM     10  CG  LYS A  1       27.980 -20.626   6.456  0.00  0.00    +0.003 C 
BRANCH  10  11
ATOM     11  CD  LYS A  1       28.751 -19.394   6.947  0.00  0.00    +0.015 C 
BRANCH  11  12
ATOM     12  CE  LYS A  1       29.475 -18.654   5.817  0.00  0.00    +0.077 C 
BRANCH  12  13
ATOM     13  NZ  LYS A  1       28.559 -18.261   4.752  0.00  0.00    -0.330 NA
ATOM     14  HZ1 LYS A  1       28.704 -17.279   4.517  0.00  0.00    +0.118 HD
ATOM     15  HZ2 LYS A  1       28.765 -18.792   3.907  0.00  0.00    +0.118 HD
ENDBRANCH  12  13
ENDBRANCH  11  12
ENDBRANCH  10  11
ENDBRANCH   9  10
ENDBRANCH   1   9
TORSDOF 8
ENDMDL
