MODEL 1
REMARK VINA RESULT:      24.2      0.000      0.000
REMARK  Name = *****
REMARK                            x       y       z     vdW  Elec       q    Type
REMARK                         _______ _______ _______ _____ _____    ______ ____
ROOT
ATOM      1  O   LIG    1       26.412 -17.003   3.930  0.00  0.00    -0.340 OA
ENDROOT
BRANCH   1   6
ATOM      2  C   LIG    1       25.116 -13.880   2.867  0.00  0.00    +0.178 C 
ATOM      3  C   LIG    1       25.741 -13.330   4.132  0.00  0.00    +0.181 C 
ATOM      4  C   LIG    1       27.166 -13.875   4.442  0.00  0.00    +0.183 C 
ATOM      5  C   LIG    1       27.666 -14.898   3.415  0.00  0.00    +0.205 C 
ATOM      6  C   LIG    1       26.526 -15.879   3.082  0.00  0.00    +0.282 C 
ATOM      7  O   LIG    1       25.211 -15.290   3.098  0.00  0.00    -0.341 OA
BRANCH   2   8
ATOM      8  C   LIG    1       23.599 -13.576   2.552  0.00  0.00    +0.194 C 
BRANCH   8   9
ATOM      9  O   LIG    1       22.591 -14.208   3.398  0.00  0.00    -0.375 OA
BRANCH   9  10
ATOM     10  C   LIG    1       22.883 -15.461   4.051  0.00  0.00    +0.190 C 
BRANCH  10  12
ATOM     11  C   LIG    1       21.793 -14.776   6.137  0.00  0.00    +0.040 C 
ATOM     12  C   LIG    1       23.080 -15.305   5.572  0.00  0.00    +0.137 C 
BRANCH  12  13
ATOM     13  O   LIG    1       24.073 -14.361   5.983  0.00  0.00    -0.390 OA
ATOM     14  H   LIG    1       24.811 -14.381   5.340  0.00  0.00    +0.210 HD
ENDBRANCH  12  13
ENDBRANCH  10  12
ENDBRANCH   9  10
ENDBRANCH   8   9
ENDBRANCH   2   8
BRANCH   3  15
ATOM     15  O   LIG    1       25.655 -11.914   4.285  0.00  0.00    -0.369 OA
BRANCH  15  16
ATOM     16  C   LIG    1       24.299 -11.493   4.038  0.00  0.00    +0.191 C 
BRANCH  16  17
ATOM     17  C   LIG    1       23.350 -11.982   5.153  0.00  0.00    +0.137 C 
ATOM     18  C   LIG    1       21.936 -11.451   4.973  0.00  0.00    +0.040 C 
BRANCH  17  19
ATOM     19  O   LIG    1       23.862 -11.626   6.427  0.00  0.00    -0.390 OA
ATOM     20  H   LIG    1       23.389 -10.816   6.691  0.00  0.00    +0.210 HD
ENDBRANCH  17  19
ENDBRANCH  16  17
ENDBRANCH  15  16
ENDBRANCH   3  15
BRANCH   4  21
ATOM     21  O   LIG    1       26.988 -14.491   5.735  0.00  0.00    -0.369 OA
BRANCH  21  22
ATOM     22  C   LIG    1       27.673 -13.960   6.855  0.00  0.00    +0.191 C 
BRANCH  22  23
ATOM     23  C   LIG    1       27.671 -12.441   6.798  0.00  0.00    +0.137 C 
ATOM     24  C   LIG    1       26.329 -11.904   6.359  0.00  0.00    +0.040 C 
BRANCH  23  25
ATOM     25  O   LIG    1       28.661 -12.019   5.865  0.00  0.00    -0.390 OA
ATOM     26  H   LIG    1       28.854 -12.770   5.282  0.00  0.00    +0.210 HD
ENDBRANCH  23  25
ENDBRANCH  22  23
ENDBRANCH  21  22
ENDBRANCH   4  21
BRANCH   5  27
ATOM     27  O   LIG    1       28.201 -14.262   2.225  0.00  0.00    -0.366 OA
BRANCH  27  28
ATOM     28  C   LIG    1       29.375 -13.443   2.450  0.00  0.00    +0.191 C 
BRANCH  28  29
ATOM     29  C   LIG    1       29.058 -12.035   3.011  0.00  0.00    +0.137 C 
ATOM     30  C   LIG    1       29.223 -11.912   4.525  0.00  0.00    +0.040 C 
BRANCH  29  31
ATOM     31  O   LIG    1       27.738 -11.650   2.624  0.00  0.00    -0.390 OA
ATOM     32  H   LIG    1       27.777 -11.315   1.710  0.00  0.00    +0.210 HD
ENDBRANCH  29  31
ENDBRANCH  28  29
ENDBRANCH  27  28
ENDBRANCH   5  27
ENDBRANCH   1   6
BRANCH   1  33
ATOM     33  C   LIG    1       25.190 -17.675   4.218  0.00  0.00    +0.184 C 
ATOM     34  C   LIG    1       24.452 -17.854   5.586  0.00  0.00    +0.178 C 
ATOM     35  O   LIG    1       23.075 -18.062   5.194  0.00  0.00    -0.341 OA
ATOM     36  C   LIG    1       22.813 -19.303   4.526  0.00  0.00    +0.282 C 
ATOM     37  C   LIG    1       23.652 -19.475   3.227  0.00  0.00    +0.205 C 
ATOM     38  C   LIG    1       25.102 -18.910   3.292  0.00  0.00    +0.183 C 
BRANCH  38  39
ATOM     39  O   LIG    1       26.253 -19.770   3.179  0.00  0.00    -0.369 OA
BRANCH  39  40
ATOM     40  C   LIG    1       27.523 -19.497   3.755  0.00  0.00    +0.191 C 
BRANCH  40  41
ATOM     41  C   LIG    1       27.574 -18.674   5.064  0.00  0.00    +0.137 C 
ATOM     42  C   LIG    1       28.422 -17.407   4.929  0.00  0.00    +0.040 C 
BRANCH  41  43
ATOM     43  O   LIG    1       28.080 -19.408   6.150  0.00  0.00    -0.390 OA
ATOM     44  H   LIG    1       27.486 -19.247   6.905  0.00  0.00    +0.210 HD
ENDBRANCH  41  43
ENDBRANCH  40  41
ENDBRANCH  39  40
ENDBRANCH  38  39
BRANCH  37  45
ATOM     45  O   LIG    1       23.547 -20.807   2.717  0.00  0.00    -0.366 OA
BRANCH  45  46
ATOM     46  C   LIG    1       22.253 -21.425   2.755  0.00  0.00    +0.191 C 
BRANCH  46  47
ATOM     47  C   LIG    1       21.561 -21.565   4.132  0.00  0.00    +0.137 C 
ATOM     48  C   LIG    1       20.119 -21.058   4.209  0.00  0.00    +0.040 C 
BRANCH  47  49
ATOM     49  O   LIG    1       22.372 -20.969   5.147  0.00  0.00    -0.390 OA
ATOM     50  H   LIG    1       22.786 -20.159   4.803  0.00  0.00    +0.210 HD
ENDBRANCH  47  49
ENDBRANCH  46  47
ENDBRANCH  45  46
ENDBRANCH  37  45
BRANCH  36  51
ATOM     51  O   LIG    1       21.416 -19.300   4.147  0.00  0.00    -0.346 OA
BRANCH  51  52
ATOM     52  C   LIG    1       21.112 -18.508   2.990  0.00  0.00    +0.194 C 
BRANCH  52  53
ATOM     53  C   LIG    1       19.826 -17.687   3.164  0.00  0.00    +0.137 C 
ATOM     54  C   LIG    1       19.371 -17.076   1.843  0.00  0.00    +0.040 C 
BRANCH  53  55
ATOM     55  O   LIG    1       20.036 -16.593   4.044  0.00  0.00    -0.390 OA
ATOM     56  H   LIG    1       20.943 -16.613   4.317  0.00  0.00    +0.210 HD
ENDBRANCH  53  55
ENDBRANCH  52  53
ENDBRANCH  51  52
ENDBRANCH  36  51
BRANCH  34  57
ATOM     57  C   LIG    1       24.702 -18.877   6.733  0.00  0.00    +0.194 C 
BRANCH  57  58
ATOM     58  O   LIG    1       23.723 -19.864   7.046  0.00  0.00    -0.375 OA
BRANCH  58  59
ATOM     59  C   LIG    1       24.026 -21.231   6.796  0.00  0.00    +0.190 C 
BRANCH  59  60
ATOM     60  C   LIG    1       25.455 -21.562   6.405  0.00  0.00    +0.137 C 
ATOM     61  C   LIG    1       26.418 -20.593   7.062  0.00  0.00    +0.040 C 
BRANCH  60  62
ATOM     62  O   LIG    1       25.658 -21.522   5.000  0.00  0.00    -0.390 OA
ATOM     63  H   LIG    1       26.562 -21.209   4.817  0.00  0.00    +0.210 HD
ENDBRANCH  60  62
ENDBRANCH  59  60
ENDBRANCH  58  59
ENDBRANCH  57  58
ENDBRANCH  34  57
ENDBRANCH   1  33
TORSDOF 36
ENDMDL
