MODEL 1
REMARK VINA RESULT:      -5.7      0.000      0.000
REMARK  Name = *****
REMARK                            x       y       z     vdW  Elec       q    Type
REMARK                         _______ _______ _______ _____ _____    ______ ____
ROOT
ATOM      1  CA  LIG    1       31.549 -19.325   8.380  0.00  0.00    +0.182 C 
ATOM      2  N   LIG    1       31.945 -20.522   9.076  0.00  0.00    -0.302 N 
ATOM      3  H   LIG    1       32.800 -20.618   9.615  0.00  0.00    +0.149 HD
ATOM      4  C   LIG    1       31.026 -21.539   8.974  0.00  0.00    +0.214 C 
ATOM      5  O   LIG    1       31.153 -22.658   9.435  0.00  0.00    -0.276 OA
ATOM      6  C   LIG    1       29.875 -21.039   8.144  0.00  0.00    +0.098 C 
ATOM      7  C   LIG    1       30.049 -19.523   8.206  0.00  0.00    +0.043 C 
ENDROOT
BRANCH   1   9
ATOM      8  O   LIG    1       31.984 -18.003  10.381  0.00  0.00    -0.249 OA
ATOM      9  C   LIG    1       31.920 -18.061   9.161  0.00  0.00    +0.325 C 
BRANCH   9  10
ATOM     10  OXT LIG    1       32.261 -17.010   8.378  0.00  0.00    -0.479 OA
ATOM     11  HXT LIG    1       31.713 -16.212   8.481  0.00  0.00    +0.295 HD
ENDBRANCH   9  10
ENDBRANCH   1   9
TORSDOF 2
ENDMDL
MODEL 2
REMARK VINA RESULT:      -5.6      1.146      3.598
REMARK  Name = *****
REMARK                            x       y       z     vdW  Elec       q    Type
REMARK                         _______ _______ _______ _____ _____    ______ ____
ROOT
ATOM      1  CA  LIG    1       30.616 -20.372   8.909  0.00  0.00    +0.182 C 
ATOM      2  N   LIG    1       31.512 -19.298   9.254  0.00  0.00    -0.302 N 
ATOM      3  H   LIG    1       32.103 -19.284  10.079  0.00  0.00    +0.149 HD
ATOM      4  C   LIG    1       31.524 -18.283   8.328  0.00  0.00    +0.214 C 
ATOM      5  O   LIG    1       32.162 -17.250   8.416  0.00  0.00    -0.276 OA
ATOM      6  C   LIG    1       30.567 -18.651   7.228  0.00  0.00    +0.098 C 
ATOM      7  C   LIG    1       30.398 -20.157   7.418  0.00  0.00    +0.043 C 
ENDROOT
BRANCH   1   9
ATOM      8  O   LIG    1       30.794 -22.456  10.161  0.00  0.00    -0.249 OA
ATOM      9  C   LIG    1       31.206 -21.742   9.258  0.00  0.00    +0.325 C 
BRANCH   9  10
ATOM     10  OXT LIG    1       32.187 -22.149   8.418  0.00  0.00    -0.479 OA
ATOM     11  HXT LIG    1       33.092 -22.112   8.777  0.00  0.00    +0.295 HD
ENDBRANCH   9  10
ENDBRANCH   1   9
TORSDOF 2
ENDMDL
MODEL 3
REMARK VINA RESULT:      -5.6      2.085      2.497
REMARK  Name = *****
REMARK                            x       y       z     vdW  Elec       q    Type
REMARK                         _______ _______ _______ _____ _____    ______ ____
ROOT
ATOM      1  CA  LIG    1       30.896 -19.478   7.071  0.00  0.00    +0.182 C 
ATOM      2  N   LIG    1       30.195 -20.635   7.565  0.00  0.00    -0.302 N 
ATOM      3  H   LIG    1       30.560 -21.274   8.265  0.00  0.00    +0.149 HD
ATOM      4  C   LIG    1       28.942 -20.785   7.021  0.00  0.00    +0.214 C 
ATOM      5  O   LIG    1       28.176 -21.704   7.245  0.00  0.00    -0.276 OA
ATOM      6  C   LIG    1       28.717 -19.648   6.062  0.00  0.00    +0.098 C 
ATOM      7  C   LIG    1       29.771 -18.630   6.493  0.00  0.00    +0.043 C 
ENDROOT
BRANCH   1   9
ATOM      8  O   LIG    1       31.931 -17.579   8.195  0.00  0.00    -0.249 OA
ATOM      9  C   LIG    1       31.695 -18.779   8.174  0.00  0.00    +0.325 C 
BRANCH   9  10
ATOM     10  OXT LIG    1       32.058 -19.595   9.193  0.00  0.00    -0.479 OA
ATOM     11  HXT LIG    1       32.687 -20.302   8.963  0.00  0.00    +0.295 HD
ENDBRANCH   9  10
ENDBRANCH   1   9
TORSDOF 2
ENDMDL
MODEL 4
REMARK VINA RESULT:      -5.5      2.402      4.286
REMARK  Name = *****
REMARK                            x       y       z     vdW  Elec       q    Type
REMARK                         _______ _______ _______ _____ _____    ______ ____
ROOT
ATOM      1  CA  LIG    1       31.517 -18.368   8.898  0.00  0.00    +0.182 C 
ATOM      2  N   LIG    1       32.460 -17.298   8.699  0.00  0.00    -0.302 N 
ATOM      3  H   LIG    1       33.211 -17.312   8.016  0.00  0.00    +0.149 HD
ATOM      4  C   LIG    1       32.227 -16.212   9.508  0.00  0.00    +0.214 C 
ATOM      5  O   LIG    1       32.909 -15.205   9.558  0.00  0.00    -0.276 OA
ATOM      6  C   LIG    1       31.022 -16.518  10.355  0.00  0.00    +0.098 C 
ATOM      7  C   LIG    1       30.360 -17.667   9.597  0.00  0.00    +0.043 C 
ENDROOT
BRANCH   1   9
ATOM      8  O   LIG    1       30.540 -18.471   6.667  0.00  0.00    -0.249 OA
ATOM      9  C   LIG    1       31.127 -19.039   7.577  0.00  0.00    +0.325 C 
BRANCH   9  10
ATOM     10  OXT LIG    1       31.565 -20.314   7.456  0.00  0.00    -0.479 OA
ATOM     11  HXT LIG    1       32.136 -20.635   8.178  0.00  0.00    +0.295 HD
ENDBRANCH   9  10
ENDBRANCH   1   9
TORSDOF 2
ENDMDL
MODEL 5
REMARK VINA RESULT:      -5.4      8.846      9.806
REMARK  Name = *****
REMARK                            x       y       z     vdW  Elec       q    Type
REMARK                         _______ _______ _______ _____ _____    ______ ____
ROOT
ATOM      1  CA  LIG    1       25.415 -25.504   5.289  0.00  0.00    +0.182 C 
ATOM      2  N   LIG    1       23.999 -25.373   5.517  0.00  0.00    -0.302 N 
ATOM      3  H   LIG    1       23.287 -25.933   5.059  0.00  0.00    +0.149 HD
ATOM      4  C   LIG    1       23.687 -24.424   6.461  0.00  0.00    +0.214 C 
ATOM      5  O   LIG    1       22.564 -24.098   6.796  0.00  0.00    -0.276 OA
ATOM      6  C   LIG    1       24.976 -23.825   6.956  0.00  0.00    +0.098 C 
ATOM      7  C   LIG    1       26.014 -24.862   6.533  0.00  0.00    +0.043 C 
ENDROOT
BRANCH   1   9
ATOM      8  O   LIG    1       25.038 -27.896   5.007  0.00  0.00    -0.249 OA
ATOM      9  C   LIG    1       25.828 -26.965   5.086  0.00  0.00    +0.325 C 
BRANCH   9  10
ATOM     10  OXT LIG    1       27.159 -27.142   4.913  0.00  0.00    -0.479 OA
ATOM     11  HXT LIG    1       27.725 -26.405   5.205  0.00  0.00    +0.295 HD
ENDBRANCH   9  10
ENDBRANCH   1   9
TORSDOF 2
ENDMDL
MODEL 6
REMARK VINA RESULT:      -5.3      2.665      3.277
REMARK  Name = *****
REMARK                            x       y       z     vdW  Elec       q    Type
REMARK                         _______ _______ _______ _____ _____    ______ ____
ROOT
ATOM      1  CA  LIG    1       29.498 -19.385   7.609  0.00  0.00    +0.182 C 
ATOM      2  N   LIG    1       30.421 -20.472   7.814  0.00  0.00    -0.302 N 
ATOM      3  H   LIG    1       30.433 -21.328   7.269  0.00  0.00    +0.149 HD
ATOM      4  C   LIG    1       31.332 -20.229   8.815  0.00  0.00    +0.214 C 
ATOM      5  O   LIG    1       32.182 -21.008   9.204  0.00  0.00    -0.276 OA
ATOM      6  C   LIG    1       31.048 -18.861   9.374  0.00  0.00    +0.098 C 
ATOM      7  C   LIG    1       30.209 -18.214   8.274  0.00  0.00    +0.043 C 
ENDROOT
BRANCH   1   9
ATOM      8  O   LIG    1       28.311 -19.743   5.510  0.00  0.00    -0.249 OA
ATOM      9  C   LIG    1       29.197 -19.164   6.124  0.00  0.00    +0.325 C 
BRANCH   9  10
ATOM     10  OXT LIG    1       29.947 -18.195   5.548  0.00  0.00    -0.479 OA
ATOM     11  HXT LIG    1       30.259 -18.384   4.644  0.00  0.00    +0.295 HD
ENDBRANCH   9  10
ENDBRANCH   1   9
TORSDOF 2
ENDMDL
MODEL 7
REMARK VINA RESULT:      -5.3      2.175      4.059
REMARK  Name = *****
REMARK                            x       y       z     vdW  Elec       q    Type
REMARK                         _______ _______ _______ _____ _____    ______ ____
ROOT
ATOM      1  CA  LIG    1       30.822 -18.589   8.805  0.00  0.00    +0.182 C 
ATOM      2  N   LIG    1       30.199 -18.069   9.996  0.00  0.00    -0.302 N 
ATOM      3  H   LIG    1       29.456 -18.535  10.507  0.00  0.00    +0.149 HD
ATOM      4  C   LIG    1       30.735 -16.874  10.411  0.00  0.00    +0.214 C 
ATOM      5  O   LIG    1       30.352 -16.217  11.361  0.00  0.00    -0.276 OA
ATOM      6  C   LIG    1       31.832 -16.502   9.451  0.00  0.00    +0.098 C 
ATOM      7  C   LIG    1       32.141 -17.830   8.761  0.00  0.00    +0.043 C 
ENDROOT
BRANCH   1   9
ATOM      8  O   LIG    1       30.131 -20.907   8.500  0.00  0.00    -0.249 OA
ATOM      9  C   LIG    1       30.985 -20.111   8.864  0.00  0.00    +0.325 C 
BRANCH   9  10
ATOM     10  OXT LIG    1       32.207 -20.518   9.282  0.00  0.00    -0.479 OA
ATOM     11  HXT LIG    1       32.230 -21.371   9.752  0.00  0.00    +0.295 HD
ENDBRANCH   9  10
ENDBRANCH   1   9
TORSDOF 2
ENDMDL
MODEL 8
REMARK VINA RESULT:      -5.2      7.739      9.070
REMARK  Name = *****
REMARK                            x       y       z     vdW  Elec       q    Type
REMARK                         _______ _______ _______ _____ _____    ______ ____
ROOT
ATOM      1  CA  LIG    1       24.513 -23.175   6.469  0.00  0.00    +0.182 C 
ATOM      2  N   LIG    1       24.697 -22.656   5.139  0.00  0.00    -0.302 N 
ATOM      3  H   LIG    1       24.674 -23.217   4.293  0.00  0.00    +0.149 HD
ATOM      4  C   LIG    1       24.877 -21.293   5.108  0.00  0.00    +0.214 C 
ATOM      5  O   LIG    1       25.096 -20.629   4.113  0.00  0.00    -0.276 OA
ATOM      6  C   LIG    1       24.815 -20.788   6.524  0.00  0.00    +0.098 C 
ATOM      7  C   LIG    1       24.124 -21.934   7.261  0.00  0.00    +0.043 C 
ENDROOT
BRANCH   1   9
ATOM      8  O   LIG    1       23.724 -25.482   6.445  0.00  0.00    -0.249 OA
ATOM      9  C   LIG    1       23.462 -24.288   6.507  0.00  0.00    +0.325 C 
BRANCH   9  10
ATOM     10  OXT LIG    1       22.197 -23.846   6.703  0.00  0.00    -0.479 OA
ATOM     11  HXT LIG    1       21.534 -24.534   6.896  0.00  0.00    +0.295 HD
ENDBRANCH   9  10
ENDBRANCH   1   9
TORSDOF 2
ENDMDL
MODEL 9
REMARK VINA RESULT:      -5.2      3.432      3.904
REMARK  Name = *****
REMARK                            x       y       z     vdW  Elec       q    Type
REMARK                         _______ _______ _______ _____ _____    ______ ____
ROOT
ATOM      1  CA  LIG    1       28.958 -19.944   6.519  0.00  0.00    +0.182 C 
ATOM      2  N   LIG    1       28.459 -19.997   7.869  0.00  0.00    -0.302 N 
ATOM      3  H   LIG    1       29.000 -19.756   8.693  0.00  0.00    +0.149 HD
ATOM      4  C   LIG    1       27.141 -20.378   7.945  0.00  0.00    +0.214 C 
ATOM      5  O   LIG    1       26.507 -20.539   8.971  0.00  0.00    -0.276 OA
ATOM      6  C   LIG    1       26.647 -20.615   6.544  0.00  0.00    +0.098 C 
ATOM      7  C   LIG    1       27.681 -19.878   5.693  0.00  0.00    +0.043 C 
ENDROOT
BRANCH   1   9
ATOM      8  O   LIG    1       30.847 -18.488   7.026  0.00  0.00    -0.249 OA
ATOM      9  C   LIG    1       29.896 -18.752   6.303  0.00  0.00    +0.325 C 
BRANCH   9  10
ATOM     10  OXT LIG    1       29.637 -18.043   5.179  0.00  0.00    -0.479 OA
ATOM     11  HXT LIG    1       29.176 -17.195   5.311  0.00  0.00    +0.295 HD
ENDBRANCH   9  10
ENDBRANCH   1   9
TORSDOF 2
ENDMDL
