MODEL 1
REMARK VINA RESULT:      -3.8      0.000      0.000
REMARK  Name = *****
REMARK                            x       y       z     vdW  Elec       q    Type
REMARK                         _______ _______ _______ _____ _____    ______ ____
ROOT
ATOM      1  O   LIG    1       25.765 -13.789   1.816  0.00  0.00    -0.254 OA
ATOM      2  P   LIG    1       26.589 -13.996   3.057  0.00  0.00    +0.346 P 
ATOM      3  N   LIG    1       26.022 -13.292   4.417  0.00  0.00    -0.218 NA
ATOM      4  C   LIG    1       26.884 -13.326   5.593  0.00  0.00    +0.097 C 
ATOM      5  C   LIG    1       28.253 -12.732   5.269  0.00  0.00    +0.044 C 
ATOM      6  C   LIG    1       28.919 -13.329   4.033  0.00  0.00    +0.171 C 
ATOM      7  O   LIG    1       28.062 -13.359   2.901  0.00  0.00    -0.305 OA
ENDROOT
BRANCH   2   8
ATOM      8  N   LIG    1       26.845 -15.564   3.450  0.00  0.00    -0.231 NA
ATOM      9  H   LIG    1       27.604 -15.960   2.905  0.00  0.00    +0.133 HD
BRANCH   8  10
ATOM     10  C   LIG    1       25.729 -16.503   3.364  0.00  0.00    +0.107 C 
BRANCH  10  11
ATOM     11  C   LIG    1       26.235 -17.948   3.333  0.00  0.00    +0.124 C 
ATOM     12 CL   LIG    1       24.893 -19.102   3.581  0.00  0.00    -0.124 Cl
ENDBRANCH  10  11
ENDBRANCH   8  10
ENDBRANCH   2   8
BRANCH   3  13
ATOM     13  C   LIG    1       24.594 -13.367   4.743  0.00  0.00    +0.110 C 
BRANCH  13  14
ATOM     14  C   LIG    1       23.827 -12.046   4.641  0.00  0.00    +0.124 C 
ATOM     15 CL   LIG    1       23.821 -11.450   2.961  0.00  0.00    -0.124 Cl
ENDBRANCH  13  14
ENDBRANCH   3  13
TORSDOF 5
ENDMDL
MODEL 2
REMARK VINA RESULT:      -3.7      5.837      7.652
REMARK  Name = *****
REMARK                            x       y       z     vdW  Elec       q    Type
REMARK                         _______ _______ _______ _____ _____    ______ ____
ROOT
ATOM      1  O   LIG    1       24.984 -20.572   2.934  0.00  0.00    -0.254 OA
ATOM      2  P   LIG    1       24.483 -20.356   4.335  0.00  0.00    +0.346 P 
ATOM      3  N   LIG    1       25.562 -20.634   5.529  0.00  0.00    -0.218 NA
ATOM      4  C   LIG    1       25.060 -20.605   6.898  0.00  0.00    +0.097 C 
ATOM      5  C   LIG    1       23.890 -21.572   7.060  0.00  0.00    +0.044 C 
ATOM      6  C   LIG    1       22.784 -21.397   6.024  0.00  0.00    +0.171 C 
ATOM      7  O   LIG    1       23.274 -21.360   4.692  0.00  0.00    -0.305 OA
ENDROOT
BRANCH   2   8
ATOM      8  N   LIG    1       23.890 -18.858   4.622  0.00  0.00    -0.231 NA
ATOM      9  H   LIG    1       23.802 -18.683   5.619  0.00  0.00    +0.133 HD
BRANCH   8  10
ATOM     10  C   LIG    1       22.619 -18.474   4.013  0.00  0.00    +0.107 C 
BRANCH  10  11
ATOM     11  C   LIG    1       21.981 -17.308   4.772  0.00  0.00    +0.124 C 
ATOM     12 CL   LIG    1       22.920 -15.804   4.542  0.00  0.00    -0.124 Cl
ENDBRANCH  10  11
ENDBRANCH   8  10
ENDBRANCH   2   8
BRANCH   3  13
ATOM     13  C   LIG    1       26.939 -20.145   5.406  0.00  0.00    +0.110 C 
BRANCH  13  14
ATOM     14  C   LIG    1       27.779 -20.221   6.683  0.00  0.00    +0.124 C 
ATOM     15 CL   LIG    1       29.321 -19.352   6.474  0.00  0.00    -0.124 Cl
ENDBRANCH  13  14
ENDBRANCH   3  13
TORSDOF 5
ENDMDL
MODEL 3
REMARK VINA RESULT:      -3.3      2.524      4.296
REMARK  Name = *****
REMARK                            x       y       z     vdW  Elec       q    Type
REMARK                         _______ _______ _______ _____ _____    ______ ____
ROOT
ATOM      1  O   LIG    1       25.933 -16.268   3.069  0.00  0.00    -0.254 OA
ATOM      2  P   LIG    1       25.691 -14.804   3.310  0.00  0.00    +0.346 P 
ATOM      3  N   LIG    1       24.184 -14.399   3.792  0.00  0.00    -0.218 NA
ATOM      4  C   LIG    1       23.868 -12.977   3.864  0.00  0.00    +0.097 C 
ATOM      5  C   LIG    1       24.154 -12.297   2.526  0.00  0.00    +0.044 C 
ATOM      6  C   LIG    1       25.551 -12.564   1.973  0.00  0.00    +0.171 C 
ATOM      7  O   LIG    1       25.889 -13.943   1.962  0.00  0.00    -0.305 OA
ENDROOT
BRANCH   2   8
ATOM      8  N   LIG    1       26.698 -14.119   4.403  0.00  0.00    -0.231 NA
ATOM      9  H   LIG    1       26.508 -13.126   4.506  0.00  0.00    +0.133 HD
BRANCH   8  10
ATOM     10  C   LIG    1       28.141 -14.253   4.213  0.00  0.00    +0.107 C 
BRANCH  10  11
ATOM     11  C   LIG    1       28.747 -12.945   3.700  0.00  0.00    +0.124 C 
ATOM     12 CL   LIG    1       29.100 -11.828   5.050  0.00  0.00    -0.124 Cl
ENDBRANCH  10  11
ENDBRANCH   8  10
ENDBRANCH   2   8
BRANCH   3  13
ATOM     13  C   LIG    1       23.499 -15.197   4.814  0.00  0.00    +0.110 C 
BRANCH  13  14
ATOM     14  C   LIG    1       22.334 -16.051   4.308  0.00  0.00    +0.124 C 
ATOM     15 CL   LIG    1       22.725 -17.786   4.437  0.00  0.00    -0.124 Cl
ENDBRANCH  13  14
ENDBRANCH   3  13
TORSDOF 5
ENDMDL
MODEL 4
REMARK VINA RESULT:      -3.3      5.316      7.612
REMARK  Name = *****
REMARK                            x       y       z     vdW  Elec       q    Type
REMARK                         _______ _______ _______ _____ _____    ______ ____
ROOT
ATOM      1  O   LIG    1       25.186 -20.769   2.997  0.00  0.00    -0.254 OA
ATOM      2  P   LIG    1       24.596 -20.480   4.350  0.00  0.00    +0.346 P 
ATOM      3  N   LIG    1       25.569 -20.771   5.629  0.00  0.00    -0.218 NA
ATOM      4  C   LIG    1       24.971 -20.669   6.955  0.00  0.00    +0.097 C 
ATOM      5  C   LIG    1       23.742 -21.569   7.059  0.00  0.00    +0.044 C 
ATOM      6  C   LIG    1       22.725 -21.375   5.938  0.00  0.00    +0.171 C 
ATOM      7  O   LIG    1       23.312 -21.408   4.646  0.00  0.00    -0.305 OA
ENDROOT
BRANCH   2   8
ATOM      8  N   LIG    1       24.065 -18.945   4.546  0.00  0.00    -0.231 NA
ATOM      9  H   LIG    1       23.075 -18.925   4.772  0.00  0.00    +0.133 HD
BRANCH   8  10
ATOM     10  C   LIG    1       24.269 -17.984   3.464  0.00  0.00    +0.107 C 
BRANCH  10  11
ATOM     11  C   LIG    1       25.735 -17.549   3.392  0.00  0.00    +0.124 C 
ATOM     12 CL   LIG    1       25.876 -15.767   3.389  0.00  0.00    -0.124 Cl
ENDBRANCH  10  11
ENDBRANCH   8  10
ENDBRANCH   2   8
BRANCH   3  13
ATOM     13  C   LIG    1       26.975 -20.357   5.594  0.00  0.00    +0.110 C 
BRANCH  13  14
ATOM     14  C   LIG    1       27.723 -20.460   6.925  0.00  0.00    +0.124 C 
ATOM     15 CL   LIG    1       29.339 -19.719   6.798  0.00  0.00    -0.124 Cl
ENDBRANCH  13  14
ENDBRANCH   3  13
TORSDOF 5
ENDMDL
MODEL 5
REMARK VINA RESULT:      -3.2      2.907      3.987
REMARK  Name = *****
REMARK                            x       y       z     vdW  Elec       q    Type
REMARK                         _______ _______ _______ _____ _____    ______ ____
ROOT
ATOM      1  O   LIG    1       25.650 -13.701   5.642  0.00  0.00    -0.254 OA
ATOM      2  P   LIG    1       24.814 -13.421   4.424  0.00  0.00    +0.346 P 
ATOM      3  N   LIG    1       25.601 -13.466   2.993  0.00  0.00    -0.218 NA
ATOM      4  C   LIG    1       24.862 -13.028   1.814  0.00  0.00    +0.097 C 
ATOM      5  C   LIG    1       24.305 -11.622   2.023  0.00  0.00    +0.044 C 
ATOM      6  C   LIG    1       23.511 -11.447   3.315  0.00  0.00    +0.171 C 
ATOM      7  O   LIG    1       24.200 -11.931   4.458  0.00  0.00    -0.305 OA
ENDROOT
BRANCH   2   8
ATOM      8  N   LIG    1       23.522 -14.409   4.243  0.00  0.00    -0.231 NA
ATOM      9  H   LIG    1       22.764 -14.140   4.863  0.00  0.00    +0.133 HD
BRANCH   8  10
ATOM     10  C   LIG    1       23.708 -15.849   4.406  0.00  0.00    +0.107 C 
BRANCH  10  11
ATOM     11  C   LIG    1       22.375 -16.540   4.704  0.00  0.00    +0.124 C 
ATOM     12 CL   LIG    1       22.487 -18.301   4.418  0.00  0.00    -0.124 Cl
ENDBRANCH  10  11
ENDBRANCH   8  10
ENDBRANCH   2   8
BRANCH   3  13
ATOM     13  C   LIG    1       26.556 -14.542   2.712  0.00  0.00    +0.110 C 
BRANCH  13  14
ATOM     14  C   LIG    1       27.789 -14.580   3.618  0.00  0.00    +0.124 C 
ATOM     15 CL   LIG    1       28.503 -12.954   3.776  0.00  0.00    -0.124 Cl
ENDBRANCH  13  14
ENDBRANCH   3  13
TORSDOF 5
ENDMDL
MODEL 6
REMARK VINA RESULT:      -2.5      6.015      6.708
REMARK  Name = *****
REMARK                            x       y       z     vdW  Elec       q    Type
REMARK                         _______ _______ _______ _____ _____    ______ ____
ROOT
ATOM      1  O   LIG    1       21.543 -21.158   4.915  0.00  0.00    -0.254 OA
ATOM      2  P   LIG    1       22.909 -20.531   4.879  0.00  0.00    +0.346 P 
ATOM      3  N   LIG    1       22.988 -19.026   4.248  0.00  0.00    -0.218 NA
ATOM      4  C   LIG    1       24.316 -18.462   4.039  0.00  0.00    +0.097 C 
ATOM      5  C   LIG    1       25.166 -19.397   3.181  0.00  0.00    +0.044 C 
ATOM      6  C   LIG    1       25.210 -20.838   3.680  0.00  0.00    +0.171 C 
ATOM      7  O   LIG    1       23.922 -21.372   3.949  0.00  0.00    -0.305 OA
ENDROOT
BRANCH   2   8
ATOM      8  N   LIG    1       23.652 -20.434   6.334  0.00  0.00    -0.231 NA
ATOM      9  H   LIG    1       23.930 -19.479   6.542  0.00  0.00    +0.133 HD
BRANCH   8  10
ATOM     10  C   LIG    1       24.818 -21.277   6.588  0.00  0.00    +0.107 C 
BRANCH  10  11
ATOM     11  C   LIG    1       26.031 -20.427   6.973  0.00  0.00    +0.124 C 
ATOM     12 CL   LIG    1       27.511 -21.425   7.062  0.00  0.00    -0.124 Cl
ENDBRANCH  10  11
ENDBRANCH   8  10
ENDBRANCH   2   8
BRANCH   3  13
ATOM     13  C   LIG    1       21.983 -18.022   4.612  0.00  0.00    +0.110 C 
BRANCH  13  14
ATOM     14  C   LIG    1       22.412 -16.566   4.426  0.00  0.00    +0.124 C 
ATOM     15 CL   LIG    1       22.090 -15.620   5.902  0.00  0.00    -0.124 Cl
ENDBRANCH  13  14
ENDBRANCH   3  13
TORSDOF 5
ENDMDL
MODEL 7
REMARK VINA RESULT:      -2.5      2.255      3.529
REMARK  Name = *****
REMARK                            x       y       z     vdW  Elec       q    Type
REMARK                         _______ _______ _______ _____ _____    ______ ____
ROOT
ATOM      1  O   LIG    1       27.243 -14.753   5.179  0.00  0.00    -0.254 OA
ATOM      2  P   LIG    1       26.256 -14.549   4.064  0.00  0.00    +0.346 P 
ATOM      3  N   LIG    1       26.436 -13.179   3.193  0.00  0.00    -0.218 NA
ATOM      4  C   LIG    1       25.393 -12.867   2.222  0.00  0.00    +0.097 C 
ATOM      5  C   LIG    1       24.023 -12.841   2.898  0.00  0.00    +0.044 C 
ATOM      6  C   LIG    1       23.707 -14.085   3.723  0.00  0.00    +0.171 C 
ATOM      7  O   LIG    1       24.748 -14.432   4.624  0.00  0.00    -0.305 OA
ENDROOT
BRANCH   2   8
ATOM      8  N   LIG    1       26.208 -15.762   2.966  0.00  0.00    -0.231 NA
ATOM      9  H   LIG    1       25.330 -15.761   2.456  0.00  0.00    +0.133 HD
BRANCH   8  10
ATOM     10  C   LIG    1       26.430 -17.133   3.420  0.00  0.00    +0.107 C 
BRANCH  10  11
ATOM     11  C   LIG    1       25.127 -17.936   3.385  0.00  0.00    +0.124 C 
ATOM     12 CL   LIG    1       25.379 -19.593   4.006  0.00  0.00    -0.124 Cl
ENDBRANCH  10  11
ENDBRANCH   8  10
ENDBRANCH   2   8
BRANCH   3  13
ATOM     13  C   LIG    1       27.771 -12.748   2.767  0.00  0.00    +0.110 C 
BRANCH  13  14
ATOM     14  C   LIG    1       28.909 -13.086   3.732  0.00  0.00    +0.124 C 
ATOM     15 CL   LIG    1       28.934 -11.944   5.100  0.00  0.00    -0.124 Cl
ENDBRANCH  13  14
ENDBRANCH   3  13
TORSDOF 5
ENDMDL
MODEL 8
REMARK VINA RESULT:      -2.3      1.998      4.976
REMARK  Name = *****
REMARK                            x       y       z     vdW  Elec       q    Type
REMARK                         _______ _______ _______ _____ _____    ______ ____
ROOT
ATOM      1  O   LIG    1       27.190 -14.431   1.970  0.00  0.00    -0.254 OA
ATOM      2  P   LIG    1       26.215 -14.462   3.115  0.00  0.00    +0.346 P 
ATOM      3  N   LIG    1       25.373 -15.849   3.298  0.00  0.00    -0.218 NA
ATOM      4  C   LIG    1       24.299 -15.850   4.285  0.00  0.00    +0.097 C 
ATOM      5  C   LIG    1       23.317 -14.714   4.007  0.00  0.00    +0.044 C 
ATOM      6  C   LIG    1       23.971 -13.344   3.848  0.00  0.00    +0.171 C 
ATOM      7  O   LIG    1       25.060 -13.352   2.937  0.00  0.00    -0.305 OA
ENDROOT
BRANCH   2   8
ATOM      8  N   LIG    1       26.876 -14.156   4.580  0.00  0.00    -0.231 NA
ATOM      9  H   LIG    1       26.345 -14.600   5.323  0.00  0.00    +0.133 HD
BRANCH   8  10
ATOM     10  C   LIG    1       27.083 -12.767   4.984  0.00  0.00    +0.107 C 
BRANCH  10  11
ATOM     11  C   LIG    1       28.573 -12.470   5.171  0.00  0.00    +0.124 C 
ATOM     12 CL   LIG    1       29.474 -12.724   3.649  0.00  0.00    -0.124 Cl
ENDBRANCH  10  11
ENDBRANCH   8  10
ENDBRANCH   2   8
BRANCH   3  13
ATOM     13  C   LIG    1       26.052 -17.144   3.181  0.00  0.00    +0.110 C 
BRANCH  13  14
ATOM     14  C   LIG    1       25.155 -18.373   3.342  0.00  0.00    +0.124 C 
ATOM     15 CL   LIG    1       25.944 -19.597   4.371  0.00  0.00    -0.124 Cl
ENDBRANCH  13  14
ENDBRANCH   3  13
TORSDOF 5
ENDMDL
MODEL 9
REMARK VINA RESULT:      -2.3      1.943      4.727
REMARK  Name = *****
REMARK                            x       y       z     vdW  Elec       q    Type
REMARK                         _______ _______ _______ _____ _____    ______ ____
ROOT
ATOM      1  O   LIG    1       23.609 -14.430   4.462  0.00  0.00    -0.254 OA
ATOM      2  P   LIG    1       24.982 -14.315   3.860  0.00  0.00    +0.346 P 
ATOM      3  N   LIG    1       25.836 -15.703   3.759  0.00  0.00    -0.218 NA
ATOM      4  C   LIG    1       27.231 -15.598   3.345  0.00  0.00    +0.097 C 
ATOM      5  C   LIG    1       27.985 -14.624   4.249  0.00  0.00    +0.044 C 
ATOM      6  C   LIG    1       27.312 -13.264   4.405  0.00  0.00    +0.171 C 
ATOM      7  O   LIG    1       25.936 -13.362   4.744  0.00  0.00    -0.305 OA
ENDROOT
BRANCH   2   8
ATOM      8  N   LIG    1       25.015 -13.671   2.356  0.00  0.00    -0.231 NA
ATOM      9  H   LIG    1       25.700 -14.139   1.771  0.00  0.00    +0.133 HD
BRANCH   8  10
ATOM     10  C   LIG    1       25.246 -12.236   2.209  0.00  0.00    +0.107 C 
BRANCH  10  11
ATOM     11  C   LIG    1       23.948 -11.451   2.413  0.00  0.00    +0.124 C 
ATOM     12 CL   LIG    1       23.461 -11.454   4.133  0.00  0.00    -0.124 Cl
ENDBRANCH  10  11
ENDBRANCH   8  10
ENDBRANCH   2   8
BRANCH   3  13
ATOM     13  C   LIG    1       25.187 -16.935   3.297  0.00  0.00    +0.110 C 
BRANCH  13  14
ATOM     14  C   LIG    1       26.056 -18.193   3.347  0.00  0.00    +0.124 C 
ATOM     15 CL   LIG    1       25.099 -19.596   3.890  0.00  0.00    -0.124 Cl
ENDBRANCH  13  14
ENDBRANCH   3  13
TORSDOF 5
ENDMDL
