MODEL 1
REMARK VINA RESULT:      -8.8      0.000      0.000
REMARK  Name = *****
REMARK                            x       y       z     vdW  Elec       q    Type
REMARK                         _______ _______ _______ _____ _____    ______ ____
ROOT
ATOM      1  C   LIG    1       24.925 -20.378   4.960  0.00  0.00    +0.131 A 
ATOM      2  C   LIG    1       23.764 -20.600   5.759  0.00  0.00    +0.059 A 
ATOM      3  C   LIG    1       22.585 -19.879   5.470  0.00  0.00    +0.015 A 
ATOM      4  C   LIG    1       22.516 -18.970   4.423  0.00  0.00    +0.001 A 
ATOM      5  C   LIG    1       23.636 -18.765   3.634  0.00  0.00    +0.004 A 
ATOM      6  C   LIG    1       24.824 -19.451   3.911  0.00  0.00    +0.046 A 
ENDROOT
BRANCH   2   7
ATOM      7  C   LIG    1       23.620 -21.531   6.921  0.00  0.00    +0.167 C 
ATOM      8  O   LIG    1       23.424 -21.084   8.053  0.00  0.00    -0.292 OA
BRANCH   7   9
ATOM      9  C   LIG    1       23.591 -23.039   6.630  0.00  0.00    +0.084 C 
BRANCH   9  10
ATOM     10  C   LIG    1       24.907 -23.702   7.064  0.00  0.00    +0.043 C 
BRANCH  10  11
ATOM     11  C   LIG    1       25.107 -25.068   6.453  0.00  0.00    -0.047 A 
ATOM     12  C   LIG    1       24.007 -25.851   6.073  0.00  0.00    +0.003 A 
ATOM     13  C   LIG    1       24.198 -27.116   5.513  0.00  0.00    +0.000 A 
ATOM     14  C   LIG    1       25.487 -27.605   5.316  0.00  0.00    +0.000 A 
ATOM     15  C   LIG    1       26.587 -26.829   5.675  0.00  0.00    +0.000 A 
ATOM     16  C   LIG    1       26.399 -25.567   6.240  0.00  0.00    +0.003 A 
ENDBRANCH  10  11
ENDBRANCH   9  10
ENDBRANCH   7   9
ENDBRANCH   2   7
BRANCH   1  17
ATOM     17  O   LIG    1       26.123 -20.963   5.306  0.00  0.00    -0.489 OA
BRANCH  17  18
ATOM     18  C   LIG    1       26.986 -20.264   6.232  0.00  0.00    +0.261 C 
BRANCH  18  19
ATOM     19  C   LIG    1       27.251 -21.045   7.546  0.00  0.00    +0.166 C 
BRANCH  19  20
ATOM     20  O   LIG    1       26.536 -20.426   8.617  0.00  0.00    -0.387 OA
ATOM     21  H   LIG    1       26.035 -21.145   9.046  0.00  0.00    +0.210 HD
ENDBRANCH  19  20
BRANCH  19  22
ATOM     22  C   LIG    1       28.754 -21.200   7.915  0.00  0.00    +0.115 C 
BRANCH  22  23
ATOM     23  N   LIG    1       29.662 -20.765   6.810  0.00  0.00    -0.313 NA
ATOM     24  H   LIG    1       29.106 -20.356   6.057  0.00  0.00    +0.122 HD
BRANCH  23  25
ATOM     25  C   LIG    1       30.622 -19.749   7.290  0.00  0.00    +0.081 C 
BRANCH  25  27
ATOM     26  C   LIG    1       30.288 -17.903   9.108  0.00  0.00    +0.005 C 
ATOM     27  C   LIG    1       30.012 -18.390   7.691  0.00  0.00    +0.012 C 
ENDBRANCH  25  27
ENDBRANCH  23  25
ENDBRANCH  22  23
ENDBRANCH  19  22
ENDBRANCH  18  19
ENDBRANCH  17  18
ENDBRANCH   1  17
TORSDOF 12
ENDMDL
MODEL 2
REMARK VINA RESULT:      -8.5      1.009      1.191
REMARK  Name = *****
REMARK                            x       y       z     vdW  Elec       q    Type
REMARK                         _______ _______ _______ _____ _____    ______ ____
ROOT
ATOM      1  C   LIG    1       25.206 -20.334   4.956  0.00  0.00    +0.131 A 
ATOM      2  C   LIG    1       24.206 -20.542   5.953  0.00  0.00    +0.059 A 
ATOM      3  C   LIG    1       22.922 -19.990   5.760  0.00  0.00    +0.015 A 
ATOM      4  C   LIG    1       22.596 -19.261   4.624  0.00  0.00    +0.001 A 
ATOM      5  C   LIG    1       23.559 -19.072   3.647  0.00  0.00    +0.004 A 
ATOM      6  C   LIG    1       24.846 -19.591   3.821  0.00  0.00    +0.046 A 
ENDROOT
BRANCH   2   7
ATOM      7  C   LIG    1       24.342 -21.296   7.238  0.00  0.00    +0.167 C 
ATOM      8  O   LIG    1       24.490 -20.688   8.301  0.00  0.00    -0.292 OA
BRANCH   7   9
ATOM      9  C   LIG    1       24.158 -22.819   7.196  0.00  0.00    +0.084 C 
BRANCH   9  10
ATOM     10  C   LIG    1       25.517 -23.534   7.243  0.00  0.00    +0.043 C 
BRANCH  10  11
ATOM     11  C   LIG    1       25.530 -24.826   6.464  0.00  0.00    -0.047 A 
ATOM     12  C   LIG    1       25.167 -24.851   5.109  0.00  0.00    +0.003 A 
ATOM     13  C   LIG    1       25.175 -26.050   4.395  0.00  0.00    +0.000 A 
ATOM     14  C   LIG    1       25.558 -27.234   5.021  0.00  0.00    +0.000 A 
ATOM     15  C   LIG    1       25.937 -27.218   6.362  0.00  0.00    +0.000 A 
ATOM     16  C   LIG    1       25.924 -26.022   7.080  0.00  0.00    +0.003 A 
ENDBRANCH  10  11
ENDBRANCH   9  10
ENDBRANCH   7   9
ENDBRANCH   2   7
BRANCH   1  17
ATOM     17  O   LIG    1       26.502 -20.742   5.182  0.00  0.00    -0.489 OA
BRANCH  17  18
ATOM     18  C   LIG    1       27.379 -19.864   5.925  0.00  0.00    +0.261 C 
BRANCH  18  19
ATOM     19  C   LIG    1       28.084 -20.555   7.121  0.00  0.00    +0.166 C 
BRANCH  19  20
ATOM     20  O   LIG    1       27.394 -20.230   8.329  0.00  0.00    -0.387 OA
ATOM     21  H   LIG    1       27.552 -20.982   8.930  0.00  0.00    +0.210 HD
ENDBRANCH  19  20
BRANCH  19  22
ATOM     22  C   LIG    1       29.598 -20.227   7.257  0.00  0.00    +0.115 C 
BRANCH  22  23
ATOM     23  N   LIG    1       29.938 -19.635   8.586  0.00  0.00    -0.313 NA
ATOM     24  H   LIG    1       30.726 -20.143   8.991  0.00  0.00    +0.122 HD
BRANCH  23  25
ATOM     25  C   LIG    1       30.319 -18.214   8.444  0.00  0.00    +0.081 C 
BRANCH  25  27
ATOM     26  C   LIG    1       31.506 -16.853  10.331  0.00  0.00    +0.005 C 
ATOM     27  C   LIG    1       30.204 -17.361   9.725  0.00  0.00    +0.012 C 
ENDBRANCH  25  27
ENDBRANCH  23  25
ENDBRANCH  22  23
ENDBRANCH  19  22
ENDBRANCH  18  19
ENDBRANCH  17  18
ENDBRANCH   1  17
TORSDOF 12
ENDMDL
MODEL 3
REMARK VINA RESULT:      -8.3      1.934      3.847
REMARK  Name = *****
REMARK                            x       y       z     vdW  Elec       q    Type
REMARK                         _______ _______ _______ _____ _____    ______ ____
ROOT
ATOM      1  C   LIG    1       23.973 -21.666   6.945  0.00  0.00    +0.131 A 
ATOM      2  C   LIG    1       24.621 -22.933   7.058  0.00  0.00    +0.059 A 
ATOM      3  C   LIG    1       25.782 -23.039   7.854  0.00  0.00    +0.015 A 
ATOM      4  C   LIG    1       26.305 -21.952   8.542  0.00  0.00    +0.001 A 
ATOM      5  C   LIG    1       25.668 -20.726   8.449  0.00  0.00    +0.004 A 
ATOM      6  C   LIG    1       24.528 -20.587   7.651  0.00  0.00    +0.046 A 
ENDROOT
BRANCH   2   7
ATOM      7  C   LIG    1       24.224 -24.222   6.412  0.00  0.00    +0.167 C 
ATOM      8  O   LIG    1       23.133 -24.735   6.671  0.00  0.00    -0.292 OA
BRANCH   7   9
ATOM      9  C   LIG    1       25.154 -24.798   5.335  0.00  0.00    +0.084 C 
BRANCH   9  10
ATOM     10  C   LIG    1       26.161 -25.780   5.952  0.00  0.00    +0.043 C 
BRANCH  10  11
ATOM     11  C   LIG    1       25.539 -27.104   6.325  0.00  0.00    -0.047 A 
ATOM     12  C   LIG    1       24.657 -27.753   5.449  0.00  0.00    +0.003 A 
ATOM     13  C   LIG    1       24.080 -28.975   5.800  0.00  0.00    +0.000 A 
ATOM     14  C   LIG    1       24.388 -29.567   7.023  0.00  0.00    +0.000 A 
ATOM     15  C   LIG    1       25.276 -28.939   7.894  0.00  0.00    +0.000 A 
ATOM     16  C   LIG    1       25.849 -27.714   7.547  0.00  0.00    +0.003 A 
ENDBRANCH  10  11
ENDBRANCH   9  10
ENDBRANCH   7   9
ENDBRANCH   2   7
BRANCH   1  17
ATOM     17  O   LIG    1       22.923 -21.504   6.069  0.00  0.00    -0.489 OA
BRANCH  17  18
ATOM     18  C   LIG    1       22.906 -20.326   5.228  0.00  0.00    +0.261 C 
BRANCH  18  19
ATOM     19  C   LIG    1       23.786 -20.458   3.957  0.00  0.00    +0.166 C 
BRANCH  19  20
ATOM     20  O   LIG    1       24.038 -21.839   3.696  0.00  0.00    -0.387 OA
ATOM     21  H   LIG    1       24.512 -21.862   2.844  0.00  0.00    +0.210 HD
ENDBRANCH  19  20
BRANCH  19  22
ATOM     22  C   LIG    1       25.122 -19.663   4.011  0.00  0.00    +0.115 C 
BRANCH  22  23
ATOM     23  N   LIG    1       26.244 -20.468   4.584  0.00  0.00    -0.313 NA
ATOM     24  H   LIG    1       26.710 -20.979   3.834  0.00  0.00    +0.122 HD
BRANCH  23  25
ATOM     25  C   LIG    1       27.234 -19.592   5.243  0.00  0.00    +0.081 C 
BRANCH  25  27
ATOM     26  C   LIG    1       28.960 -19.664   7.201  0.00  0.00    +0.005 C 
ATOM     27  C   LIG    1       28.406 -20.314   5.940  0.00  0.00    +0.012 C 
ENDBRANCH  25  27
ENDBRANCH  23  25
ENDBRANCH  22  23
ENDBRANCH  19  22
ENDBRANCH  18  19
ENDBRANCH  17  18
ENDBRANCH   1  17
TORSDOF 12
ENDMDL
MODEL 4
REMARK VINA RESULT:      -8.2      2.160      3.394
REMARK  Name = *****
REMARK                            x       y       z     vdW  Elec       q    Type
REMARK                         _______ _______ _______ _____ _____    ______ ____
ROOT
ATOM      1  C   LIG    1       28.144 -20.210   7.219  0.00  0.00    +0.131 A 
ATOM      2  C   LIG    1       26.799 -20.684   7.287  0.00  0.00    +0.059 A 
ATOM      3  C   LIG    1       25.948 -20.491   6.178  0.00  0.00    +0.015 A 
ATOM      4  C   LIG    1       26.382 -19.867   5.016  0.00  0.00    +0.001 A 
ATOM      5  C   LIG    1       27.691 -19.423   4.939  0.00  0.00    +0.004 A 
ATOM      6  C   LIG    1       28.551 -19.582   6.031  0.00  0.00    +0.046 A 
ENDROOT
BRANCH   2   7
ATOM      7  C   LIG    1       26.135 -21.383   8.431  0.00  0.00    +0.167 C 
ATOM      8  O   LIG    1       25.684 -20.733   9.377  0.00  0.00    -0.292 OA
BRANCH   7   9
ATOM      9  C   LIG    1       25.923 -22.899   8.317  0.00  0.00    +0.084 C 
BRANCH   9  10
ATOM     10  C   LIG    1       24.846 -23.221   7.270  0.00  0.00    +0.043 C 
BRANCH  10  11
ATOM     11  C   LIG    1       25.022 -24.582   6.643  0.00  0.00    -0.047 A 
ATOM     12  C   LIG    1       23.920 -25.285   6.134  0.00  0.00    +0.003 A 
ATOM     13  C   LIG    1       24.088 -26.547   5.559  0.00  0.00    +0.000 A 
ATOM     14  C   LIG    1       25.358 -27.112   5.474  0.00  0.00    +0.000 A 
ATOM     15  C   LIG    1       26.462 -26.415   5.961  0.00  0.00    +0.000 A 
ATOM     16  C   LIG    1       26.296 -25.157   6.542  0.00  0.00    +0.003 A 
ENDBRANCH  10  11
ENDBRANCH   9  10
ENDBRANCH   7   9
ENDBRANCH   2   7
BRANCH   1  17
ATOM     17  O   LIG    1       28.951 -20.261   8.333  0.00  0.00    -0.489 OA
BRANCH  17  18
ATOM     18  C   LIG    1       30.108 -21.130   8.302  0.00  0.00    +0.261 C 
BRANCH  18  19
ATOM     19  C   LIG    1       31.458 -20.368   8.358  0.00  0.00    +0.166 C 
BRANCH  19  20
ATOM     20  O   LIG    1       32.279 -20.933   9.382  0.00  0.00    -0.387 OA
ATOM     21  H   LIG    1       31.845 -20.698  10.223  0.00  0.00    +0.210 HD
ENDBRANCH  19  20
BRANCH  19  22
ATOM     22  C   LIG    1       31.327 -18.831   8.554  0.00  0.00    +0.115 C 
BRANCH  22  23
ATOM     23  N   LIG    1       32.064 -18.343   9.759  0.00  0.00    -0.313 NA
ATOM     24  H   LIG    1       32.918 -18.890   9.877  0.00  0.00    +0.122 HD
BRANCH  23  25
ATOM     25  C   LIG    1       32.435 -16.921   9.606  0.00  0.00    +0.081 C 
BRANCH  25  27
ATOM     26  C   LIG    1       31.609 -16.366  12.021  0.00  0.00    +0.005 C 
ATOM     27  C   LIG    1       32.637 -16.138  10.920  0.00  0.00    +0.012 C 
ENDBRANCH  25  27
ENDBRANCH  23  25
ENDBRANCH  22  23
ENDBRANCH  19  22
ENDBRANCH  18  19
ENDBRANCH  17  18
ENDBRANCH   1  17
TORSDOF 12
ENDMDL
MODEL 5
REMARK VINA RESULT:      -8.2      1.675      6.834
REMARK  Name = *****
REMARK                            x       y       z     vdW  Elec       q    Type
REMARK                         _______ _______ _______ _____ _____    ______ ____
ROOT
ATOM      1  C   LIG    1       24.151 -20.398   6.308  0.00  0.00    +0.131 A 
ATOM      2  C   LIG    1       25.426 -20.392   5.666  0.00  0.00    +0.059 A 
ATOM      3  C   LIG    1       25.513 -19.976   4.321  0.00  0.00    +0.015 A 
ATOM      4  C   LIG    1       24.399 -19.559   3.604  0.00  0.00    +0.001 A 
ATOM      5  C   LIG    1       23.163 -19.546   4.229  0.00  0.00    +0.004 A 
ATOM      6  C   LIG    1       23.044 -19.972   5.556  0.00  0.00    +0.046 A 
ENDROOT
BRANCH   2   7
ATOM      7  C   LIG    1       26.743 -20.792   6.251  0.00  0.00    +0.167 C 
ATOM      8  O   LIG    1       26.856 -21.865   6.848  0.00  0.00    -0.292 OA
BRANCH   7   9
ATOM      9  C   LIG    1       27.955 -19.893   5.965  0.00  0.00    +0.084 C 
BRANCH   9  10
ATOM     10  C   LIG    1       29.230 -20.484   6.586  0.00  0.00    +0.043 C 
BRANCH  10  11
ATOM     11  C   LIG    1       29.960 -19.506   7.473  0.00  0.00    -0.047 A 
ATOM     12  C   LIG    1       29.289 -18.838   8.509  0.00  0.00    +0.003 A 
ATOM     13  C   LIG    1       29.968 -17.930   9.324  0.00  0.00    +0.000 A 
ATOM     14  C   LIG    1       31.325 -17.690   9.122  0.00  0.00    +0.000 A 
ATOM     15  C   LIG    1       32.006 -18.360   8.107  0.00  0.00    +0.000 A 
ATOM     16  C   LIG    1       31.328 -19.263   7.287  0.00  0.00    +0.003 A 
ENDBRANCH  10  11
ENDBRANCH   9  10
ENDBRANCH   7   9
ENDBRANCH   2   7
BRANCH   1  17
ATOM     17  O   LIG    1       24.016 -20.928   7.572  0.00  0.00    -0.489 OA
BRANCH  17  18
ATOM     18  C   LIG    1       23.139 -22.064   7.750  0.00  0.00    +0.261 C 
BRANCH  18  19
ATOM     19  C   LIG    1       23.265 -23.128   6.628  0.00  0.00    +0.166 C 
BRANCH  19  20
ATOM     20  O   LIG    1       22.059 -23.890   6.560  0.00  0.00    -0.387 OA
ATOM     21  H   LIG    1       22.125 -24.411   5.738  0.00  0.00    +0.210 HD
ENDBRANCH  19  20
BRANCH  19  22
ATOM     22  C   LIG    1       24.494 -24.071   6.767  0.00  0.00    +0.115 C 
BRANCH  22  23
ATOM     23  N   LIG    1       25.277 -24.181   5.498  0.00  0.00    -0.313 NA
ATOM     24  H   LIG    1       26.260 -23.986   5.690  0.00  0.00    +0.122 HD
BRANCH  23  25
ATOM     25  C   LIG    1       25.169 -25.542   4.933  0.00  0.00    +0.081 C 
BRANCH  25  27
ATOM     26  C   LIG    1       24.530 -28.035   5.377  0.00  0.00    +0.005 C 
ATOM     27  C   LIG    1       24.454 -26.581   5.822  0.00  0.00    +0.012 C 
ENDBRANCH  25  27
ENDBRANCH  23  25
ENDBRANCH  22  23
ENDBRANCH  19  22
ENDBRANCH  18  19
ENDBRANCH  17  18
ENDBRANCH   1  17
TORSDOF 12
ENDMDL
MODEL 6
REMARK VINA RESULT:      -8.0      1.783      6.405
REMARK  Name = *****
REMARK                            x       y       z     vdW  Elec       q    Type
REMARK                         _______ _______ _______ _____ _____    ______ ____
ROOT
ATOM      1  C   LIG    1       23.847 -22.981   7.041  0.00  0.00    +0.131 A 
ATOM      2  C   LIG    1       25.201 -23.051   7.488  0.00  0.00    +0.059 A 
ATOM      3  C   LIG    1       25.926 -24.245   7.287  0.00  0.00    +0.015 A 
ATOM      4  C   LIG    1       25.369 -25.349   6.656  0.00  0.00    +0.001 A 
ATOM      5  C   LIG    1       24.062 -25.278   6.206  0.00  0.00    +0.004 A 
ATOM      6  C   LIG    1       23.312 -24.114   6.409  0.00  0.00    +0.046 A 
ENDROOT
BRANCH   2   7
ATOM      7  C   LIG    1       25.990 -21.985   8.178  0.00  0.00    +0.167 C 
ATOM      8  O   LIG    1       25.549 -21.448   9.196  0.00  0.00    -0.292 OA
BRANCH   7   9
ATOM      9  C   LIG    1       27.403 -21.689   7.655  0.00  0.00    +0.084 C 
BRANCH   9  10
ATOM     10  C   LIG    1       27.541 -20.210   7.265  0.00  0.00    +0.043 C 
BRANCH  10  11
ATOM     11  C   LIG    1       28.909 -19.647   7.566  0.00  0.00    -0.047 A 
ATOM     12  C   LIG    1       29.163 -18.992   8.780  0.00  0.00    +0.003 A 
ATOM     13  C   LIG    1       30.428 -18.468   9.052  0.00  0.00    +0.000 A 
ATOM     14  C   LIG    1       31.455 -18.605   8.121  0.00  0.00    +0.000 A 
ATOM     15  C   LIG    1       31.219 -19.268   6.918  0.00  0.00    +0.000 A 
ATOM     16  C   LIG    1       29.953 -19.787   6.642  0.00  0.00    +0.003 A 
ENDBRANCH  10  11
ENDBRANCH   9  10
ENDBRANCH   7   9
ENDBRANCH   2   7
BRANCH   1  17
ATOM     17  O   LIG    1       23.076 -21.882   7.346  0.00  0.00    -0.489 OA
BRANCH  17  18
ATOM     18  C   LIG    1       23.326 -20.648   6.633  0.00  0.00    +0.261 C 
BRANCH  18  19
ATOM     19  C   LIG    1       22.766 -20.642   5.187  0.00  0.00    +0.166 C 
BRANCH  19  20
ATOM     20  O   LIG    1       21.653 -21.534   5.106  0.00  0.00    -0.387 OA
ATOM     21  H   LIG    1       20.900 -20.988   4.812  0.00  0.00    +0.210 HD
ENDBRANCH  19  20
BRANCH  19  22
ATOM     22  C   LIG    1       23.811 -20.979   4.086  0.00  0.00    +0.115 C 
BRANCH  22  23
ATOM     23  N   LIG    1       25.214 -20.948   4.601  0.00  0.00    -0.313 NA
ATOM     24  H   LIG    1       25.672 -21.835   4.388  0.00  0.00    +0.122 HD
BRANCH  23  25
ATOM     25  C   LIG    1       25.982 -19.857   3.965  0.00  0.00    +0.081 C 
BRANCH  25  27
ATOM     26  C   LIG    1       25.879 -17.328   3.320  0.00  0.00    +0.005 C 
ATOM     27  C   LIG    1       25.149 -18.658   3.465  0.00  0.00    +0.012 C 
ENDBRANCH  25  27
ENDBRANCH  23  25
ENDBRANCH  22  23
ENDBRANCH  19  22
ENDBRANCH  18  19
ENDBRANCH  17  18
ENDBRANCH   1  17
TORSDOF 12
ENDMDL
MODEL 7
REMARK VINA RESULT:      -7.9      2.053      6.513
REMARK  Name = *****
REMARK                            x       y       z     vdW  Elec       q    Type
REMARK                         _______ _______ _______ _____ _____    ______ ____
ROOT
ATOM      1  C   LIG    1       23.033 -22.143   6.463  0.00  0.00    +0.131 A 
ATOM      2  C   LIG    1       23.896 -21.007   6.416  0.00  0.00    +0.059 A 
ATOM      3  C   LIG    1       23.588 -19.948   5.535  0.00  0.00    +0.015 A 
ATOM      4  C   LIG    1       22.463 -19.971   4.721  0.00  0.00    +0.001 A 
ATOM      5  C   LIG    1       21.613 -21.063   4.778  0.00  0.00    +0.004 A 
ATOM      6  C   LIG    1       21.905 -22.136   5.627  0.00  0.00    +0.046 A 
ENDROOT
BRANCH   2   7
ATOM      7  C   LIG    1       25.146 -20.777   7.205  0.00  0.00    +0.167 C 
ATOM      8  O   LIG    1       25.088 -20.619   8.427  0.00  0.00    -0.292 OA
BRANCH   7   9
ATOM      9  C   LIG    1       26.488 -20.879   6.465  0.00  0.00    +0.084 C 
BRANCH   9  10
ATOM     10  C   LIG    1       27.567 -21.486   7.375  0.00  0.00    +0.043 C 
BRANCH  10  11
ATOM     11  C   LIG    1       28.858 -20.705   7.357  0.00  0.00    -0.047 A 
ATOM     12  C   LIG    1       29.896 -21.015   8.249  0.00  0.00    +0.003 A 
ATOM     13  C   LIG    1       31.087 -20.287   8.232  0.00  0.00    +0.000 A 
ATOM     14  C   LIG    1       31.259 -19.250   7.318  0.00  0.00    +0.000 A 
ATOM     15  C   LIG    1       30.241 -18.944   6.416  0.00  0.00    +0.000 A 
ATOM     16  C   LIG    1       29.047 -19.667   6.435  0.00  0.00    +0.003 A 
ENDBRANCH  10  11
ENDBRANCH   9  10
ENDBRANCH   7   9
ENDBRANCH   2   7
BRANCH   1  17
ATOM     17  O   LIG    1       23.383 -23.245   7.210  0.00  0.00    -0.489 OA
BRANCH  17  18
ATOM     18  C   LIG    1       23.725 -24.466   6.512  0.00  0.00    +0.261 C 
BRANCH  18  19
ATOM     19  C   LIG    1       25.099 -24.407   5.794  0.00  0.00    +0.166 C 
BRANCH  19  20
ATOM     20  O   LIG    1       24.894 -24.355   4.381  0.00  0.00    -0.387 OA
ATOM     21  H   LIG    1       24.413 -23.522   4.218  0.00  0.00    +0.210 HD
ENDBRANCH  19  20
BRANCH  19  22
ATOM     22  C   LIG    1       26.069 -25.566   6.158  0.00  0.00    +0.115 C 
BRANCH  22  23
ATOM     23  N   LIG    1       26.233 -26.548   5.043  0.00  0.00    -0.313 NA
ATOM     24  H   LIG    1       27.197 -26.881   5.024  0.00  0.00    +0.122 HD
BRANCH  23  25
ATOM     25  C   LIG    1       25.338 -27.709   5.231  0.00  0.00    +0.081 C 
BRANCH  25  27
ATOM     26  C   LIG    1       24.388 -29.427   6.953  0.00  0.00    +0.005 C 
ATOM     27  C   LIG    1       24.984 -28.050   6.693  0.00  0.00    +0.012 C 
ENDBRANCH  25  27
ENDBRANCH  23  25
ENDBRANCH  22  23
ENDBRANCH  19  22
ENDBRANCH  18  19
ENDBRANCH  17  18
ENDBRANCH   1  17
TORSDOF 12
ENDMDL
MODEL 8
REMARK VINA RESULT:      -7.8      1.249      4.848
REMARK  Name = *****
REMARK                            x       y       z     vdW  Elec       q    Type
REMARK                         _______ _______ _______ _____ _____    ______ ____
ROOT
ATOM      1  C   LIG    1       25.681 -24.409   6.971  0.00  0.00    +0.131 A 
ATOM      2  C   LIG    1       24.316 -24.392   6.552  0.00  0.00    +0.059 A 
ATOM      3  C   LIG    1       23.846 -25.420   5.708  0.00  0.00    +0.015 A 
ATOM      4  C   LIG    1       24.667 -26.456   5.281  0.00  0.00    +0.001 A 
ATOM      5  C   LIG    1       25.986 -26.486   5.701  0.00  0.00    +0.004 A 
ATOM      6  C   LIG    1       26.484 -25.469   6.522  0.00  0.00    +0.046 A 
ENDROOT
BRANCH   2   7
ATOM      7  C   LIG    1       23.268 -23.382   6.897  0.00  0.00    +0.167 C 
ATOM      8  O   LIG    1       22.075 -23.644   6.731  0.00  0.00    -0.292 OA
BRANCH   7   9
ATOM      9  C   LIG    1       23.724 -22.083   7.578  0.00  0.00    +0.084 C 
BRANCH   9  10
ATOM     10  C   LIG    1       22.930 -20.881   7.045  0.00  0.00    +0.043 C 
BRANCH  10  11
ATOM     11  C   LIG    1       23.527 -20.291   5.791  0.00  0.00    -0.047 A 
ATOM     12  C   LIG    1       22.755 -19.484   4.941  0.00  0.00    +0.003 A 
ATOM     13  C   LIG    1       23.311 -18.945   3.779  0.00  0.00    +0.000 A 
ATOM     14  C   LIG    1       24.644 -19.194   3.461  0.00  0.00    +0.000 A 
ATOM     15  C   LIG    1       25.424 -19.980   4.307  0.00  0.00    +0.000 A 
ATOM     16  C   LIG    1       24.869 -20.525   5.466  0.00  0.00    +0.003 A 
ENDBRANCH  10  11
ENDBRANCH   9  10
ENDBRANCH   7   9
ENDBRANCH   2   7
BRANCH   1  17
ATOM     17  O   LIG    1       26.198 -23.348   7.680  0.00  0.00    -0.489 OA
BRANCH  17  18
ATOM     18  C   LIG    1       27.145 -22.478   7.018  0.00  0.00    +0.261 C 
BRANCH  18  19
ATOM     19  C   LIG    1       27.859 -21.490   7.978  0.00  0.00    +0.166 C 
BRANCH  19  20
ATOM     20  O   LIG    1       26.889 -20.860   8.816  0.00  0.00    -0.387 OA
ATOM     21  H   LIG    1       27.401 -20.337   9.461  0.00  0.00    +0.210 HD
ENDBRANCH  19  20
BRANCH  19  22
ATOM     22  C   LIG    1       28.740 -20.422   7.270  0.00  0.00    +0.115 C 
BRANCH  22  23
ATOM     23  N   LIG    1       30.202 -20.664   7.468  0.00  0.00    -0.313 NA
ATOM     24  H   LIG    1       30.642 -20.826   6.561  0.00  0.00    +0.122 HD
BRANCH  23  25
ATOM     25  C   LIG    1       30.845 -19.494   8.101  0.00  0.00    +0.081 C 
BRANCH  25  27
ATOM     26  C   LIG    1       30.505 -17.316   9.502  0.00  0.00    +0.005 C 
ATOM     27  C   LIG    1       29.885 -18.425   8.662  0.00  0.00    +0.012 C 
ENDBRANCH  25  27
ENDBRANCH  23  25
ENDBRANCH  22  23
ENDBRANCH  19  22
ENDBRANCH  18  19
ENDBRANCH  17  18
ENDBRANCH   1  17
TORSDOF 12
ENDMDL
MODEL 9
REMARK VINA RESULT:      -7.7      2.844      7.304
REMARK  Name = *****
REMARK                            x       y       z     vdW  Elec       q    Type
REMARK                         _______ _______ _______ _____ _____    ______ ____
ROOT
ATOM      1  C   LIG    1       24.838 -23.128   7.068  0.00  0.00    +0.131 A 
ATOM      2  C   LIG    1       25.251 -21.779   7.286  0.00  0.00    +0.059 A 
ATOM      3  C   LIG    1       24.321 -20.737   7.085  0.00  0.00    +0.015 A 
ATOM      4  C   LIG    1       23.011 -20.984   6.695  0.00  0.00    +0.001 A 
ATOM      5  C   LIG    1       22.602 -22.292   6.500  0.00  0.00    +0.004 A 
ATOM      6  C   LIG    1       23.508 -23.344   6.672  0.00  0.00    +0.046 A 
ENDROOT
BRANCH   2   7
ATOM      7  C   LIG    1       26.601 -21.296   7.712  0.00  0.00    +0.167 C 
ATOM      8  O   LIG    1       27.094 -21.690   8.772  0.00  0.00    -0.292 OA
BRANCH   7   9
ATOM      9  C   LIG    1       27.387 -20.414   6.731  0.00  0.00    +0.084 C 
BRANCH   9  10
ATOM     10  C   LIG    1       28.845 -20.887   6.622  0.00  0.00    +0.043 C 
BRANCH  10  11
ATOM     11  C   LIG    1       29.786 -20.098   7.500  0.00  0.00    -0.047 A 
ATOM     12  C   LIG    1       29.786 -18.696   7.473  0.00  0.00    +0.003 A 
ATOM     13  C   LIG    1       30.662 -17.971   8.283  0.00  0.00    +0.000 A 
ATOM     14  C   LIG    1       31.538 -18.638   9.136  0.00  0.00    +0.000 A 
ATOM     15  C   LIG    1       31.536 -20.031   9.182  0.00  0.00    +0.000 A 
ATOM     16  C   LIG    1       30.665 -20.758   8.369  0.00  0.00    +0.003 A 
ENDBRANCH  10  11
ENDBRANCH   9  10
ENDBRANCH   7   9
ENDBRANCH   2   7
BRANCH   1  17
ATOM     17  O   LIG    1       25.759 -24.150   7.123  0.00  0.00    -0.489 OA
BRANCH  17  18
ATOM     18  C   LIG    1       25.882 -25.025   5.977  0.00  0.00    +0.261 C 
BRANCH  18  19
ATOM     19  C   LIG    1       26.261 -26.483   6.347  0.00  0.00    +0.166 C 
BRANCH  19  20
ATOM     20  O   LIG    1       27.409 -26.880   5.596  0.00  0.00    -0.387 OA
ATOM     21  H   LIG    1       27.960 -26.078   5.519  0.00  0.00    +0.210 HD
ENDBRANCH  19  20
BRANCH  19  22
ATOM     22  C   LIG    1       25.111 -27.515   6.166  0.00  0.00    +0.115 C 
BRANCH  22  23
ATOM     23  N   LIG    1       25.539 -28.910   6.489  0.00  0.00    -0.313 NA
ATOM     24  H   LIG    1       26.554 -28.936   6.598  0.00  0.00    +0.122 HD
BRANCH  23  25
ATOM     25  C   LIG    1       24.920 -29.369   7.750  0.00  0.00    +0.081 C 
BRANCH  25  27
ATOM     26  C   LIG    1       26.600 -28.469   9.536  0.00  0.00    +0.005 C 
ATOM     27  C   LIG    1       25.898 -29.665   8.906  0.00  0.00    +0.012 C 
ENDBRANCH  25  27
ENDBRANCH  23  25
ENDBRANCH  22  23
ENDBRANCH  19  22
ENDBRANCH  18  19
ENDBRANCH  17  18
ENDBRANCH   1  17
TORSDOF 12
ENDMDL
