MODEL 1
REMARK VINA RESULT:      -5.0      0.000      0.000
REMARK  Name = *****
REMARK                            x       y       z     vdW  Elec       q    Type
REMARK                         _______ _______ _______ _____ _____    ______ ____
ROOT
ATOM      1  C   LIG    1       23.357 -23.324   6.766  0.00  0.00    +0.045 C 
ATOM      2  C   LIG    1       24.680 -22.715   6.268  0.00  0.00    +0.107 C 
ATOM      3  C   LIG    1       25.843 -23.427   6.986  0.00  0.00    +0.045 C 
ENDROOT
BRANCH   2   4
ATOM      4  C   LIG    1       24.729 -21.146   6.448  0.00  0.00    +0.218 C 
ATOM      5 CL   LIG    1       25.434 -20.671   8.041  0.00  0.00    -0.080 Cl
ATOM      6 CL   LIG    1       23.083 -20.409   6.357  0.00  0.00    -0.080 Cl
ATOM      7 CL   LIG    1       25.730 -20.356   5.169  0.00  0.00    -0.080 Cl
ENDBRANCH   2   4
BRANCH   2   8
ATOM      8  O   LIG    1       24.789 -23.066   4.868  0.00  0.00    -0.385 OA
ATOM      9  H   LIG    1       23.949 -23.465   4.580  0.00  0.00    +0.210 HD
ENDBRANCH   2   8
TORSDOF 2
ENDMDL
MODEL 2
REMARK VINA RESULT:      -5.0      0.007      1.777
REMARK  Name = *****
REMARK                            x       y       z     vdW  Elec       q    Type
REMARK                         _______ _______ _______ _____ _____    ______ ____
ROOT
ATOM      1  C   LIG    1       23.362 -23.325   6.768  0.00  0.00    +0.045 C 
ATOM      2  C   LIG    1       24.682 -22.714   6.263  0.00  0.00    +0.107 C 
ATOM      3  C   LIG    1       25.850 -23.424   6.975  0.00  0.00    +0.045 C 
ENDROOT
BRANCH   2   4
ATOM      4  C   LIG    1       24.730 -21.145   6.442  0.00  0.00    +0.218 C 
ATOM      5 CL   LIG    1       25.734 -20.349   5.170  0.00  0.00    -0.080 Cl
ATOM      6 CL   LIG    1       25.428 -20.674   8.039  0.00  0.00    -0.080 Cl
ATOM      7 CL   LIG    1       23.082 -20.411   6.351  0.00  0.00    -0.080 Cl
ENDBRANCH   2   4
BRANCH   2   8
ATOM      8  O   LIG    1       24.785 -23.066   4.863  0.00  0.00    -0.385 OA
ATOM      9  H   LIG    1       25.727 -23.173   4.636  0.00  0.00    +0.210 HD
ENDBRANCH   2   8
TORSDOF 2
ENDMDL
MODEL 3
REMARK VINA RESULT:      -5.0      0.008      1.779
REMARK  Name = *****
REMARK                            x       y       z     vdW  Elec       q    Type
REMARK                         _______ _______ _______ _____ _____    ______ ____
ROOT
ATOM      1  C   LIG    1       23.362 -23.325   6.766  0.00  0.00    +0.045 C 
ATOM      2  C   LIG    1       24.682 -22.712   6.263  0.00  0.00    +0.107 C 
ATOM      3  C   LIG    1       25.849 -23.420   6.977  0.00  0.00    +0.045 C 
ENDROOT
BRANCH   2   4
ATOM      4  C   LIG    1       24.727 -21.142   6.442  0.00  0.00    +0.218 C 
ATOM      5 CL   LIG    1       23.082 -20.405   6.349  0.00  0.00    -0.080 Cl
ATOM      6 CL   LIG    1       25.734 -20.351   5.170  0.00  0.00    -0.080 Cl
ATOM      7 CL   LIG    1       25.430 -20.671   8.038  0.00  0.00    -0.080 Cl
ENDBRANCH   2   4
BRANCH   2   8
ATOM      8  O   LIG    1       24.788 -23.063   4.863  0.00  0.00    -0.385 OA
ATOM      9  H   LIG    1       24.212 -23.829   4.689  0.00  0.00    +0.210 HD
ENDBRANCH   2   8
TORSDOF 2
ENDMDL
MODEL 4
REMARK VINA RESULT:      -4.7      2.257      3.195
REMARK  Name = *****
REMARK                            x       y       z     vdW  Elec       q    Type
REMARK                         _______ _______ _______ _____ _____    ______ ____
ROOT
ATOM      1  C   LIG    1       25.496 -20.750   5.609  0.00  0.00    +0.045 C 
ATOM      2  C   LIG    1       24.244 -21.632   5.455  0.00  0.00    +0.107 C 
ATOM      3  C   LIG    1       23.020 -20.823   5.925  0.00  0.00    +0.045 C 
ENDROOT
BRANCH   2   4
ATOM      4  C   LIG    1       24.382 -23.013   6.211  0.00  0.00    +0.218 C 
ATOM      5 CL   LIG    1       25.047 -24.306   5.140  0.00  0.00    -0.080 Cl
ATOM      6 CL   LIG    1       22.789 -23.603   6.825  0.00  0.00    -0.080 Cl
ATOM      7 CL   LIG    1       25.482 -22.889   7.638  0.00  0.00    -0.080 Cl
ENDBRANCH   2   4
BRANCH   2   8
ATOM      8  O   LIG    1       24.069 -21.849   4.036  0.00  0.00    -0.385 OA
ATOM      9  H   LIG    1       24.654 -22.575   3.756  0.00  0.00    +0.210 HD
ENDBRANCH   2   8
TORSDOF 2
ENDMDL
MODEL 5
REMARK VINA RESULT:      -4.7      2.221      3.239
REMARK  Name = *****
REMARK                            x       y       z     vdW  Elec       q    Type
REMARK                         _______ _______ _______ _____ _____    ______ ____
ROOT
ATOM      1  C   LIG    1       25.443 -20.680   5.487  0.00  0.00    +0.045 C 
ATOM      2  C   LIG    1       24.180 -21.556   5.409  0.00  0.00    +0.107 C 
ATOM      3  C   LIG    1       22.976 -20.714   5.874  0.00  0.00    +0.045 C 
ENDROOT
BRANCH   2   4
ATOM      4  C   LIG    1       24.327 -22.902   6.225  0.00  0.00    +0.218 C 
ATOM      5 CL   LIG    1       25.383 -22.701   7.675  0.00  0.00    -0.080 Cl
ATOM      6 CL   LIG    1       25.050 -24.218   5.221  0.00  0.00    -0.080 Cl
ATOM      7 CL   LIG    1       22.730 -23.506   6.812  0.00  0.00    -0.080 Cl
ENDBRANCH   2   4
BRANCH   2   8
ATOM      8  O   LIG    1       23.963 -21.837   4.007  0.00  0.00    -0.385 OA
ATOM      9  H   LIG    1       23.004 -21.876   3.840  0.00  0.00    +0.210 HD
ENDBRANCH   2   8
TORSDOF 2
ENDMDL
MODEL 6
REMARK VINA RESULT:      -4.7      1.716      2.789
REMARK  Name = *****
REMARK                            x       y       z     vdW  Elec       q    Type
REMARK                         _______ _______ _______ _____ _____    ______ ____
ROOT
ATOM      1  C   LIG    1       25.719 -22.862   6.643  0.00  0.00    +0.045 C 
ATOM      2  C   LIG    1       24.784 -22.128   5.664  0.00  0.00    +0.107 C 
ATOM      3  C   LIG    1       25.482 -20.833   5.205  0.00  0.00    +0.045 C 
ENDROOT
BRANCH   2   4
ATOM      4  C   LIG    1       23.354 -21.858   6.281  0.00  0.00    +0.218 C 
ATOM      5 CL   LIG    1       22.250 -21.054   5.100  0.00  0.00    -0.080 Cl
ATOM      6 CL   LIG    1       23.443 -20.789   7.734  0.00  0.00    -0.080 Cl
ATOM      7 CL   LIG    1       22.550 -23.388   6.802  0.00  0.00    -0.080 Cl
ENDBRANCH   2   4
BRANCH   2   8
ATOM      8  O   LIG    1       24.677 -22.970   4.492  0.00  0.00    -0.385 OA
ATOM      9  H   LIG    1       24.881 -23.888   4.748  0.00  0.00    +0.210 HD
ENDBRANCH   2   8
TORSDOF 2
ENDMDL
MODEL 7
REMARK VINA RESULT:      -4.6      2.374      3.047
REMARK  Name = *****
REMARK                            x       y       z     vdW  Elec       q    Type
REMARK                         _______ _______ _______ _____ _____    ______ ____
ROOT
ATOM      1  C   LIG    1       25.682 -20.598   5.662  0.00  0.00    +0.045 C 
ATOM      2  C   LIG    1       24.464 -20.806   4.743  0.00  0.00    +0.107 C 
ATOM      3  C   LIG    1       24.664 -19.957   3.473  0.00  0.00    +0.045 C 
ENDROOT
BRANCH   2   4
ATOM      4  C   LIG    1       23.096 -20.492   5.471  0.00  0.00    +0.218 C 
ATOM      5 CL   LIG    1       23.266 -20.518   7.268  0.00  0.00    -0.080 Cl
ATOM      6 CL   LIG    1       21.818 -21.693   5.043  0.00  0.00    -0.080 Cl
ATOM      7 CL   LIG    1       22.459 -18.863   5.022  0.00  0.00    -0.080 Cl
ENDBRANCH   2   4
BRANCH   2   8
ATOM      8  O   LIG    1       24.504 -22.189   4.319  0.00  0.00    -0.385 OA
ATOM      9  H   LIG    1       23.854 -22.315   3.605  0.00  0.00    +0.210 HD
ENDBRANCH   2   8
TORSDOF 2
ENDMDL
MODEL 8
REMARK VINA RESULT:      -4.6      2.178      3.339
REMARK  Name = *****
REMARK                            x       y       z     vdW  Elec       q    Type
REMARK                         _______ _______ _______ _____ _____    ______ ____
ROOT
ATOM      1  C   LIG    1       25.100 -19.637   3.846  0.00  0.00    +0.045 C 
ATOM      2  C   LIG    1       24.072 -20.536   4.559  0.00  0.00    +0.107 C 
ATOM      3  C   LIG    1       22.776 -19.727   4.758  0.00  0.00    +0.045 C 
ENDROOT
BRANCH   2   4
ATOM      4  C   LIG    1       24.628 -21.131   5.914  0.00  0.00    +0.218 C 
ATOM      5 CL   LIG    1       26.230 -20.425   6.355  0.00  0.00    -0.080 Cl
ATOM      6 CL   LIG    1       24.846 -22.921   5.819  0.00  0.00    -0.080 Cl
ATOM      7 CL   LIG    1       23.509 -20.811   7.294  0.00  0.00    -0.080 Cl
ENDBRANCH   2   4
BRANCH   2   8
ATOM      8  O   LIG    1       23.750 -21.601   3.634  0.00  0.00    -0.385 OA
ATOM      9  H   LIG    1       23.800 -21.252   2.726  0.00  0.00    +0.210 HD
ENDBRANCH   2   8
TORSDOF 2
ENDMDL
MODEL 9
REMARK VINA RESULT:      -4.6      2.151      3.280
REMARK  Name = *****
REMARK                            x       y       z     vdW  Elec       q    Type
REMARK                         _______ _______ _______ _____ _____    ______ ____
ROOT
ATOM      1  C   LIG    1       25.151 -19.750   3.916  0.00  0.00    +0.045 C 
ATOM      2  C   LIG    1       24.078 -20.580   4.645  0.00  0.00    +0.107 C 
ATOM      3  C   LIG    1       22.839 -19.690   4.861  0.00  0.00    +0.045 C 
ENDROOT
BRANCH   2   4
ATOM      4  C   LIG    1       24.613 -21.208   5.993  0.00  0.00    +0.218 C 
ATOM      5 CL   LIG    1       23.433 -21.010   7.345  0.00  0.00    -0.080 Cl
ATOM      6 CL   LIG    1       26.159 -20.440   6.524  0.00  0.00    -0.080 Cl
ATOM      7 CL   LIG    1       24.934 -22.977   5.826  0.00  0.00    -0.080 Cl
ENDBRANCH   2   4
BRANCH   2   8
ATOM      8  O   LIG    1       23.676 -21.623   3.727  0.00  0.00    -0.385 OA
ATOM      9  H   LIG    1       23.286 -21.210   2.936  0.00  0.00    +0.210 HD
ENDBRANCH   2   8
TORSDOF 2
ENDMDL
