MODEL 1
REMARK VINA RESULT:      -8.9      0.000      0.000
REMARK  Name = *****
REMARK                            x       y       z     vdW  Elec       q    Type
REMARK                         _______ _______ _______ _____ _____    ______ ____
ROOT
ATOM      1  C   LIG    1       26.171 -32.520   6.028  0.00  0.00    +0.121 A 
ATOM      2  C   LIG    1       26.264 -31.885   7.261  0.00  0.00    +0.060 A 
ATOM      3  C   LIG    1       25.820 -30.560   7.425  0.00  0.00    +0.062 A 
ATOM      4  C   LIG    1       25.312 -29.824   6.327  0.00  0.00    +0.046 A 
ATOM      5  C   LIG    1       25.140 -30.512   5.115  0.00  0.00    +0.027 A 
ATOM      6  C   LIG    1       25.574 -31.841   4.970  0.00  0.00    +0.047 A 
ENDROOT
BRANCH   3   7
ATOM      7  C   LIG    1       25.804 -29.968   8.807  0.00  0.00    +0.251 C 
ATOM      8  N   LIG    1       27.057 -29.735   9.365  0.00  0.00    -0.266 N 
ATOM      9  H   LIG    1       27.872 -29.858   8.793  0.00  0.00    +0.157 HD
ATOM     10  O   LIG    1       24.728 -29.727   9.304  0.00  0.00    -0.270 OA
BRANCH   8  11
ATOM     11  C   LIG    1       27.269 -29.180  10.634  0.00  0.00    +0.125 A 
ATOM     12  N   LIG    1       27.885 -29.883  11.597  0.00  0.00    -0.239 NA
ATOM     13  C   LIG    1       27.926 -29.358  12.844  0.00  0.00    +0.133 A 
ATOM     14  C   LIG    1       27.397 -28.124  13.173  0.00  0.00    +0.059 A 
ATOM     15 CL   LIG    1       27.411 -27.557  14.791  0.00  0.00    -0.082 Cl
ATOM     16  C   LIG    1       26.818 -27.372  12.161  0.00  0.00    +0.025 A 
ATOM     17  C   LIG    1       26.753 -27.904  10.870  0.00  0.00    +0.045 A 
ENDBRANCH   8  11
ENDBRANCH   3   7
BRANCH   4  18
ATOM     18  N   LIG    1       25.049 -28.430   6.472  0.00  0.00    -0.281 N 
ATOM     19  H   LIG    1       24.328 -28.207   7.154  0.00  0.00    +0.155 HD
ATOM     20  C   LIG    1       25.670 -27.365   5.838  0.00  0.00    +0.248 C 
ATOM     21  O   LIG    1       26.589 -27.457   5.034  0.00  0.00    -0.270 OA
BRANCH  20  22
ATOM     22  C   LIG    1       25.191 -25.985   6.207  0.00  0.00    +0.037 A 
ATOM     23  C   LIG    1       23.849 -25.581   6.194  0.00  0.00    +0.014 A 
ATOM     24  C   LIG    1       23.504 -24.243   6.495  0.00  0.00    +0.016 A 
ATOM     25  C   LIG    1       24.490 -23.296   6.820  0.00  0.00    +0.065 A 
ATOM     26  C   LIG    1       25.826 -23.707   6.840  0.00  0.00    +0.016 A 
ATOM     27  C   LIG    1       26.170 -25.031   6.532  0.00  0.00    +0.014 A 
BRANCH  25  28
ATOM     28  C   LIG    1       24.151 -21.873   7.215  0.00  0.00    +0.312 C 
ATOM     29  N   LIG    1       23.159 -21.635   8.023  0.00  0.00    -0.099 NA
ATOM     30  H   LIG    1       22.696 -22.491   8.329  0.00  0.00    +0.363 HD
BRANCH  28  31
ATOM     31  N   LIG    1       24.941 -20.805   6.783  0.00  0.00    -0.226 N 
ATOM     32  C   LIG    1       26.210 -20.531   7.461  0.00  0.00    +0.276 C 
ATOM     33  C   LIG    1       24.987 -20.539   5.341  0.00  0.00    +0.276 C 
ENDBRANCH  28  31
ENDBRANCH  25  28
ENDBRANCH  20  22
ENDBRANCH   4  18
BRANCH   1  35
ATOM     34  C   LIG    1       27.914 -33.822   5.069  0.00  0.00    +0.277 C 
ATOM     35  O   LIG    1       26.662 -33.762   5.744  0.00  0.00    -0.495 OA
ENDBRANCH   1  35
TORSDOF 7
ENDMDL
MODEL 2
REMARK VINA RESULT:      -8.6      4.979      8.458
REMARK  Name = *****
REMARK                            x       y       z     vdW  Elec       q    Type
REMARK                         _______ _______ _______ _____ _____    ______ ____
ROOT
ATOM      1  C   LIG    1       24.329 -26.743   6.078  0.00  0.00    +0.121 A 
ATOM      2  C   LIG    1       23.826 -25.448   6.120  0.00  0.00    +0.060 A 
ATOM      3  C   LIG    1       24.688 -24.344   6.259  0.00  0.00    +0.062 A 
ATOM      4  C   LIG    1       26.084 -24.529   6.409  0.00  0.00    +0.046 A 
ATOM      5  C   LIG    1       26.579 -25.835   6.271  0.00  0.00    +0.027 A 
ATOM      6  C   LIG    1       25.708 -26.927   6.117  0.00  0.00    +0.047 A 
ENDROOT
BRANCH   3   7
ATOM      7  C   LIG    1       24.113 -22.959   6.151  0.00  0.00    +0.251 C 
ATOM      8  N   LIG    1       24.312 -22.330   4.927  0.00  0.00    -0.266 N 
ATOM      9  H   LIG    1       24.709 -22.857   4.171  0.00  0.00    +0.157 HD
ATOM     10  O   LIG    1       23.519 -22.520   7.109  0.00  0.00    -0.270 OA
BRANCH   8  11
ATOM     11  C   LIG    1       23.851 -21.045   4.611  0.00  0.00    +0.125 A 
ATOM     12  N   LIG    1       24.647 -20.164   3.987  0.00  0.00    -0.239 NA
ATOM     13  C   LIG    1       24.203 -18.892   3.845  0.00  0.00    +0.133 A 
ATOM     14  C   LIG    1       22.963 -18.460   4.279  0.00  0.00    +0.059 A 
ATOM     15 CL   LIG    1       22.500 -16.816   4.140  0.00  0.00    -0.082 Cl
ATOM     16  C   LIG    1       22.117 -19.391   4.865  0.00  0.00    +0.025 A 
ATOM     17  C   LIG    1       22.564 -20.704   5.034  0.00  0.00    +0.045 A 
ENDBRANCH   8  11
ENDBRANCH   3   7
BRANCH   4  18
ATOM     18  N   LIG    1       26.912 -23.415   6.740  0.00  0.00    -0.281 N 
ATOM     19  H   LIG    1       27.601 -23.177   6.030  0.00  0.00    +0.155 HD
ATOM     20  C   LIG    1       26.865 -22.613   7.870  0.00  0.00    +0.248 C 
ATOM     21  O   LIG    1       26.065 -22.729   8.790  0.00  0.00    -0.270 OA
BRANCH  20  22
ATOM     22  C   LIG    1       27.863 -21.486   7.941  0.00  0.00    +0.037 A 
ATOM     23  C   LIG    1       27.602 -20.169   7.537  0.00  0.00    +0.014 A 
ATOM     24  C   LIG    1       28.624 -19.194   7.582  0.00  0.00    +0.016 A 
ATOM     25  C   LIG    1       29.915 -19.516   8.036  0.00  0.00    +0.065 A 
ATOM     26  C   LIG    1       30.166 -20.829   8.445  0.00  0.00    +0.016 A 
ATOM     27  C   LIG    1       29.156 -21.800   8.392  0.00  0.00    +0.014 A 
BRANCH  25  28
ATOM     28  C   LIG    1       31.015 -18.482   8.162  0.00  0.00    +0.312 C 
ATOM     29  N   LIG    1       32.038 -18.511   7.359  0.00  0.00    -0.099 NA
ATOM     30  H   LIG    1       31.976 -19.271   6.681  0.00  0.00    +0.363 HD
BRANCH  28  31
ATOM     31  N   LIG    1       30.911 -17.439   9.086  0.00  0.00    -0.226 N 
ATOM     32  C   LIG    1       30.222 -17.672  10.356  0.00  0.00    +0.276 C 
ATOM     33  C   LIG    1       32.055 -16.528   9.207  0.00  0.00    +0.276 C 
ENDBRANCH  28  31
ENDBRANCH  25  28
ENDBRANCH  20  22
ENDBRANCH   4  18
BRANCH   1  35
ATOM     34  C   LIG    1       24.255 -29.101   5.783  0.00  0.00    +0.277 C 
ATOM     35  O   LIG    1       23.572 -27.880   6.045  0.00  0.00    -0.495 OA
ENDBRANCH   1  35
TORSDOF 7
ENDMDL
MODEL 3
REMARK VINA RESULT:      -8.3      5.439      8.690
REMARK  Name = *****
REMARK                            x       y       z     vdW  Elec       q    Type
REMARK                         _______ _______ _______ _____ _____    ______ ____
ROOT
ATOM      1  C   LIG    1       25.003 -24.724   6.583  0.00  0.00    +0.121 A 
ATOM      2  C   LIG    1       25.962 -23.822   7.026  0.00  0.00    +0.060 A 
ATOM      3  C   LIG    1       25.874 -22.457   6.699  0.00  0.00    +0.062 A 
ATOM      4  C   LIG    1       24.832 -21.975   5.870  0.00  0.00    +0.046 A 
ATOM      5  C   LIG    1       23.824 -22.883   5.511  0.00  0.00    +0.027 A 
ATOM      6  C   LIG    1       23.917 -24.242   5.857  0.00  0.00    +0.047 A 
ENDROOT
BRANCH   3   7
ATOM      7  C   LIG    1       26.851 -21.499   7.323  0.00  0.00    +0.251 C 
ATOM      8  N   LIG    1       28.131 -21.523   6.780  0.00  0.00    -0.266 N 
ATOM      9  H   LIG    1       28.298 -22.070   5.956  0.00  0.00    +0.157 HD
ATOM     10  O   LIG    1       26.450 -20.785   8.213  0.00  0.00    -0.270 OA
BRANCH   8  11
ATOM     11  C   LIG    1       29.188 -20.706   7.204  0.00  0.00    +0.125 A 
ATOM     12  N   LIG    1       29.902 -21.019   8.297  0.00  0.00    -0.239 NA
ATOM     13  C   LIG    1       30.808 -20.118   8.747  0.00  0.00    +0.133 A 
ATOM     14  C   LIG    1       31.060 -18.909   8.125  0.00  0.00    +0.059 A 
ATOM     15 CL   LIG    1       32.161 -17.781   8.798  0.00  0.00    -0.082 Cl
ATOM     16  C   LIG    1       30.366 -18.618   6.959  0.00  0.00    +0.025 A 
ATOM     17  C   LIG    1       29.416 -19.529   6.488  0.00  0.00    +0.045 A 
ENDBRANCH   8  11
ENDBRANCH   3   7
BRANCH   4  18
ATOM     18  N   LIG    1       24.871 -20.630   5.397  0.00  0.00    -0.281 N 
ATOM     19  H   LIG    1       25.211 -19.954   6.077  0.00  0.00    +0.155 HD
ATOM     20  C   LIG    1       24.544 -20.150   4.138  0.00  0.00    +0.248 C 
ATOM     21  O   LIG    1       24.172 -20.833   3.192  0.00  0.00    -0.270 OA
BRANCH  20  22
ATOM     22  C   LIG    1       24.702 -18.667   3.917  0.00  0.00    +0.037 A 
ATOM     23  C   LIG    1       25.876 -18.054   3.460  0.00  0.00    +0.014 A 
ATOM     24  C   LIG    1       25.947 -16.647   3.345  0.00  0.00    +0.016 A 
ATOM     25  C   LIG    1       24.848 -15.835   3.678  0.00  0.00    +0.065 A 
ATOM     26  C   LIG    1       23.677 -16.454   4.125  0.00  0.00    +0.016 A 
ATOM     27  C   LIG    1       23.609 -17.849   4.249  0.00  0.00    +0.014 A 
BRANCH  25  28
ATOM     28  C   LIG    1       24.866 -14.331   3.503  0.00  0.00    +0.312 C 
ATOM     29  N   LIG    1       23.778 -13.696   3.176  0.00  0.00    -0.099 NA
ATOM     30  H   LIG    1       22.979 -14.322   3.078  0.00  0.00    +0.363 HD
BRANCH  28  31
ATOM     31  N   LIG    1       26.024 -13.596   3.764  0.00  0.00    -0.226 N 
ATOM     32  C   LIG    1       26.570 -13.575   5.122  0.00  0.00    +0.276 C 
ATOM     33  C   LIG    1       27.060 -13.575   2.724  0.00  0.00    +0.276 C 
ENDBRANCH  28  31
ENDBRANCH  25  28
ENDBRANCH  20  22
ENDBRANCH   4  18
BRANCH   1  35
ATOM     34  C   LIG    1       24.480 -26.885   5.739  0.00  0.00    +0.277 C 
ATOM     35  O   LIG    1       25.052 -26.077   6.762  0.00  0.00    -0.495 OA
ENDBRANCH   1  35
TORSDOF 7
ENDMDL
MODEL 4
REMARK VINA RESULT:      -8.0      4.814     10.188
REMARK  Name = *****
REMARK                            x       y       z     vdW  Elec       q    Type
REMARK                         _______ _______ _______ _____ _____    ______ ____
ROOT
ATOM      1  C   LIG    1       29.954 -19.142   7.409  0.00  0.00    +0.121 A 
ATOM      2  C   LIG    1       28.922 -19.140   6.478  0.00  0.00    +0.060 A 
ATOM      3  C   LIG    1       28.064 -20.247   6.350  0.00  0.00    +0.062 A 
ATOM      4  C   LIG    1       28.260 -21.411   7.133  0.00  0.00    +0.046 A 
ATOM      5  C   LIG    1       29.247 -21.358   8.130  0.00  0.00    +0.027 A 
ATOM      6  C   LIG    1       30.087 -20.238   8.257  0.00  0.00    +0.047 A 
ENDROOT
BRANCH   3   7
ATOM      7  C   LIG    1       26.875 -20.140   5.435  0.00  0.00    +0.251 C 
ATOM      8  N   LIG    1       25.637 -20.207   6.064  0.00  0.00    -0.266 N 
ATOM      9  H   LIG    1       25.602 -20.204   7.067  0.00  0.00    +0.157 HD
ATOM     10  O   LIG    1       27.086 -19.986   4.254  0.00  0.00    -0.270 OA
BRANCH   8  11
ATOM     11  C   LIG    1       24.405 -20.117   5.402  0.00  0.00    +0.125 A 
ATOM     12  N   LIG    1       24.188 -19.166   4.480  0.00  0.00    -0.239 NA
ATOM     13  C   LIG    1       22.935 -19.030   3.986  0.00  0.00    +0.133 A 
ATOM     14  C   LIG    1       21.874 -19.837   4.354  0.00  0.00    +0.059 A 
ATOM     15 CL   LIG    1       20.296 -19.554   3.749  0.00  0.00    -0.082 Cl
ATOM     16  C   LIG    1       22.118 -20.860   5.259  0.00  0.00    +0.025 A 
ATOM     17  C   LIG    1       23.401 -21.007   5.792  0.00  0.00    +0.045 A 
ENDBRANCH   8  11
ENDBRANCH   3   7
BRANCH   4  18
ATOM     18  N   LIG    1       27.502 -22.587   6.852  0.00  0.00    -0.281 N 
ATOM     19  H   LIG    1       27.959 -23.242   6.223  0.00  0.00    +0.155 HD
ATOM     20  C   LIG    1       26.262 -22.952   7.354  0.00  0.00    +0.248 C 
ATOM     21  O   LIG    1       25.604 -22.307   8.160  0.00  0.00    -0.270 OA
BRANCH  20  22
ATOM     22  C   LIG    1       25.708 -24.274   6.889  0.00  0.00    +0.037 A 
ATOM     23  C   LIG    1       24.386 -24.477   6.470  0.00  0.00    +0.014 A 
ATOM     24  C   LIG    1       23.941 -25.771   6.113  0.00  0.00    +0.016 A 
ATOM     25  C   LIG    1       24.811 -26.875   6.161  0.00  0.00    +0.065 A 
ATOM     26  C   LIG    1       26.130 -26.664   6.571  0.00  0.00    +0.016 A 
ATOM     27  C   LIG    1       26.569 -25.383   6.936  0.00  0.00    +0.014 A 
BRANCH  25  28
ATOM     28  C   LIG    1       24.389 -28.262   5.720  0.00  0.00    +0.312 C 
ATOM     29  N   LIG    1       23.644 -28.416   4.664  0.00  0.00    -0.099 NA
ATOM     30  H   LIG    1       23.422 -27.528   4.215  0.00  0.00    +0.363 HD
BRANCH  28  31
ATOM     31  N   LIG    1       24.853 -29.396   6.390  0.00  0.00    -0.226 N 
ATOM     32  C   LIG    1       24.219 -29.798   7.647  0.00  0.00    +0.276 C 
ATOM     33  C   LIG    1       25.285 -30.534   5.570  0.00  0.00    +0.276 C 
ENDBRANCH  28  31
ENDBRANCH  25  28
ENDBRANCH  20  22
ENDBRANCH   4  18
BRANCH   1  35
ATOM     34  C   LIG    1       31.663 -18.163   8.741  0.00  0.00    +0.277 C 
ATOM     35  O   LIG    1       30.896 -18.162   7.542  0.00  0.00    -0.495 OA
ENDBRANCH   1  35
TORSDOF 7
ENDMDL
MODEL 5
REMARK VINA RESULT:      -8.0      3.794      9.238
REMARK  Name = *****
REMARK                            x       y       z     vdW  Elec       q    Type
REMARK                         _______ _______ _______ _____ _____    ______ ____
ROOT
ATOM      1  C   LIG    1       22.595 -19.789   5.380  0.00  0.00    +0.121 A 
ATOM      2  C   LIG    1       23.761 -19.998   6.105  0.00  0.00    +0.060 A 
ATOM      3  C   LIG    1       24.245 -21.299   6.334  0.00  0.00    +0.062 A 
ATOM      4  C   LIG    1       23.529 -22.430   5.871  0.00  0.00    +0.046 A 
ATOM      5  C   LIG    1       22.406 -22.195   5.063  0.00  0.00    +0.027 A 
ATOM      6  C   LIG    1       21.943 -20.889   4.830  0.00  0.00    +0.047 A 
ENDROOT
BRANCH   3   7
ATOM      7  C   LIG    1       25.585 -21.467   6.994  0.00  0.00    +0.251 C 
ATOM      8  N   LIG    1       26.599 -20.662   6.488  0.00  0.00    -0.266 N 
ATOM      9  H   LIG    1       26.366 -19.954   5.817  0.00  0.00    +0.157 HD
ATOM     10  O   LIG    1       25.667 -22.257   7.907  0.00  0.00    -0.270 OA
BRANCH   8  11
ATOM     11  C   LIG    1       27.917 -20.652   6.966  0.00  0.00    +0.125 A 
ATOM     12  N   LIG    1       28.304 -21.500   7.931  0.00  0.00    -0.239 NA
ATOM     13  C   LIG    1       29.541 -21.343   8.460  0.00  0.00    +0.133 A 
ATOM     14  C   LIG    1       30.438 -20.379   8.038  0.00  0.00    +0.059 A 
ATOM     15 CL   LIG    1       31.957 -20.185   8.809  0.00  0.00    -0.082 Cl
ATOM     16  C   LIG    1       30.058 -19.547   6.995  0.00  0.00    +0.025 A 
ATOM     17  C   LIG    1       28.780 -19.684   6.447  0.00  0.00    +0.045 A 
ENDBRANCH   8  11
ENDBRANCH   3   7
BRANCH   4  18
ATOM     18  N   LIG    1       23.934 -23.736   6.278  0.00  0.00    -0.281 N 
ATOM     19  H   LIG    1       23.633 -23.997   7.214  0.00  0.00    +0.155 HD
ATOM     20  C   LIG    1       24.639 -24.684   5.552  0.00  0.00    +0.248 C 
ATOM     21  O   LIG    1       25.026 -24.551   4.398  0.00  0.00    -0.270 OA
BRANCH  20  22
ATOM     22  C   LIG    1       24.911 -25.998   6.240  0.00  0.00    +0.037 A 
ATOM     23  C   LIG    1       25.890 -26.190   7.223  0.00  0.00    +0.014 A 
ATOM     24  C   LIG    1       26.114 -27.477   7.765  0.00  0.00    +0.016 A 
ATOM     25  C   LIG    1       25.360 -28.584   7.339  0.00  0.00    +0.065 A 
ATOM     26  C   LIG    1       24.378 -28.383   6.364  0.00  0.00    +0.016 A 
ATOM     27  C   LIG    1       24.162 -27.110   5.819  0.00  0.00    +0.014 A 
BRANCH  25  28
ATOM     28  C   LIG    1       25.525 -29.962   7.946  0.00  0.00    +0.312 C 
ATOM     29  N   LIG    1       26.168 -30.890   7.300  0.00  0.00    -0.099 NA
ATOM     30  H   LIG    1       26.523 -30.562   6.402  0.00  0.00    +0.363 HD
BRANCH  28  31
ATOM     31  N   LIG    1       25.059 -30.235   9.234  0.00  0.00    -0.226 N 
ATOM     32  C   LIG    1       23.618 -30.257   9.487  0.00  0.00    +0.276 C 
ATOM     33  C   LIG    1       25.800 -31.225  10.024  0.00  0.00    +0.276 C 
ENDBRANCH  28  31
ENDBRANCH  25  28
ENDBRANCH  20  22
ENDBRANCH   4  18
BRANCH   1  35
ATOM     34  C   LIG    1       22.621 -17.683   4.276  0.00  0.00    +0.277 C 
ATOM     35  O   LIG    1       21.994 -18.577   5.189  0.00  0.00    -0.495 OA
ENDBRANCH   1  35
TORSDOF 7
ENDMDL
MODEL 6
REMARK VINA RESULT:      -7.7      4.984      9.017
REMARK  Name = *****
REMARK                            x       y       z     vdW  Elec       q    Type
REMARK                         _______ _______ _______ _____ _____    ______ ____
ROOT
ATOM      1  C   LIG    1       21.018 -20.049   4.216  0.00  0.00    +0.121 A 
ATOM      2  C   LIG    1       21.524 -21.232   4.740  0.00  0.00    +0.060 A 
ATOM      3  C   LIG    1       22.750 -21.249   5.430  0.00  0.00    +0.062 A 
ATOM      4  C   LIG    1       23.522 -20.069   5.565  0.00  0.00    +0.046 A 
ATOM      5  C   LIG    1       22.951 -18.871   5.110  0.00  0.00    +0.027 A 
ATOM      6  C   LIG    1       21.718 -18.866   4.437  0.00  0.00    +0.047 A 
ENDROOT
BRANCH   3   7
ATOM      7  C   LIG    1       23.183 -22.521   6.105  0.00  0.00    +0.251 C 
ATOM      8  N   LIG    1       23.955 -23.373   5.322  0.00  0.00    -0.266 N 
ATOM      9  H   LIG    1       24.269 -23.054   4.424  0.00  0.00    +0.157 HD
ATOM     10  O   LIG    1       22.851 -22.688   7.256  0.00  0.00    -0.270 OA
BRANCH   8  11
ATOM     11  C   LIG    1       24.471 -24.601   5.758  0.00  0.00    +0.125 A 
ATOM     12  N   LIG    1       23.803 -25.743   5.537  0.00  0.00    -0.239 NA
ATOM     13  C   LIG    1       24.269 -26.877   6.112  0.00  0.00    +0.133 A 
ATOM     14  C   LIG    1       25.414 -26.928   6.887  0.00  0.00    +0.059 A 
ATOM     15 CL   LIG    1       25.900 -28.382   7.653  0.00  0.00    -0.082 Cl
ATOM     16  C   LIG    1       26.137 -25.756   7.060  0.00  0.00    +0.025 A 
ATOM     17  C   LIG    1       25.662 -24.573   6.486  0.00  0.00    +0.045 A 
ENDBRANCH   8  11
ENDBRANCH   3   7
BRANCH   4  18
ATOM     18  N   LIG    1       24.844 -20.148   6.096  0.00  0.00    -0.281 N 
ATOM     19  H   LIG    1       24.890 -20.139   7.112  0.00  0.00    +0.155 HD
ATOM     20  C   LIG    1       26.042 -20.271   5.409  0.00  0.00    +0.248 C 
ATOM     21  O   LIG    1       26.158 -20.350   4.193  0.00  0.00    -0.270 OA
BRANCH  20  22
ATOM     22  C   LIG    1       27.295 -20.351   6.244  0.00  0.00    +0.037 A 
ATOM     23  C   LIG    1       27.452 -21.181   7.361  0.00  0.00    +0.014 A 
ATOM     24  C   LIG    1       28.644 -21.139   8.120  0.00  0.00    +0.016 A 
ATOM     25  C   LIG    1       29.696 -20.274   7.769  0.00  0.00    +0.065 A 
ATOM     26  C   LIG    1       29.537 -19.455   6.648  0.00  0.00    +0.016 A 
ATOM     27  C   LIG    1       28.351 -19.489   5.901  0.00  0.00    +0.014 A 
BRANCH  25  28
ATOM     28  C   LIG    1       31.013 -20.252   8.518  0.00  0.00    +0.312 C 
ATOM     29  N   LIG    1       31.773 -21.308   8.540  0.00  0.00    -0.099 NA
ATOM     30  H   LIG    1       31.375 -22.082   8.007  0.00  0.00    +0.363 HD
BRANCH  28  31
ATOM     31  N   LIG    1       31.468 -19.080   9.126  0.00  0.00    -0.226 N 
ATOM     32  C   LIG    1       32.223 -18.106   8.334  0.00  0.00    +0.276 C 
ATOM     33  C   LIG    1       30.596 -18.458  10.129  0.00  0.00    +0.276 C 
ENDBRANCH  28  31
ENDBRANCH  25  28
ENDBRANCH  20  22
ENDBRANCH   4  18
BRANCH   1  35
ATOM     34  C   LIG    1       19.486 -18.635   3.072  0.00  0.00    +0.277 C 
ATOM     35  O   LIG    1       19.891 -19.946   3.450  0.00  0.00    -0.495 OA
ENDBRANCH   1  35
TORSDOF 7
ENDMDL
MODEL 7
REMARK VINA RESULT:      -7.1      1.891      2.216
REMARK  Name = *****
REMARK                            x       y       z     vdW  Elec       q    Type
REMARK                         _______ _______ _______ _____ _____    ______ ____
ROOT
ATOM      1  C   LIG    1       25.351 -31.352   5.540  0.00  0.00    +0.121 A 
ATOM      2  C   LIG    1       25.606 -30.926   6.838  0.00  0.00    +0.060 A 
ATOM      3  C   LIG    1       25.493 -29.568   7.188  0.00  0.00    +0.062 A 
ATOM      4  C   LIG    1       25.163 -28.594   6.214  0.00  0.00    +0.046 A 
ATOM      5  C   LIG    1       24.819 -29.055   4.933  0.00  0.00    +0.027 A 
ATOM      6  C   LIG    1       24.921 -30.417   4.603  0.00  0.00    +0.047 A 
ENDROOT
BRANCH   3   7
ATOM      7  C   LIG    1       25.634 -29.178   8.633  0.00  0.00    +0.251 C 
ATOM      8  N   LIG    1       24.920 -29.964   9.530  0.00  0.00    -0.266 N 
ATOM      9  H   LIG    1       24.460 -30.789   9.192  0.00  0.00    +0.157 HD
ATOM     10  O   LIG    1       26.359 -28.246   8.896  0.00  0.00    -0.270 OA
BRANCH   8  11
ATOM     11  C   LIG    1       24.920 -29.781  10.920  0.00  0.00    +0.125 A 
ATOM     12  N   LIG    1       23.815 -29.364  11.558  0.00  0.00    -0.239 NA
ATOM     13  C   LIG    1       23.915 -29.057  12.873  0.00  0.00    +0.133 A 
ATOM     14  C   LIG    1       25.084 -29.181  13.602  0.00  0.00    +0.059 A 
ATOM     15 CL   LIG    1       25.158 -28.695  15.244  0.00  0.00    -0.082 Cl
ATOM     16  C   LIG    1       26.207 -29.674  12.953  0.00  0.00    +0.025 A 
ATOM     17  C   LIG    1       26.127 -29.981  11.592  0.00  0.00    +0.045 A 
ENDBRANCH   8  11
ENDBRANCH   3   7
BRANCH   4  18
ATOM     18  N   LIG    1       25.242 -27.209   6.545  0.00  0.00    -0.281 N 
ATOM     19  H   LIG    1       26.055 -26.955   7.101  0.00  0.00    +0.155 HD
ATOM     20  C   LIG    1       24.382 -26.185   6.178  0.00  0.00    +0.248 C 
ATOM     21  O   LIG    1       23.392 -26.310   5.469  0.00  0.00    -0.270 OA
BRANCH  20  22
ATOM     22  C   LIG    1       24.731 -24.802   6.665  0.00  0.00    +0.037 A 
ATOM     23  C   LIG    1       23.809 -23.757   6.813  0.00  0.00    +0.014 A 
ATOM     24  C   LIG    1       24.244 -22.474   7.217  0.00  0.00    +0.016 A 
ATOM     25  C   LIG    1       25.600 -22.219   7.485  0.00  0.00    +0.065 A 
ATOM     26  C   LIG    1       26.513 -23.268   7.344  0.00  0.00    +0.016 A 
ATOM     27  C   LIG    1       26.085 -24.538   6.934  0.00  0.00    +0.014 A 
BRANCH  25  28
ATOM     28  C   LIG    1       26.092 -20.876   7.986  0.00  0.00    +0.312 C 
ATOM     29  N   LIG    1       25.757 -20.456   9.170  0.00  0.00    -0.099 NA
ATOM     30  H   LIG    1       25.171 -21.126   9.668  0.00  0.00    +0.363 HD
BRANCH  28  31
ATOM     31  N   LIG    1       26.970 -20.107   7.219  0.00  0.00    -0.226 N 
ATOM     32  C   LIG    1       28.365 -19.975   7.643  0.00  0.00    +0.276 C 
ATOM     33  C   LIG    1       26.810 -20.152   5.761  0.00  0.00    +0.276 C 
ENDBRANCH  28  31
ENDBRANCH  25  28
ENDBRANCH  20  22
ENDBRANCH   4  18
BRANCH   1  35
ATOM     34  C   LIG    1       24.803 -33.657   5.745  0.00  0.00    +0.277 C 
ATOM     35  O   LIG    1       25.527 -32.626   5.081  0.00  0.00    -0.495 OA
ENDBRANCH   1  35
TORSDOF 7
ENDMDL
MODEL 8
REMARK VINA RESULT:      -6.2      4.094      5.912
REMARK  Name = *****
REMARK                            x       y       z     vdW  Elec       q    Type
REMARK                         _______ _______ _______ _____ _____    ______ ____
ROOT
ATOM      1  C   LIG    1       20.750 -32.670  12.859  0.00  0.00    +0.121 A 
ATOM      2  C   LIG    1       21.768 -31.849  13.328  0.00  0.00    +0.060 A 
ATOM      3  C   LIG    1       22.446 -30.974  12.459  0.00  0.00    +0.062 A 
ATOM      4  C   LIG    1       22.141 -30.944  11.077  0.00  0.00    +0.046 A 
ATOM      5  C   LIG    1       21.050 -31.712  10.642  0.00  0.00    +0.027 A 
ATOM      6  C   LIG    1       20.371 -32.570  11.524  0.00  0.00    +0.047 A 
ENDROOT
BRANCH   3   7
ATOM      7  C   LIG    1       23.436 -30.002  13.039  0.00  0.00    +0.251 C 
ATOM      8  N   LIG    1       23.466 -28.753  12.427  0.00  0.00    -0.266 N 
ATOM      9  H   LIG    1       22.772 -28.535  11.737  0.00  0.00    +0.157 HD
ATOM     10  O   LIG    1       24.097 -30.367  13.983  0.00  0.00    -0.270 OA
BRANCH   8  11
ATOM     11  C   LIG    1       24.304 -27.700  12.816  0.00  0.00    +0.125 A 
ATOM     12  N   LIG    1       25.607 -27.704  12.496  0.00  0.00    -0.239 NA
ATOM     13  C   LIG    1       26.399 -26.742  13.027  0.00  0.00    +0.133 A 
ATOM     14  C   LIG    1       25.932 -25.737  13.854  0.00  0.00    +0.059 A 
ATOM     15 CL   LIG    1       27.005 -24.599  14.557  0.00  0.00    -0.082 Cl
ATOM     16  C   LIG    1       24.573 -25.697  14.129  0.00  0.00    +0.025 A 
ATOM     17  C   LIG    1       23.743 -26.691  13.603  0.00  0.00    +0.045 A 
ENDBRANCH   8  11
ENDBRANCH   3   7
BRANCH   4  18
ATOM     18  N   LIG    1       22.968 -30.195  10.187  0.00  0.00    -0.281 N 
ATOM     19  H   LIG    1       22.828 -29.188  10.231  0.00  0.00    +0.155 HD
ATOM     20  C   LIG    1       23.942 -30.661   9.319  0.00  0.00    +0.248 C 
ATOM     21  O   LIG    1       24.272 -31.832   9.185  0.00  0.00    -0.270 OA
BRANCH  20  22
ATOM     22  C   LIG    1       24.677 -29.625   8.507  0.00  0.00    +0.037 A 
ATOM     23  C   LIG    1       25.758 -28.869   8.978  0.00  0.00    +0.014 A 
ATOM     24  C   LIG    1       26.342 -27.873   8.161  0.00  0.00    +0.016 A 
ATOM     25  C   LIG    1       25.859 -27.624   6.864  0.00  0.00    +0.065 A 
ATOM     26  C   LIG    1       24.785 -28.388   6.398  0.00  0.00    +0.016 A 
ATOM     27  C   LIG    1       24.199 -29.369   7.211  0.00  0.00    +0.014 A 
BRANCH  25  28
ATOM     28  C   LIG    1       26.503 -26.613   5.937  0.00  0.00    +0.312 C 
ATOM     29  N   LIG    1       27.518 -26.955   5.199  0.00  0.00    -0.099 NA
ATOM     30  H   LIG    1       27.779 -27.933   5.327  0.00  0.00    +0.363 HD
BRANCH  28  31
ATOM     31  N   LIG    1       25.971 -25.329   5.802  0.00  0.00    -0.226 N 
ATOM     32  C   LIG    1       24.938 -25.082   4.795  0.00  0.00    +0.276 C 
ATOM     33  C   LIG    1       25.783 -24.544   7.028  0.00  0.00    +0.276 C 
ENDBRANCH  28  31
ENDBRANCH  25  28
ENDBRANCH  20  22
ENDBRANCH   4  18
BRANCH   1  35
ATOM     34  C   LIG    1       18.705 -33.433  13.802  0.00  0.00    +0.277 C 
ATOM     35  O   LIG    1       20.102 -33.619  13.598  0.00  0.00    -0.495 OA
ENDBRANCH   1  35
TORSDOF 7
ENDMDL
