MODEL 1
REMARK VINA RESULT:      -6.9      0.000      0.000
REMARK  Name = *****
REMARK                            x       y       z     vdW  Elec       q    Type
REMARK                         _______ _______ _______ _____ _____    ______ ____
ROOT
ATOM      1  C   LIG    1       25.743 -16.924   3.324  0.00  0.00    +0.015 C 
ATOM      2  C   LIG    1       25.659 -15.593   3.438  0.00  0.00    -0.000 C 
ATOM      3  C   LIG    1       26.721 -14.578   3.034  0.00  0.00    +0.029 C 
ATOM      4  C   LIG    1       26.655 -13.540   4.189  0.00  0.00    -0.016 C 
ATOM      5  C   LIG    1       25.137 -13.276   3.974  0.00  0.00    +0.036 C 
ATOM      6  C   LIG    1       25.040 -12.916   2.469  0.00  0.00    +0.015 C 
ATOM      7  C   LIG    1       24.453 -12.305   4.907  0.00  0.00    +0.020 C 
ATOM      8  C   LIG    1       27.023 -14.113   5.575  0.00  0.00    +0.012 C 
ATOM      9  C   LIG    1       27.563 -12.314   3.968  0.00  0.00    +0.012 C 
ATOM     10  C   LIG    1       26.138 -13.802   1.829  0.00  0.00    +0.010 C 
ATOM     11  C   LIG    1       24.597 -14.705   4.040  0.00  0.00    +0.166 C 
ATOM     12  O   LIG    1       23.503 -15.047   4.446  0.00  0.00    -0.292 OA
ENDROOT
BRANCH   1  17
ATOM     13  C   LIG    1       21.888 -20.956   4.852  0.00  0.00    +0.044 C 
ATOM     14  C   LIG    1       22.873 -19.906   4.433  0.00  0.00    -0.050 A 
ATOM     15  C   LIG    1       22.507 -18.556   4.415  0.00  0.00    +0.004 A 
ATOM     16  C   LIG    1       23.436 -17.572   4.062  0.00  0.00    +0.008 A 
ATOM     17  C   LIG    1       24.754 -17.919   3.748  0.00  0.00    -0.025 A 
ATOM     18  C   LIG    1       25.120 -19.270   3.768  0.00  0.00    +0.008 A 
ATOM     19  C   LIG    1       24.191 -20.255   4.117  0.00  0.00    +0.004 A 
ENDBRANCH   1  17
TORSDOF 1
ENDMDL
MODEL 2
REMARK VINA RESULT:      -4.1      1.591      6.691
REMARK  Name = *****
REMARK                            x       y       z     vdW  Elec       q    Type
REMARK                         _______ _______ _______ _____ _____    ______ ____
ROOT
ATOM      1  C   LIG    1       23.845 -17.185   3.686  0.00  0.00    +0.015 C 
ATOM      2  C   LIG    1       23.944 -18.487   3.978  0.00  0.00    -0.000 C 
ATOM      3  C   LIG    1       22.811 -19.506   3.985  0.00  0.00    +0.029 C 
ATOM      4  C   LIG    1       23.135 -20.365   5.239  0.00  0.00    -0.016 C 
ATOM      5  C   LIG    1       24.561 -20.721   4.728  0.00  0.00    +0.036 C 
ATOM      6  C   LIG    1       24.306 -21.301   3.313  0.00  0.00    +0.015 C 
ATOM      7  C   LIG    1       25.435 -21.572   5.618  0.00  0.00    +0.020 C 
ATOM      8  C   LIG    1       23.100 -19.581   6.569  0.00  0.00    +0.012 C 
ATOM      9  C   LIG    1       22.193 -21.572   5.419  0.00  0.00    +0.012 C 
ATOM     10  C   LIG    1       23.096 -20.474   2.811  0.00  0.00    +0.010 C 
ATOM     11  C   LIG    1       25.111 -19.320   4.452  0.00  0.00    +0.166 C 
ATOM     12  O   LIG    1       26.272 -18.969   4.542  0.00  0.00    -0.292 OA
ENDROOT
BRANCH   1  17
ATOM     13  C   LIG    1       27.943 -13.103   3.723  0.00  0.00    +0.044 C 
ATOM     14  C   LIG    1       26.882 -14.162   3.686  0.00  0.00    -0.050 A 
ATOM     15  C   LIG    1       27.202 -15.474   3.320  0.00  0.00    +0.004 A 
ATOM     16  C   LIG    1       26.221 -16.471   3.323  0.00  0.00    +0.008 A 
ATOM     17  C   LIG    1       24.912 -16.180   3.718  0.00  0.00    -0.025 A 
ATOM     18  C   LIG    1       24.594 -14.868   4.085  0.00  0.00    +0.008 A 
ATOM     19  C   LIG    1       25.572 -13.869   4.080  0.00  0.00    +0.004 A 
ENDBRANCH   1  17
TORSDOF 1
ENDMDL
