MODEL 1
REMARK VINA RESULT:       5.3      0.000      0.000
REMARK  Name = *****
REMARK                            x       y       z     vdW  Elec       q    Type
REMARK                         _______ _______ _______ _____ _____    ______ ____
ROOT
ATOM      1  O   LIG    1       25.797 -19.222   1.813  0.00  0.00    -0.270 OA
ATOM      2  C   LIG    1       25.004 -19.345   2.747  0.00  0.00    +0.271 C 
ATOM      3  C   LIG    1       25.183 -18.675   4.167  0.00  0.00    +0.236 C 
ATOM      4  O   LIG    1       24.065 -18.776   5.076  0.00  0.00    -0.465 OA
ATOM      5  C   LIG    1       23.111 -19.714   4.811  0.00  0.00    +0.144 A 
ATOM      6  C   LIG    1       23.013 -20.411   3.613  0.00  0.00    +0.076 A 
ATOM      7  C   LIG    1       21.985 -21.337   3.416  0.00  0.00    +0.027 A 
ATOM      8  C   LIG    1       21.056 -21.570   4.431  0.00  0.00    +0.002 A 
ATOM      9  C   LIG    1       21.145 -20.866   5.630  0.00  0.00    +0.004 A 
ATOM     10  C   LIG    1       22.169 -19.934   5.817  0.00  0.00    +0.048 A 
ATOM     11  N   LIG    1       23.929 -20.184   2.595  0.00  0.00    -0.279 N 
ATOM     12  H   LIG    1       23.850 -20.658   1.706  0.00  0.00    +0.155 HD
ENDROOT
BRANCH   3  13
ATOM     13  C   LIG    1       25.410 -17.147   3.941  0.00  0.00    +0.009 A 
ATOM     14  C   LIG    1       24.343 -16.234   4.075  0.00  0.00    +0.012 A 
ATOM     15  C   LIG    1       24.534 -14.861   3.884  0.00  0.00    +0.046 A 
ATOM     16  C   LIG    1       25.786 -14.380   3.536  0.00  0.00    +0.117 A 
ATOM     17  C   LIG    1       26.856 -15.252   3.371  0.00  0.00    +0.046 A 
ATOM     18  C   LIG    1       26.666 -16.627   3.567  0.00  0.00    +0.012 A 
BRANCH  16  19
ATOM     19  O   LIG    1       25.927 -13.035   3.361  0.00  0.00    -0.507 OA
ATOM     20  H   LIG    1       25.228 -12.725   2.762  0.00  0.00    +0.292 HD
ENDBRANCH  16  19
ENDBRANCH   3  13
BRANCH   3  21
ATOM     21  C   LIG    1       26.356 -19.331   4.957  0.00  0.00    +0.009 A 
ATOM     22  C   LIG    1       27.694 -18.910   4.824  0.00  0.00    +0.012 A 
ATOM     23  C   LIG    1       28.722 -19.539   5.531  0.00  0.00    +0.046 A 
ATOM     24  C   LIG    1       28.434 -20.597   6.378  0.00  0.00    +0.117 A 
ATOM     25  C   LIG    1       27.129 -21.045   6.530  0.00  0.00    +0.046 A 
ATOM     26  C   LIG    1       26.099 -20.418   5.821  0.00  0.00    +0.012 A 
BRANCH  24  27
ATOM     27  O   LIG    1       29.472 -21.176   7.045  0.00  0.00    -0.507 OA
ATOM     28  H   LIG    1       29.302 -21.114   8.000  0.00  0.00    +0.292 HD
ENDBRANCH  24  27
ENDBRANCH   3  21
TORSDOF 4
ENDMDL
