MODEL 1
REMARK VINA RESULT:      -2.0      0.000      0.000
REMARK  Name = *****
REMARK                            x       y       z     vdW  Elec       q    Type
REMARK                         _______ _______ _______ _____ _____    ______ ____
ROOT
ATOM      1  C   LIG    1       22.950 -11.447   3.455  0.00  0.00    +0.105 C 
ATOM      2  N   LIG    1       24.254 -11.961   3.855  0.00  0.00    -0.301 NA
ATOM      3  C   LIG    1       24.220 -13.171   4.717  0.00  0.00    +0.069 C 
ATOM      4  C   LIG    1       25.598 -13.896   4.792  0.00  0.00    +0.043 C 
ATOM      5  C   LIG    1       25.866 -14.364   3.333  0.00  0.00    +0.048 C 
ATOM      6  C   LIG    1       27.247 -14.957   3.032  0.00  0.00    +0.217 C 
ATOM      7  O   LIG    1       27.214 -16.394   3.336  0.00  0.00    -0.481 OA
ATOM      8  C   LIG    1       25.872 -16.707   3.358  0.00  0.00    +0.166 A 
ATOM      9  C   LIG    1       25.348 -17.940   3.659  0.00  0.00    +0.159 A 
ATOM     10  C   LIG    1       23.995 -18.045   3.989  0.00  0.00    +0.049 A 
ATOM     11  C   LIG    1       23.183 -16.882   4.096  0.00  0.00    +0.008 A 
ATOM     12  C   LIG    1       23.738 -15.637   3.830  0.00  0.00    -0.038 A 
ATOM     13  C   LIG    1       28.358 -14.173   3.770  0.00  0.00    +0.178 C 
ATOM     14  C   LIG    1       28.041 -13.759   5.178  0.00  0.00    +0.004 C 
ATOM     15  C   LIG    1       25.046 -15.604   3.347  0.00  0.00    +0.012 A 
ATOM     16  C   LIG    1       25.379 -13.427   2.210  0.00  0.00    +0.031 C 
ATOM     17  C   LIG    1       26.793 -13.480   5.592  0.00  0.00    -0.023 C 
ATOM     18  C   LIG    1       23.137 -14.311   4.345  0.00  0.00    +0.055 C 
ATOM     19  C   LIG    1       25.181 -12.018   2.725  0.00  0.00    +0.085 C 
ENDROOT
BRANCH   9  20
ATOM     20  O   LIG    1       26.142 -19.045   3.727  0.00  0.00    -0.503 OA
ATOM     21  H   LIG    1       27.045 -18.712   3.881  0.00  0.00    +0.292 HD
ENDBRANCH   9  20
BRANCH  13  22
ATOM     22  O   LIG    1       28.606 -12.940   3.074  0.00  0.00    -0.384 OA
ATOM     23  H   LIG    1       28.045 -12.914   2.278  0.00  0.00    +0.210 HD
ENDBRANCH  13  22
TORSDOF 2
ENDMDL
MODEL 2
REMARK VINA RESULT:      -0.6      2.088      3.754
REMARK  Name = *****
REMARK                            x       y       z     vdW  Elec       q    Type
REMARK                         _______ _______ _______ _____ _____    ______ ____
ROOT
ATOM      1  C   LIG    1       29.343 -13.322   3.690  0.00  0.00    +0.105 C 
ATOM      2  N   LIG    1       27.939 -13.022   3.437  0.00  0.00    -0.301 NA
ATOM      3  C   LIG    1       27.213 -14.032   2.624  0.00  0.00    +0.069 C 
ATOM      4  C   LIG    1       25.665 -13.874   2.709  0.00  0.00    +0.043 C 
ATOM      5  C   LIG    1       25.333 -14.144   4.205  0.00  0.00    +0.048 C 
ATOM      6  C   LIG    1       23.892 -13.882   4.659  0.00  0.00    +0.217 C 
ATOM      7  O   LIG    1       23.097 -15.091   4.411  0.00  0.00    -0.481 OA
ATOM      8  C   LIG    1       24.033 -16.093   4.273  0.00  0.00    +0.166 A 
ATOM      9  C   LIG    1       23.756 -17.404   3.973  0.00  0.00    +0.159 A 
ATOM     10  C   LIG    1       24.785 -18.232   3.520  0.00  0.00    +0.049 A 
ATOM     11  C   LIG    1       26.088 -17.710   3.290  0.00  0.00    +0.008 A 
ATOM     12  C   LIG    1       26.342 -16.371   3.557  0.00  0.00    -0.038 A 
ATOM     13  C   LIG    1       23.330 -12.600   4.001  0.00  0.00    +0.178 C 
ATOM     14  C   LIG    1       23.678 -12.402   2.553  0.00  0.00    +0.004 C 
ATOM     15  C   LIG    1       25.326 -15.630   4.161  0.00  0.00    +0.012 A 
ATOM     16  C   LIG    1       26.367 -13.655   5.238  0.00  0.00    +0.031 C 
ATOM     17  C   LIG    1       24.823 -12.851   2.011  0.00  0.00    -0.023 C 
ATOM     18  C   LIG    1       27.518 -15.588   2.936  0.00  0.00    +0.055 C 
ATOM     19  C   LIG    1       27.255 -12.580   4.651  0.00  0.00    +0.085 C 
ENDROOT
BRANCH   9  20
ATOM     20  O   LIG    1       22.482 -17.885   4.025  0.00  0.00    -0.503 OA
ATOM     21  H   LIG    1       22.079 -17.655   3.168  0.00  0.00    +0.292 HD
ENDBRANCH   9  20
BRANCH  13  22
ATOM     22  O   LIG    1       23.875 -11.449   4.667  0.00  0.00    -0.384 OA
ATOM     23  H   LIG    1       24.804 -11.342   4.393  0.00  0.00    +0.210 HD
ENDBRANCH  13  22
TORSDOF 2
ENDMDL
