MODEL 1
REMARK VINA RESULT:      -7.4      0.000      0.000
REMARK  Name = *****
REMARK                            x       y       z     vdW  Elec       q    Type
REMARK                         _______ _______ _______ _____ _____    ______ ____
ROOT
ATOM      1  C   LIG    1       24.324 -26.685   6.315  0.00  0.00    +0.044 C 
ATOM      2  C   LIG    1       24.637 -25.228   6.473  0.00  0.00    -0.047 A 
ATOM      3  C   LIG    1       23.601 -24.283   6.483  0.00  0.00    +0.049 A 
ATOM      4  C   LIG    1       23.853 -22.924   6.726  0.00  0.00    +0.125 A 
ATOM      5  C   LIG    1       25.179 -22.493   6.959  0.00  0.00    -0.003 A 
ATOM      6  C   LIG    1       26.209 -23.453   6.930  0.00  0.00    +0.008 A 
ATOM      7  C   LIG    1       25.943 -24.801   6.693  0.00  0.00    +0.004 A 
ENDROOT
BRANCH   5   8
ATOM      8  C   LIG    1       25.491 -21.042   7.319  0.00  0.00    +0.016 C 
ATOM      9  C   LIG    1       26.617 -20.408   6.487  0.00  0.00    +0.012 C 
ATOM     10  C   LIG    1       25.835 -20.943   8.808  0.00  0.00    +0.012 C 
ENDBRANCH   5   8
BRANCH   4  11
ATOM     11  O   LIG    1       22.868 -21.964   6.786  0.00  0.00    -0.480 OA
BRANCH  11  12
ATOM     12  C   LIG    1       22.165 -21.684   5.579  0.00  0.00    +0.356 C 
BRANCH  12  13
ATOM     13  C   LIG    1       22.970 -20.766   4.673  0.00  0.00    +0.319 C 
ATOM     14  N   LIG    1       23.902 -21.234   3.782  0.00  0.00    -0.231 N 
ATOM     15  H   LIG    1       24.341 -22.126   3.990  0.00  0.00    +0.291 HD
ATOM     16  C   LIG    1       24.717 -20.126   3.354  0.00  0.00    +0.273 C 
ATOM     17  C   LIG    1       23.848 -18.937   3.778  0.00  0.00    +0.333 C 
ATOM     18  N   LIG    1       22.866 -19.458   4.773  0.00  0.00    -0.081 NA
ENDBRANCH  12  13
ENDBRANCH  11  12
ENDBRANCH   4  11
TORSDOF 4
ENDMDL
MODEL 2
REMARK VINA RESULT:      -7.4      2.880      4.340
REMARK  Name = *****
REMARK                            x       y       z     vdW  Elec       q    Type
REMARK                         _______ _______ _______ _____ _____    ______ ____
ROOT
ATOM      1  C   LIG    1       25.510 -26.666   6.533  0.00  0.00    +0.044 C 
ATOM      2  C   LIG    1       25.053 -25.239   6.569  0.00  0.00    -0.047 A 
ATOM      3  C   LIG    1       25.993 -24.199   6.579  0.00  0.00    +0.049 A 
ATOM      4  C   LIG    1       25.596 -22.855   6.515  0.00  0.00    +0.125 A 
ATOM      5  C   LIG    1       24.220 -22.537   6.448  0.00  0.00    -0.003 A 
ATOM      6  C   LIG    1       23.289 -23.593   6.455  0.00  0.00    +0.008 A 
ATOM      7  C   LIG    1       23.698 -24.925   6.512  0.00  0.00    +0.004 A 
ENDROOT
BRANCH   5   8
ATOM      8  C   LIG    1       23.746 -21.095   6.284  0.00  0.00    +0.016 C 
ATOM      9  C   LIG    1       23.435 -20.374   7.605  0.00  0.00    +0.012 C 
ATOM     10  C   LIG    1       22.512 -21.058   5.377  0.00  0.00    +0.012 C 
ENDBRANCH   5   8
BRANCH   4  11
ATOM     11  O   LIG    1       26.480 -21.799   6.482  0.00  0.00    -0.480 OA
BRANCH  11  12
ATOM     12  C   LIG    1       27.539 -21.813   7.435  0.00  0.00    +0.356 C 
BRANCH  12  13
ATOM     13  C   LIG    1       28.635 -20.831   7.055  0.00  0.00    +0.319 C 
ATOM     14  N   LIG    1       29.924 -20.944   7.511  0.00  0.00    -0.231 N 
ATOM     15  H   LIG    1       30.068 -21.430   8.391  0.00  0.00    +0.291 HD
ATOM     16  C   LIG    1       30.602 -19.696   7.270  0.00  0.00    +0.273 C 
ATOM     17  C   LIG    1       29.668 -19.044   6.244  0.00  0.00    +0.333 C 
ATOM     18  N   LIG    1       28.364 -19.763   6.334  0.00  0.00    -0.081 NA
ENDBRANCH  12  13
ENDBRANCH  11  12
ENDBRANCH   4  11
TORSDOF 4
ENDMDL
MODEL 3
REMARK VINA RESULT:      -7.4      3.178      5.452
REMARK  Name = *****
REMARK                            x       y       z     vdW  Elec       q    Type
REMARK                         _______ _______ _______ _____ _____    ______ ____
ROOT
ATOM      1  C   LIG    1       22.548 -18.657   4.115  0.00  0.00    +0.044 C 
ATOM      2  C   LIG    1       23.423 -19.611   4.870  0.00  0.00    -0.047 A 
ATOM      3  C   LIG    1       24.799 -19.663   4.607  0.00  0.00    +0.049 A 
ATOM      4  C   LIG    1       25.657 -20.476   5.363  0.00  0.00    +0.125 A 
ATOM      5  C   LIG    1       25.127 -21.267   6.408  0.00  0.00    -0.003 A 
ATOM      6  C   LIG    1       23.740 -21.214   6.648  0.00  0.00    +0.008 A 
ATOM      7  C   LIG    1       22.900 -20.398   5.893  0.00  0.00    +0.004 A 
ENDROOT
BRANCH   5   8
ATOM      8  C   LIG    1       26.034 -22.094   7.317  0.00  0.00    +0.016 C 
ATOM      9  C   LIG    1       25.750 -23.604   7.292  0.00  0.00    +0.012 C 
ATOM     10  C   LIG    1       25.934 -21.576   8.755  0.00  0.00    +0.012 C 
ENDBRANCH   5   8
BRANCH   4  11
ATOM     11  O   LIG    1       27.020 -20.533   5.172  0.00  0.00    -0.480 OA
BRANCH  11  12
ATOM     12  C   LIG    1       27.748 -19.321   5.350  0.00  0.00    +0.356 C 
BRANCH  12  13
ATOM     13  C   LIG    1       29.034 -19.560   6.125  0.00  0.00    +0.319 C 
ATOM     14  N   LIG    1       29.254 -20.693   6.866  0.00  0.00    -0.231 N 
ATOM     15  H   LIG    1       28.440 -21.185   7.221  0.00  0.00    +0.291 HD
ATOM     16  C   LIG    1       30.376 -20.455   7.738  0.00  0.00    +0.273 C 
ATOM     17  C   LIG    1       31.007 -19.223   7.080  0.00  0.00    +0.333 C 
ATOM     18  N   LIG    1       29.966 -18.632   6.189  0.00  0.00    -0.081 NA
ENDBRANCH  12  13
ENDBRANCH  11  12
ENDBRANCH   4  11
TORSDOF 4
ENDMDL
MODEL 4
REMARK VINA RESULT:      -7.4      3.212      4.695
REMARK  Name = *****
REMARK                            x       y       z     vdW  Elec       q    Type
REMARK                         _______ _______ _______ _____ _____    ______ ____
ROOT
ATOM      1  C   LIG    1       25.722 -26.135   6.922  0.00  0.00    +0.044 C 
ATOM      2  C   LIG    1       25.325 -24.697   6.768  0.00  0.00    -0.047 A 
ATOM      3  C   LIG    1       26.277 -23.683   6.943  0.00  0.00    +0.049 A 
ATOM      4  C   LIG    1       25.960 -22.335   6.711  0.00  0.00    +0.125 A 
ATOM      5  C   LIG    1       24.652 -21.988   6.300  0.00  0.00    -0.003 A 
ATOM      6  C   LIG    1       23.705 -23.019   6.144  0.00  0.00    +0.008 A 
ATOM      7  C   LIG    1       24.036 -24.354   6.372  0.00  0.00    +0.004 A 
ENDROOT
BRANCH   5   8
ATOM      8  C   LIG    1       24.287 -20.548   5.946  0.00  0.00    +0.016 C 
ATOM      9  C   LIG    1       22.785 -20.235   6.030  0.00  0.00    +0.012 C 
ATOM     10  C   LIG    1       24.804 -20.215   4.544  0.00  0.00    +0.012 C 
ENDBRANCH   5   8
BRANCH   4  11
ATOM     11  O   LIG    1       26.867 -21.307   6.830  0.00  0.00    -0.480 OA
BRANCH  11  12
ATOM     12  C   LIG    1       27.940 -21.494   7.749  0.00  0.00    +0.356 C 
BRANCH  12  13
ATOM     13  C   LIG    1       28.963 -20.376   7.637  0.00  0.00    +0.319 C 
ATOM     14  N   LIG    1       29.897 -20.322   6.634  0.00  0.00    -0.231 N 
ATOM     15  H   LIG    1       30.170 -21.199   6.202  0.00  0.00    +0.291 HD
ATOM     16  C   LIG    1       30.911 -19.369   7.010  0.00  0.00    +0.273 C 
ATOM     17  C   LIG    1       30.197 -18.599   8.125  0.00  0.00    +0.333 C 
ATOM     18  N   LIG    1       29.051 -19.447   8.566  0.00  0.00    -0.081 NA
ENDBRANCH  12  13
ENDBRANCH  11  12
ENDBRANCH   4  11
TORSDOF 4
ENDMDL
MODEL 5
REMARK VINA RESULT:      -7.1      3.345      5.764
REMARK  Name = *****
REMARK                            x       y       z     vdW  Elec       q    Type
REMARK                         _______ _______ _______ _____ _____    ______ ____
ROOT
ATOM      1  C   LIG    1       25.512 -18.608   3.371  0.00  0.00    +0.044 C 
ATOM      2  C   LIG    1       25.406 -19.832   4.231  0.00  0.00    -0.047 A 
ATOM      3  C   LIG    1       26.252 -19.990   5.337  0.00  0.00    +0.049 A 
ATOM      4  C   LIG    1       26.111 -21.076   6.215  0.00  0.00    +0.125 A 
ATOM      5  C   LIG    1       25.102 -22.037   5.979  0.00  0.00    -0.003 A 
ATOM      6  C   LIG    1       24.271 -21.870   4.854  0.00  0.00    +0.008 A 
ATOM      7  C   LIG    1       24.418 -20.783   3.993  0.00  0.00    +0.004 A 
ENDROOT
BRANCH   5   8
ATOM      8  C   LIG    1       24.851 -23.183   6.957  0.00  0.00    +0.016 C 
ATOM      9  C   LIG    1       25.786 -24.389   6.775  0.00  0.00    +0.012 C 
ATOM     10  C   LIG    1       23.394 -23.642   6.850  0.00  0.00    +0.012 C 
ENDBRANCH   5   8
BRANCH   4  11
ATOM     11  O   LIG    1       26.889 -21.256   7.337  0.00  0.00    -0.480 OA
BRANCH  11  12
ATOM     12  C   LIG    1       28.251 -21.620   7.127  0.00  0.00    +0.356 C 
BRANCH  12  13
ATOM     13  C   LIG    1       29.194 -20.548   7.647  0.00  0.00    +0.319 C 
ATOM     14  N   LIG    1       29.266 -19.292   7.099  0.00  0.00    -0.231 N 
ATOM     15  H   LIG    1       28.994 -19.191   6.126  0.00  0.00    +0.291 HD
ATOM     16  C   LIG    1       30.472 -18.660   7.569  0.00  0.00    +0.273 C 
ATOM     17  C   LIG    1       30.823 -19.545   8.769  0.00  0.00    +0.333 C 
ATOM     18  N   LIG    1       30.059 -20.815   8.603  0.00  0.00    -0.081 NA
ENDBRANCH  12  13
ENDBRANCH  11  12
ENDBRANCH   4  11
TORSDOF 4
ENDMDL
MODEL 6
REMARK VINA RESULT:      -7.0      2.522      5.075
REMARK  Name = *****
REMARK                            x       y       z     vdW  Elec       q    Type
REMARK                         _______ _______ _______ _____ _____    ______ ____
ROOT
ATOM      1  C   LIG    1       28.749 -21.463   7.934  0.00  0.00    +0.044 C 
ATOM      2  C   LIG    1       27.573 -21.331   7.014  0.00  0.00    -0.047 A 
ATOM      3  C   LIG    1       26.596 -22.336   6.972  0.00  0.00    +0.049 A 
ATOM      4  C   LIG    1       25.436 -22.197   6.194  0.00  0.00    +0.125 A 
ATOM      5  C   LIG    1       25.248 -21.023   5.428  0.00  0.00    -0.003 A 
ATOM      6  C   LIG    1       26.246 -20.031   5.470  0.00  0.00    +0.008 A 
ATOM      7  C   LIG    1       27.391 -20.180   6.253  0.00  0.00    +0.004 A 
ENDROOT
BRANCH   5   8
ATOM      8  C   LIG    1       23.962 -20.786   4.641  0.00  0.00    +0.016 C 
ATOM      9  C   LIG    1       24.135 -19.913   3.389  0.00  0.00    +0.012 C 
ATOM     10  C   LIG    1       22.903 -20.167   5.557  0.00  0.00    +0.012 C 
ENDBRANCH   5   8
BRANCH   4  11
ATOM     11  O   LIG    1       24.430 -23.135   6.149  0.00  0.00    -0.480 OA
BRANCH  11  12
ATOM     12  C   LIG    1       24.607 -24.310   6.936  0.00  0.00    +0.356 C 
BRANCH  12  13
ATOM     13  C   LIG    1       24.937 -25.512   6.065  0.00  0.00    +0.319 C 
ATOM     14  N   LIG    1       24.018 -26.485   5.765  0.00  0.00    -0.231 N 
ATOM     15  H   LIG    1       23.254 -26.624   6.419  0.00  0.00    +0.291 HD
ATOM     16  C   LIG    1       24.722 -27.628   5.242  0.00  0.00    +0.273 C 
ATOM     17  C   LIG    1       26.077 -27.006   4.889  0.00  0.00    +0.333 C 
ATOM     18  N   LIG    1       26.163 -25.715   5.632  0.00  0.00    -0.081 NA
ENDBRANCH  12  13
ENDBRANCH  11  12
ENDBRANCH   4  11
TORSDOF 4
ENDMDL
MODEL 7
REMARK VINA RESULT:      -6.7      2.018      4.805
REMARK  Name = *****
REMARK                            x       y       z     vdW  Elec       q    Type
REMARK                         _______ _______ _______ _____ _____    ______ ____
ROOT
ATOM      1  C   LIG    1       21.720 -19.052   3.771  0.00  0.00    +0.044 C 
ATOM      2  C   LIG    1       23.015 -19.390   4.446  0.00  0.00    -0.047 A 
ATOM      3  C   LIG    1       23.016 -20.119   5.643  0.00  0.00    +0.049 A 
ATOM      4  C   LIG    1       24.213 -20.532   6.247  0.00  0.00    +0.125 A 
ATOM      5  C   LIG    1       25.448 -20.203   5.642  0.00  0.00    -0.003 A 
ATOM      6  C   LIG    1       25.429 -19.458   4.447  0.00  0.00    +0.008 A 
ATOM      7  C   LIG    1       24.232 -19.058   3.856  0.00  0.00    +0.004 A 
ENDROOT
BRANCH   5   8
ATOM      8  C   LIG    1       26.771 -20.710   6.211  0.00  0.00    +0.016 C 
ATOM      9  C   LIG    1       26.930 -20.510   7.726  0.00  0.00    +0.012 C 
ATOM     10  C   LIG    1       27.937 -20.039   5.479  0.00  0.00    +0.012 C 
ENDBRANCH   5   8
BRANCH   4  11
ATOM     11  O   LIG    1       24.267 -21.283   7.400  0.00  0.00    -0.480 OA
BRANCH  11  12
ATOM     12  C   LIG    1       23.435 -22.438   7.459  0.00  0.00    +0.356 C 
BRANCH  12  13
ATOM     13  C   LIG    1       24.139 -23.654   6.882  0.00  0.00    +0.319 C 
ATOM     14  N   LIG    1       23.491 -24.600   6.129  0.00  0.00    -0.231 N 
ATOM     15  H   LIG    1       22.492 -24.711   6.277  0.00  0.00    +0.291 HD
ATOM     16  C   LIG    1       24.330 -25.768   6.046  0.00  0.00    +0.273 C 
ATOM     17  C   LIG    1       25.684 -25.191   6.472  0.00  0.00    +0.333 C 
ATOM     18  N   LIG    1       25.402 -23.900   7.162  0.00  0.00    -0.081 NA
ENDBRANCH  12  13
ENDBRANCH  11  12
ENDBRANCH   4  11
TORSDOF 4
ENDMDL
MODEL 8
REMARK VINA RESULT:      -6.2      2.012      4.422
REMARK  Name = *****
REMARK                            x       y       z     vdW  Elec       q    Type
REMARK                         _______ _______ _______ _____ _____    ______ ____
ROOT
ATOM      1  C   LIG    1       30.216 -18.902   6.523  0.00  0.00    +0.044 C 
ATOM      2  C   LIG    1       28.855 -19.517   6.648  0.00  0.00    -0.047 A 
ATOM      3  C   LIG    1       28.058 -19.699   5.509  0.00  0.00    +0.049 A 
ATOM      4  C   LIG    1       26.821 -20.359   5.579  0.00  0.00    +0.125 A 
ATOM      5  C   LIG    1       26.361 -20.844   6.824  0.00  0.00    -0.003 A 
ATOM      6  C   LIG    1       27.166 -20.639   7.961  0.00  0.00    +0.008 A 
ATOM      7  C   LIG    1       28.396 -19.987   7.875  0.00  0.00    +0.004 A 
ENDROOT
BRANCH   5   8
ATOM      8  C   LIG    1       25.067 -21.648   6.934  0.00  0.00    +0.016 C 
ATOM      9  C   LIG    1       23.956 -20.957   7.740  0.00  0.00    +0.012 C 
ATOM     10  C   LIG    1       25.364 -23.022   7.543  0.00  0.00    +0.012 C 
ENDBRANCH   5   8
BRANCH   4  11
ATOM     11  O   LIG    1       26.021 -20.598   4.485  0.00  0.00    -0.480 OA
BRANCH  11  12
ATOM     12  C   LIG    1       25.489 -19.460   3.812  0.00  0.00    +0.356 C 
BRANCH  12  13
ATOM     13  C   LIG    1       23.986 -19.354   4.013  0.00  0.00    +0.319 C 
ATOM     14  N   LIG    1       23.302 -18.172   3.886  0.00  0.00    -0.231 N 
ATOM     15  H   LIG    1       23.819 -17.313   4.047  0.00  0.00    +0.291 HD
ATOM     16  C   LIG    1       21.998 -18.336   4.477  0.00  0.00    +0.273 C 
ATOM     17  C   LIG    1       21.895 -19.863   4.549  0.00  0.00    +0.333 C 
ATOM     18  N   LIG    1       23.283 -20.393   4.412  0.00  0.00    -0.081 NA
ENDBRANCH  12  13
ENDBRANCH  11  12
ENDBRANCH   4  11
TORSDOF 4
ENDMDL
MODEL 9
REMARK VINA RESULT:      -6.1      1.471      3.753
REMARK  Name = *****
REMARK                            x       y       z     vdW  Elec       q    Type
REMARK                         _______ _______ _______ _____ _____    ______ ____
ROOT
ATOM      1  C   LIG    1       28.249 -19.898   7.903  0.00  0.00    +0.044 C 
ATOM      2  C   LIG    1       27.121 -20.802   7.508  0.00  0.00    -0.047 A 
ATOM      3  C   LIG    1       26.547 -20.697   6.233  0.00  0.00    +0.049 A 
ATOM      4  C   LIG    1       25.556 -21.592   5.801  0.00  0.00    +0.125 A 
ATOM      5  C   LIG    1       25.119 -22.619   6.668  0.00  0.00    -0.003 A 
ATOM      6  C   LIG    1       25.695 -22.701   7.950  0.00  0.00    +0.008 A 
ATOM      7  C   LIG    1       26.683 -21.808   8.365  0.00  0.00    +0.004 A 
ENDROOT
BRANCH   5   8
ATOM      8  C   LIG    1       24.112 -23.671   6.209  0.00  0.00    +0.016 C 
ATOM      9  C   LIG    1       22.715 -23.529   6.833  0.00  0.00    +0.012 C 
ATOM     10  C   LIG    1       24.663 -25.071   6.496  0.00  0.00    +0.012 C 
ENDBRANCH   5   8
BRANCH   4  11
ATOM     11  O   LIG    1       24.991 -21.555   4.546  0.00  0.00    -0.480 OA
BRANCH  11  12
ATOM     12  C   LIG    1       25.008 -20.304   3.865  0.00  0.00    +0.356 C 
BRANCH  12  13
ATOM     13  C   LIG    1       23.756 -19.496   4.166  0.00  0.00    +0.319 C 
ATOM     14  N   LIG    1       22.613 -20.060   4.672  0.00  0.00    -0.231 N 
ATOM     15  H   LIG    1       22.454 -21.045   4.485  0.00  0.00    +0.291 HD
ATOM     16  C   LIG    1       21.531 -19.123   4.505  0.00  0.00    +0.273 C 
ATOM     17  C   LIG    1       22.302 -17.824   4.246  0.00  0.00    +0.333 C 
ATOM     18  N   LIG    1       23.688 -18.217   3.861  0.00  0.00    -0.081 NA
ENDBRANCH  12  13
ENDBRANCH  11  12
ENDBRANCH   4  11
TORSDOF 4
ENDMDL
