MODEL 1
REMARK VINA RESULT:      -8.8      0.000      0.000
REMARK  Name = *****
REMARK                            x       y       z     vdW  Elec       q    Type
REMARK                         _______ _______ _______ _____ _____    ______ ____
ROOT
ATOM      1  C   LIG    1       29.164 -19.369   7.394  0.00  0.00    -0.034 A 
ATOM      2  C   LIG    1       28.771 -19.418   6.049  0.00  0.00    +0.005 A 
ATOM      3  C   LIG    1       27.563 -20.013   5.676  0.00  0.00    +0.004 A 
ATOM      4  C   LIG    1       26.723 -20.581   6.638  0.00  0.00    -0.047 A 
ATOM      5  C   LIG    1       27.109 -20.530   7.984  0.00  0.00    +0.004 A 
ATOM      6  C   LIG    1       28.317 -19.932   8.359  0.00  0.00    +0.005 A 
ENDROOT
BRANCH   1   8
ATOM      7  C   LIG    1       30.229 -17.521   8.733  0.00  0.00    +0.024 C 
ATOM      8  C   LIG    1       30.475 -18.711   7.801  0.00  0.00    +0.124 C 
BRANCH   8   9
ATOM      9  C   LIG    1       31.461 -19.694   8.432  0.00  0.00    +0.312 C 
ATOM     10  O   LIG    1       32.140 -19.459   9.426  0.00  0.00    -0.250 OA
BRANCH   9  11
ATOM     11  O   LIG    1       31.584 -20.859   7.754  0.00  0.00    -0.480 OA
ATOM     12  H   LIG    1       30.825 -21.052   7.167  0.00  0.00    +0.295 HD
ENDBRANCH   9  11
ENDBRANCH   8   9
ENDBRANCH   1   8
BRANCH   4  13
ATOM     13  C   LIG    1       25.412 -21.220   6.241  0.00  0.00    +0.046 C 
BRANCH  13  14
ATOM     14  C   LIG    1       24.745 -22.041   7.351  0.00  0.00    +0.059 C 
ATOM     15  C   LIG    1       24.908 -23.514   7.032  0.00  0.00    +0.137 C 
ATOM     16  O   LIG    1       25.977 -24.110   7.084  0.00  0.00    -0.297 OA
ATOM     17  C   LIG    1       23.608 -24.165   6.631  0.00  0.00    +0.075 C 
ATOM     18  C   LIG    1       22.697 -22.962   6.431  0.00  0.00    +0.008 C 
ATOM     19  C   LIG    1       23.217 -21.928   7.418  0.00  0.00    +0.012 C 
ENDBRANCH  13  14
ENDBRANCH   4  13
TORSDOF 5
ENDMDL
MODEL 2
REMARK VINA RESULT:      -8.7      2.038      2.539
REMARK  Name = *****
REMARK                            x       y       z     vdW  Elec       q    Type
REMARK                         _______ _______ _______ _____ _____    ______ ____
ROOT
ATOM      1  C   LIG    1       29.853 -20.364   7.524  0.00  0.00    -0.034 A 
ATOM      2  C   LIG    1       28.832 -21.298   7.752  0.00  0.00    +0.005 A 
ATOM      3  C   LIG    1       27.637 -21.244   7.030  0.00  0.00    +0.004 A 
ATOM      4  C   LIG    1       27.431 -20.251   6.068  0.00  0.00    -0.047 A 
ATOM      5  C   LIG    1       28.451 -19.319   5.833  0.00  0.00    +0.004 A 
ATOM      6  C   LIG    1       29.650 -19.374   6.553  0.00  0.00    +0.005 A 
ENDROOT
BRANCH   1   8
ATOM      7  C   LIG    1       31.316 -19.212   9.220  0.00  0.00    +0.024 C 
ATOM      8  C   LIG    1       31.160 -20.429   8.304  0.00  0.00    +0.124 C 
BRANCH   8   9
ATOM      9  C   LIG    1       31.311 -21.725   9.099  0.00  0.00    +0.312 C 
ATOM     10  O   LIG    1       30.821 -21.926  10.205  0.00  0.00    -0.250 OA
BRANCH   9  11
ATOM     11  O   LIG    1       32.109 -22.644   8.505  0.00  0.00    -0.480 OA
ATOM     12  H   LIG    1       33.036 -22.617   8.816  0.00  0.00    +0.295 HD
ENDBRANCH   9  11
ENDBRANCH   8   9
ENDBRANCH   1   8
BRANCH   4  13
ATOM     13  C   LIG    1       26.144 -20.192   5.279  0.00  0.00    +0.046 C 
BRANCH  13  14
ATOM     14  C   LIG    1       25.167 -21.336   5.575  0.00  0.00    +0.059 C 
ATOM     15  C   LIG    1       23.980 -21.218   4.641  0.00  0.00    +0.137 C 
ATOM     16  O   LIG    1       24.035 -21.432   3.436  0.00  0.00    -0.297 OA
ATOM     17  C   LIG    1       22.722 -20.794   5.356  0.00  0.00    +0.075 C 
ATOM     18  C   LIG    1       23.255 -20.371   6.717  0.00  0.00    +0.008 C 
ATOM     19  C   LIG    1       24.469 -21.263   6.939  0.00  0.00    +0.012 C 
ENDBRANCH  13  14
ENDBRANCH   4  13
TORSDOF 5
ENDMDL
MODEL 3
REMARK VINA RESULT:      -8.5      1.703      6.955
REMARK  Name = *****
REMARK                            x       y       z     vdW  Elec       q    Type
REMARK                         _______ _______ _______ _____ _____    ______ ____
ROOT
ATOM      1  C   LIG    1       24.995 -20.719   7.037  0.00  0.00    -0.034 A 
ATOM      2  C   LIG    1       25.882 -20.531   5.967  0.00  0.00    +0.005 A 
ATOM      3  C   LIG    1       27.255 -20.397   6.190  0.00  0.00    +0.004 A 
ATOM      4  C   LIG    1       27.773 -20.439   7.488  0.00  0.00    -0.047 A 
ATOM      5  C   LIG    1       26.891 -20.631   8.559  0.00  0.00    +0.004 A 
ATOM      6  C   LIG    1       25.516 -20.769   8.337  0.00  0.00    +0.005 A 
ENDROOT
BRANCH   1   8
ATOM      7  C   LIG    1       23.035 -20.001   5.626  0.00  0.00    +0.024 C 
ATOM      8  C   LIG    1       23.500 -20.876   6.794  0.00  0.00    +0.124 C 
BRANCH   8   9
ATOM      9  C   LIG    1       23.084 -22.330   6.574  0.00  0.00    +0.312 C 
ATOM     10  O   LIG    1       23.673 -23.301   7.038  0.00  0.00    -0.250 OA
BRANCH   9  11
ATOM     11  O   LIG    1       22.022 -22.479   5.749  0.00  0.00    -0.480 OA
ATOM     12  H   LIG    1       21.179 -22.167   6.136  0.00  0.00    +0.295 HD
ENDBRANCH   9  11
ENDBRANCH   8   9
ENDBRANCH   1   8
BRANCH   4  13
ATOM     13  C   LIG    1       29.257 -20.301   7.733  0.00  0.00    +0.046 C 
BRANCH  13  14
ATOM     14  C   LIG    1       29.784 -18.864   7.641  0.00  0.00    +0.059 C 
ATOM     15  C   LIG    1       31.298 -18.903   7.581  0.00  0.00    +0.137 C 
ATOM     16  O   LIG    1       31.933 -19.313   6.617  0.00  0.00    -0.297 OA
ATOM     17  C   LIG    1       31.939 -18.391   8.847  0.00  0.00    +0.075 C 
ATOM     18  C   LIG    1       30.753 -18.315   9.797  0.00  0.00    +0.008 C 
ATOM     19  C   LIG    1       29.567 -18.007   8.894  0.00  0.00    +0.012 C 
ENDBRANCH  13  14
ENDBRANCH   4  13
TORSDOF 5
ENDMDL
MODEL 4
REMARK VINA RESULT:      -8.4      1.898      6.737
REMARK  Name = *****
REMARK                            x       y       z     vdW  Elec       q    Type
REMARK                         _______ _______ _______ _____ _____    ______ ____
ROOT
ATOM      1  C   LIG    1       25.680 -20.304   5.972  0.00  0.00    -0.034 A 
ATOM      2  C   LIG    1       26.912 -20.135   5.326  0.00  0.00    +0.005 A 
ATOM      3  C   LIG    1       28.114 -20.318   6.015  0.00  0.00    +0.004 A 
ATOM      4  C   LIG    1       28.112 -20.668   7.369  0.00  0.00    -0.047 A 
ATOM      5  C   LIG    1       26.883 -20.843   8.017  0.00  0.00    +0.004 A 
ATOM      6  C   LIG    1       25.678 -20.663   7.328  0.00  0.00    +0.005 A 
ENDROOT
BRANCH   1   8
ATOM      7  C   LIG    1       24.618 -19.568   3.810  0.00  0.00    +0.024 C 
ATOM      8  C   LIG    1       24.370 -20.115   5.219  0.00  0.00    +0.124 C 
BRANCH   8   9
ATOM      9  C   LIG    1       23.530 -21.390   5.161  0.00  0.00    +0.312 C 
ATOM     10  O   LIG    1       22.385 -21.491   5.589  0.00  0.00    -0.250 OA
BRANCH   9  11
ATOM     11  O   LIG    1       24.185 -22.456   4.645  0.00  0.00    -0.480 OA
ATOM     12  H   LIG    1       23.750 -22.839   3.856  0.00  0.00    +0.295 HD
ENDBRANCH   9  11
ENDBRANCH   8   9
ENDBRANCH   1   8
BRANCH   4  13
ATOM     13  C   LIG    1       29.409 -20.874   8.116  0.00  0.00    +0.046 C 
BRANCH  13  14
ATOM     14  C   LIG    1       30.513 -19.874   7.757  0.00  0.00    +0.059 C 
ATOM     15  C   LIG    1       31.453 -19.741   8.939  0.00  0.00    +0.137 C 
ATOM     16  O   LIG    1       32.221 -20.624   9.303  0.00  0.00    -0.297 OA
ATOM     17  C   LIG    1       31.332 -18.404   9.627  0.00  0.00    +0.075 C 
ATOM     18  C   LIG    1       30.068 -17.836   8.998  0.00  0.00    +0.008 C 
ATOM     19  C   LIG    1       30.051 -18.420   7.593  0.00  0.00    +0.012 C 
ENDBRANCH  13  14
ENDBRANCH   4  13
TORSDOF 5
ENDMDL
MODEL 5
REMARK VINA RESULT:      -8.2      1.450      6.936
REMARK  Name = *****
REMARK                            x       y       z     vdW  Elec       q    Type
REMARK                         _______ _______ _______ _____ _____    ______ ____
ROOT
ATOM      1  C   LIG    1       24.769 -22.987   7.132  0.00  0.00    -0.034 A 
ATOM      2  C   LIG    1       26.130 -23.318   7.057  0.00  0.00    +0.005 A 
ATOM      3  C   LIG    1       27.116 -22.355   7.287  0.00  0.00    +0.004 A 
ATOM      4  C   LIG    1       26.765 -21.036   7.591  0.00  0.00    -0.047 A 
ATOM      5  C   LIG    1       25.407 -20.702   7.673  0.00  0.00    +0.004 A 
ATOM      6  C   LIG    1       24.419 -21.666   7.445  0.00  0.00    +0.005 A 
ENDROOT
BRANCH   1   8
ATOM      7  C   LIG    1       22.373 -23.390   6.471  0.00  0.00    +0.024 C 
ATOM      8  C   LIG    1       23.695 -24.038   6.891  0.00  0.00    +0.124 C 
BRANCH   8   9
ATOM      9  C   LIG    1       24.120 -25.099   5.877  0.00  0.00    +0.312 C 
ATOM     10  O   LIG    1       24.179 -26.302   6.108  0.00  0.00    -0.250 OA
BRANCH   9  11
ATOM     11  O   LIG    1       24.505 -24.592   4.681  0.00  0.00    -0.480 OA
ATOM     12  H   LIG    1       24.009 -24.961   3.923  0.00  0.00    +0.295 HD
ENDBRANCH   9  11
ENDBRANCH   8   9
ENDBRANCH   1   8
BRANCH   4  13
ATOM     13  C   LIG    1       27.827 -19.993   7.849  0.00  0.00    +0.046 C 
BRANCH  13  14
ATOM     14  C   LIG    1       29.182 -20.294   7.197  0.00  0.00    +0.059 C 
ATOM     15  C   LIG    1       30.181 -20.634   8.285  0.00  0.00    +0.137 C 
ATOM     16  O   LIG    1       30.147 -21.666   8.944  0.00  0.00    -0.297 OA
ATOM     17  C   LIG    1       31.218 -19.556   8.475  0.00  0.00    +0.075 C 
ATOM     18  C   LIG    1       30.638 -18.408   7.662  0.00  0.00    +0.008 C 
ATOM     19  C   LIG    1       29.872 -19.092   6.539  0.00  0.00    +0.012 C 
ENDBRANCH  13  14
ENDBRANCH   4  13
TORSDOF 5
ENDMDL
MODEL 6
REMARK VINA RESULT:      -8.1      2.195      6.979
REMARK  Name = *****
REMARK                            x       y       z     vdW  Elec       q    Type
REMARK                         _______ _______ _______ _____ _____    ______ ____
ROOT
ATOM      1  C   LIG    1       24.754 -21.422   6.481  0.00  0.00    -0.034 A 
ATOM      2  C   LIG    1       25.721 -20.879   5.622  0.00  0.00    +0.005 A 
ATOM      3  C   LIG    1       26.906 -20.338   6.128  0.00  0.00    +0.004 A 
ATOM      4  C   LIG    1       27.149 -20.320   7.504  0.00  0.00    -0.047 A 
ATOM      5  C   LIG    1       26.189 -20.866   8.365  0.00  0.00    +0.004 A 
ATOM      6  C   LIG    1       25.003 -21.411   7.861  0.00  0.00    +0.005 A 
ENDROOT
BRANCH   1   8
ATOM      7  C   LIG    1       22.833 -22.986   6.935  0.00  0.00    +0.024 C 
ATOM      8  C   LIG    1       23.467 -22.021   5.930  0.00  0.00    +0.124 C 
BRANCH   8   9
ATOM      9  C   LIG    1       22.458 -20.959   5.494  0.00  0.00    +0.312 C 
ATOM     10  O   LIG    1       22.507 -19.776   5.816  0.00  0.00    -0.250 OA
BRANCH   9  11
ATOM     11  O   LIG    1       21.434 -21.446   4.754  0.00  0.00    -0.480 OA
ATOM     12  H   LIG    1       21.078 -22.293   5.089  0.00  0.00    +0.295 HD
ENDBRANCH   9  11
ENDBRANCH   8   9
ENDBRANCH   1   8
BRANCH   4  13
ATOM     13  C   LIG    1       28.432 -19.743   8.055  0.00  0.00    +0.046 C 
BRANCH  13  14
ATOM     14  C   LIG    1       29.707 -20.320   7.429  0.00  0.00    +0.059 C 
ATOM     15  C   LIG    1       30.621 -20.800   8.539  0.00  0.00    +0.137 C 
ATOM     16  O   LIG    1       30.390 -21.780   9.238  0.00  0.00    -0.297 OA
ATOM     17  C   LIG    1       31.843 -19.931   8.698  0.00  0.00    +0.075 C 
ATOM     18  C   LIG    1       31.493 -18.728   7.836  0.00  0.00    +0.008 C 
ATOM     19  C   LIG    1       30.614 -19.298   6.732  0.00  0.00    +0.012 C 
ENDBRANCH  13  14
ENDBRANCH   4  13
TORSDOF 5
ENDMDL
MODEL 7
REMARK VINA RESULT:      -8.1      3.190      5.337
REMARK  Name = *****
REMARK                            x       y       z     vdW  Elec       q    Type
REMARK                         _______ _______ _______ _____ _____    ______ ____
ROOT
ATOM      1  C   LIG    1       25.239 -22.233   7.042  0.00  0.00    -0.034 A 
ATOM      2  C   LIG    1       23.894 -22.584   6.863  0.00  0.00    +0.005 A 
ATOM      3  C   LIG    1       23.526 -23.908   6.607  0.00  0.00    +0.004 A 
ATOM      4  C   LIG    1       24.496 -24.911   6.515  0.00  0.00    -0.047 A 
ATOM      5  C   LIG    1       25.841 -24.566   6.699  0.00  0.00    +0.004 A 
ATOM      6  C   LIG    1       26.210 -23.241   6.958  0.00  0.00    +0.005 A 
ENDROOT
BRANCH   1   8
ATOM      7  C   LIG    1       25.943 -20.593   8.819  0.00  0.00    +0.024 C 
ATOM      8  C   LIG    1       25.639 -20.793   7.332  0.00  0.00    +0.124 C 
BRANCH   8   9
ATOM      9  C   LIG    1       26.813 -20.320   6.475  0.00  0.00    +0.312 C 
ATOM     10  O   LIG    1       27.899 -19.962   6.916  0.00  0.00    -0.250 OA
BRANCH   9  11
ATOM     11  O   LIG    1       26.536 -20.259   5.151  0.00  0.00    -0.480 OA
ATOM     12  H   LIG    1       27.044 -19.571   4.676  0.00  0.00    +0.295 HD
ENDBRANCH   9  11
ENDBRANCH   8   9
ENDBRANCH   1   8
BRANCH   4  13
ATOM     13  C   LIG    1       24.102 -26.344   6.245  0.00  0.00    +0.046 C 
BRANCH  13  14
ATOM     14  C   LIG    1       25.185 -27.374   6.589  0.00  0.00    +0.059 C 
ATOM     15  C   LIG    1       25.804 -27.879   5.301  0.00  0.00    +0.137 C 
ATOM     16  O   LIG    1       26.524 -27.202   4.579  0.00  0.00    -0.297 OA
ATOM     17  C   LIG    1       25.425 -29.308   5.000  0.00  0.00    +0.075 C 
ATOM     18  C   LIG    1       24.309 -29.560   6.003  0.00  0.00    +0.008 C 
ATOM     19  C   LIG    1       24.670 -28.686   7.195  0.00  0.00    +0.012 C 
ENDBRANCH  13  14
ENDBRANCH   4  13
TORSDOF 5
ENDMDL
MODEL 8
REMARK VINA RESULT:      -8.0      1.531      2.323
REMARK  Name = *****
REMARK                            x       y       z     vdW  Elec       q    Type
REMARK                         _______ _______ _______ _____ _____    ______ ____
ROOT
ATOM      1  C   LIG    1       28.646 -20.496   7.136  0.00  0.00    -0.034 A 
ATOM      2  C   LIG    1       28.260 -21.453   8.085  0.00  0.00    +0.005 A 
ATOM      3  C   LIG    1       26.945 -21.926   8.132  0.00  0.00    +0.004 A 
ATOM      4  C   LIG    1       25.985 -21.447   7.236  0.00  0.00    -0.047 A 
ATOM      5  C   LIG    1       26.368 -20.495   6.283  0.00  0.00    +0.004 A 
ATOM      6  C   LIG    1       27.684 -20.023   6.233  0.00  0.00    +0.005 A 
ENDROOT
BRANCH   1   8
ATOM      7  C   LIG    1       30.171 -18.678   6.292  0.00  0.00    +0.024 C 
ATOM      8  C   LIG    1       30.081 -19.989   7.078  0.00  0.00    +0.124 C 
BRANCH   8   9
ATOM      9  C   LIG    1       30.710 -19.830   8.462  0.00  0.00    +0.312 C 
ATOM     10  O   LIG    1       31.587 -20.557   8.917  0.00  0.00    -0.250 OA
BRANCH   9  11
ATOM     11  O   LIG    1       30.166 -18.836   9.202  0.00  0.00    -0.480 OA
ATOM     12  H   LIG    1       30.416 -17.940   8.897  0.00  0.00    +0.295 HD
ENDBRANCH   9  11
ENDBRANCH   8   9
ENDBRANCH   1   8
BRANCH   4  13
ATOM     13  C   LIG    1       24.564 -21.961   7.278  0.00  0.00    +0.046 C 
BRANCH  13  14
ATOM     14  C   LIG    1       24.158 -22.802   6.063  0.00  0.00    +0.059 C 
ATOM     15  C   LIG    1       23.239 -23.915   6.525  0.00  0.00    +0.137 C 
ATOM     16  O   LIG    1       22.094 -23.735   6.920  0.00  0.00    -0.297 OA
ATOM     17  C   LIG    1       23.895 -25.272   6.458  0.00  0.00    +0.075 C 
ATOM     18  C   LIG    1       25.353 -24.909   6.216  0.00  0.00    +0.008 C 
ATOM     19  C   LIG    1       25.292 -23.613   5.421  0.00  0.00    +0.012 C 
ENDBRANCH  13  14
ENDBRANCH   4  13
TORSDOF 5
ENDMDL
MODEL 9
REMARK VINA RESULT:      -8.0      4.757      6.693
REMARK  Name = *****
REMARK                            x       y       z     vdW  Elec       q    Type
REMARK                         _______ _______ _______ _____ _____    ______ ____
ROOT
ATOM      1  C   LIG    1       25.032 -24.997   6.478  0.00  0.00    -0.034 A 
ATOM      2  C   LIG    1       23.641 -24.822   6.479  0.00  0.00    +0.005 A 
ATOM      3  C   LIG    1       23.078 -23.548   6.371  0.00  0.00    +0.004 A 
ATOM      4  C   LIG    1       23.893 -22.416   6.268  0.00  0.00    -0.047 A 
ATOM      5  C   LIG    1       25.284 -22.587   6.261  0.00  0.00    +0.004 A 
ATOM      6  C   LIG    1       25.849 -23.863   6.366  0.00  0.00    +0.005 A 
ENDROOT
BRANCH   1   8
ATOM      7  C   LIG    1       24.562 -27.455   6.759  0.00  0.00    +0.024 C 
ATOM      8  C   LIG    1       25.645 -26.387   6.585  0.00  0.00    +0.124 C 
BRANCH   8   9
ATOM      9  C   LIG    1       26.551 -26.727   5.403  0.00  0.00    +0.312 C 
ATOM     10  O   LIG    1       26.157 -26.958   4.265  0.00  0.00    -0.250 OA
BRANCH   9  11
ATOM     11  O   LIG    1       27.862 -26.825   5.727  0.00  0.00    -0.480 OA
ATOM     12  H   LIG    1       28.167 -26.125   6.339  0.00  0.00    +0.295 HD
ENDBRANCH   9  11
ENDBRANCH   8   9
ENDBRANCH   1   8
BRANCH   4  13
ATOM     13  C   LIG    1       23.290 -21.037   6.144  0.00  0.00    +0.046 C 
BRANCH  13  14
ATOM     14  C   LIG    1       22.880 -20.650   4.718  0.00  0.00    +0.059 C 
ATOM     15  C   LIG    1       23.998 -19.843   4.091  0.00  0.00    +0.137 C 
ATOM     16  O   LIG    1       25.082 -20.315   3.767  0.00  0.00    -0.297 OA
ATOM     17  C   LIG    1       23.636 -18.390   3.918  0.00  0.00    +0.075 C 
ATOM     18  C   LIG    1       22.358 -18.280   4.738  0.00  0.00    +0.008 C 
ATOM     19  C   LIG    1       21.716 -19.655   4.620  0.00  0.00    +0.012 C 
ENDBRANCH  13  14
ENDBRANCH   4  13
TORSDOF 5
ENDMDL
