MODEL 1
REMARK VINA RESULT:       6.5      0.000      0.000
REMARK  Name = *****
REMARK                            x       y       z     vdW  Elec       q    Type
REMARK                         _______ _______ _______ _____ _____    ______ ____
ROOT
ATOM      1  C   LIG    1       26.037 -13.259   4.354  0.00  0.00    +0.178 C 
ATOM      2  C   LIG    1       25.607 -14.771   4.470  0.00  0.00    +0.022 C 
ATOM      3  C   LIG    1       24.445 -14.916   5.514  0.00  0.00    +0.016 C 
ATOM      4  C   LIG    1       26.868 -15.475   5.075  0.00  0.00    +0.003 C 
ATOM      5  C   LIG    1       27.751 -16.291   4.095  0.00  0.00    -0.003 C 
ATOM      6  C   LIG    1       26.914 -17.119   3.106  0.00  0.00    -0.000 C 
ATOM      7  C   LIG    1       26.048 -16.149   2.288  0.00  0.00    +0.005 C 
ATOM      8  C   LIG    1       26.086 -18.219   3.835  0.00  0.00    +0.018 C 
ATOM      9  C   LIG    1       26.843 -18.988   4.898  0.00  0.00    -0.067 C 
ATOM     10  C   LIG    1       26.309 -20.125   5.389  0.00  0.00    +0.016 C 
ATOM     11  C   LIG    1       25.011 -20.717   4.917  0.00  0.00    +0.199 C 
ATOM     12  C   LIG    1       24.700 -20.394   3.446  0.00  0.00    +0.049 C 
ATOM     13  C   LIG    1       28.024 -18.356   5.593  0.00  0.00    +0.031 C 
ATOM     14  C   LIG    1       25.397 -19.166   2.836  0.00  0.00    +0.012 C 
ATOM     15  C   LIG    1       28.725 -17.241   4.815  0.00  0.00    +0.008 C 
ATOM     16  C   LIG    1       27.680 -14.351   5.764  0.00  0.00    +0.009 C 
ATOM     17  C   LIG    1       25.051 -15.375   3.148  0.00  0.00    +0.012 C 
ATOM     18  C   LIG    1       26.861 -13.071   5.636  0.00  0.00    +0.062 C 
ENDROOT
BRANCH   1  20
ATOM     19  C   LIG    1       27.557 -12.796   2.197  0.00  0.00    +0.008 C 
ATOM     20  C   LIG    1       26.863 -12.994   3.149  0.00  0.00    -0.058 C 
ENDBRANCH   1  20
BRANCH   1  21
ATOM     21  O   LIG    1       24.854 -12.433   4.348  0.00  0.00    -0.445 OA
BRANCH  21  22
ATOM     22  C   LIG    1       23.977 -12.520   3.314  0.00  0.00    +0.305 C 
ATOM     23  O   LIG    1       23.098 -13.357   3.172  0.00  0.00    -0.251 OA
ATOM     24  C   LIG    1       24.267 -11.449   2.307  0.00  0.00    +0.136 C 
ENDBRANCH  21  22
ENDBRANCH   1  21
BRANCH  11  25
ATOM     25  O   LIG    1       23.968 -20.173   5.760  0.00  0.00    -0.457 OA
BRANCH  25  26
ATOM     26  C   LIG    1       22.705 -20.174   5.245  0.00  0.00    +0.304 C 
ATOM     27  O   LIG    1       21.962 -21.144   5.167  0.00  0.00    -0.251 OA
ATOM     28  C   LIG    1       22.315 -18.791   4.811  0.00  0.00    +0.136 C 
ENDBRANCH  25  26
ENDBRANCH  11  25
TORSDOF 5
ENDMDL
