MODEL 1
REMARK VINA RESULT:      -8.4      0.000      0.000
REMARK  Name = *****
REMARK                            x       y       z     vdW  Elec       q    Type
REMARK                         _______ _______ _______ _____ _____    ______ ____
ROOT
ATOM      1  N   LIG    1       28.825 -20.149   7.681  0.00  0.00    -0.293 NA
ATOM      2  H   LIG    1       28.756 -20.154   8.705  0.00  0.00    +0.123 HD
ENDROOT
BRANCH   1   3
ATOM      3  C   LIG    1       27.408 -20.034   7.143  0.00  0.00    +0.143 C 
ATOM      4  C   LIG    1       26.424 -21.140   7.769  0.00  0.00    +0.247 C 
ATOM      5  O   LIG    1       26.737 -21.747   8.799  0.00  0.00    -0.273 OA
ATOM      6  N   LIG    1       25.192 -21.414   7.090  0.00  0.00    -0.219 N 
ATOM      7  N   LIG    1       24.642 -20.498   6.123  0.00  0.00    -0.224 NA
ATOM      8  C   LIG    1       23.181 -20.463   6.027  0.00  0.00    +0.106 C 
ATOM      9  C   LIG    1       22.600 -21.852   5.845  0.00  0.00    +0.019 C 
ATOM     10  C   LIG    1       22.960 -22.663   7.087  0.00  0.00    +0.037 C 
ATOM     11  C   LIG    1       25.240 -20.628   4.796  0.00  0.00    +0.106 C 
ATOM     12  C   LIG    1       26.416 -19.689   4.838  0.00  0.00    +0.019 C 
ATOM     13  C   LIG    1       24.498 -22.735   7.309  0.00  0.00    +0.202 C 
ATOM     14  C   LIG    1       27.492 -20.359   5.659  0.00  0.00    +0.029 C 
BRANCH  13  15
ATOM     15  C   LIG    1       25.093 -23.824   6.337  0.00  0.00    +0.327 C 
ATOM     16  O   LIG    1       25.036 -23.914   5.126  0.00  0.00    -0.249 OA
BRANCH  15  17
ATOM     17  O   LIG    1       25.747 -24.746   7.105  0.00  0.00    -0.479 OA
ATOM     18  H   LIG    1       25.014 -25.157   7.625  0.00  0.00    +0.295 HD
ENDBRANCH  15  17
ENDBRANCH  13  15
ENDBRANCH   1   3
BRANCH   1  19
ATOM     19  C   LIG    1       29.822 -19.077   7.256  0.00  0.00    +0.164 C 
BRANCH  19  20
ATOM     20  C   LIG    1       31.306 -19.529   7.328  0.00  0.00    +0.324 C 
ATOM     21  O   LIG    1       32.243 -18.822   6.975  0.00  0.00    -0.249 OA
BRANCH  20  22
ATOM     22  O   LIG    1       31.413 -20.847   7.700  0.00  0.00    -0.464 OA
BRANCH  22  24
ATOM     23  C   LIG    1       30.803 -22.243   9.703  0.00  0.00    +0.048 C 
ATOM     24  C   LIG    1       31.678 -21.173   9.079  0.00  0.00    +0.229 C 
ENDBRANCH  22  24
ENDBRANCH  20  22
ENDBRANCH  19  20
BRANCH  19  25
ATOM     25  C   LIG    1       29.684 -17.800   8.131  0.00  0.00    +0.035 C 
BRANCH  25  26
ATOM     26  C   LIG    1       29.990 -18.059   9.638  0.00  0.00    +0.037 C 
BRANCH  26  27
ATOM     27  C   LIG    1       31.065 -17.220  10.301  0.00  0.00    -0.047 A 
ATOM     28  C   LIG    1       31.160 -17.221  11.708  0.00  0.00    +0.003 A 
ATOM     29  C   LIG    1       32.132 -16.463  12.367  0.00  0.00    +0.000 A 
ATOM     30  C   LIG    1       33.025 -15.695  11.626  0.00  0.00    +0.000 A 
ATOM     31  C   LIG    1       32.932 -15.671  10.235  0.00  0.00    +0.000 A 
ATOM     32  C   LIG    1       31.957 -16.425   9.576  0.00  0.00    +0.003 A 
ENDBRANCH  26  27
ENDBRANCH  25  26
ENDBRANCH  19  25
ENDBRANCH   1  19
TORSDOF 10
ENDMDL
MODEL 2
REMARK VINA RESULT:      -7.8      6.966     11.061
REMARK  Name = *****
REMARK                            x       y       z     vdW  Elec       q    Type
REMARK                         _______ _______ _______ _____ _____    ______ ____
ROOT
ATOM      1  N   LIG    1       25.871 -29.497   8.175  0.00  0.00    -0.293 NA
ATOM      2  H   LIG    1       26.731 -28.939   8.221  0.00  0.00    +0.123 HD
ENDROOT
BRANCH   1   3
ATOM      3  C   LIG    1       25.420 -29.732   9.607  0.00  0.00    +0.143 C 
ATOM      4  C   LIG    1       26.169 -28.767  10.651  0.00  0.00    +0.247 C 
ATOM      5  O   LIG    1       26.758 -27.754  10.258  0.00  0.00    -0.273 OA
ATOM      6  N   LIG    1       26.151 -29.124  12.039  0.00  0.00    -0.219 N 
ATOM      7  N   LIG    1       25.197 -30.068  12.564  0.00  0.00    -0.224 NA
ATOM      8  C   LIG    1       24.777 -29.855  13.951  0.00  0.00    +0.106 C 
ATOM      9  C   LIG    1       25.968 -29.718  14.880  0.00  0.00    +0.019 C 
ATOM     10  C   LIG    1       26.749 -28.483  14.442  0.00  0.00    +0.037 C 
ATOM     11  C   LIG    1       25.583 -31.462  12.354  0.00  0.00    +0.106 C 
ATOM     12  C   LIG    1       24.996 -31.798  11.010  0.00  0.00    +0.019 C 
ATOM     13  C   LIG    1       27.215 -28.585  12.961  0.00  0.00    +0.202 C 
ATOM     14  C   LIG    1       25.867 -31.142   9.965  0.00  0.00    +0.029 C 
BRANCH  13  15
ATOM     15  C   LIG    1       28.495 -29.504  12.903  0.00  0.00    +0.327 C 
ATOM     16  O   LIG    1       28.913 -30.323  13.697  0.00  0.00    -0.249 OA
BRANCH  15  17
ATOM     17  O   LIG    1       29.139 -29.237  11.727  0.00  0.00    -0.479 OA
ATOM     18  H   LIG    1       28.970 -28.271  11.599  0.00  0.00    +0.295 HD
ENDBRANCH  15  17
ENDBRANCH  13  15
ENDBRANCH   1   3
BRANCH   1  19
ATOM     19  C   LIG    1       24.885 -28.812   7.235  0.00  0.00    +0.164 C 
BRANCH  19  20
ATOM     20  C   LIG    1       24.444 -29.689   6.031  0.00  0.00    +0.324 C 
ATOM     21  O   LIG    1       23.284 -30.032   5.838  0.00  0.00    -0.249 OA
BRANCH  20  22
ATOM     22  O   LIG    1       25.526 -30.133   5.311  0.00  0.00    -0.464 OA
BRANCH  22  24
ATOM     23  C   LIG    1       26.642 -32.270   6.031  0.00  0.00    +0.048 C 
ATOM     24  C   LIG    1       25.696 -31.548   5.091  0.00  0.00    +0.229 C 
ENDBRANCH  22  24
ENDBRANCH  20  22
ENDBRANCH  19  20
BRANCH  19  25
ATOM     25  C   LIG    1       25.478 -27.497   6.657  0.00  0.00    +0.035 C 
BRANCH  25  26
ATOM     26  C   LIG    1       24.388 -26.531   6.100  0.00  0.00    +0.037 C 
BRANCH  26  27
ATOM     27  C   LIG    1       24.457 -25.071   6.502  0.00  0.00    -0.047 A 
ATOM     28  C   LIG    1       25.713 -24.506   6.806  0.00  0.00    +0.003 A 
ATOM     29  C   LIG    1       25.830 -23.165   7.183  0.00  0.00    +0.000 A 
ATOM     30  C   LIG    1       24.691 -22.369   7.257  0.00  0.00    +0.000 A 
ATOM     31  C   LIG    1       23.440 -22.919   6.976  0.00  0.00    +0.000 A 
ATOM     32  C   LIG    1       23.322 -24.261   6.604  0.00  0.00    +0.003 A 
ENDBRANCH  26  27
ENDBRANCH  25  26
ENDBRANCH  19  25
ENDBRANCH   1  19
TORSDOF 10
ENDMDL
MODEL 3
REMARK VINA RESULT:      -7.2      7.439     11.237
REMARK  Name = *****
REMARK                            x       y       z     vdW  Elec       q    Type
REMARK                         _______ _______ _______ _____ _____    ______ ____
ROOT
ATOM      1  N   LIG    1       25.549 -29.912   7.558  0.00  0.00    -0.293 NA
ATOM      2  H   LIG    1       26.183 -29.152   7.286  0.00  0.00    +0.123 HD
ENDROOT
BRANCH   1   3
ATOM      3  C   LIG    1       25.070 -29.605   8.968  0.00  0.00    +0.143 C 
ATOM      4  C   LIG    1       26.083 -28.644   9.763  0.00  0.00    +0.247 C 
ATOM      5  O   LIG    1       26.936 -27.990   9.154  0.00  0.00    -0.273 OA
ATOM      6  N   LIG    1       25.982 -28.585  11.192  0.00  0.00    -0.219 N 
ATOM      7  N   LIG    1       24.802 -29.036  11.885  0.00  0.00    -0.224 NA
ATOM      8  C   LIG    1       24.483 -28.340  13.133  0.00  0.00    +0.106 C 
ATOM      9  C   LIG    1       25.675 -28.296  14.069  0.00  0.00    +0.019 C 
ATOM     10  C   LIG    1       26.775 -27.505  13.370  0.00  0.00    +0.037 C 
ATOM     11  C   LIG    1       24.762 -30.484  12.081  0.00  0.00    +0.106 C 
ATOM     12  C   LIG    1       24.082 -30.996  10.840  0.00  0.00    +0.019 C 
ATOM     13  C   LIG    1       27.170 -28.139  12.005  0.00  0.00    +0.202 C 
ATOM     14  C   LIG    1       25.091 -30.929   9.718  0.00  0.00    +0.029 C 
BRANCH  13  15
ATOM     15  C   LIG    1       28.126 -29.362  12.280  0.00  0.00    +0.327 C 
ATOM     16  O   LIG    1       28.061 -30.237  13.121  0.00  0.00    -0.249 OA
BRANCH  15  17
ATOM     17  O   LIG    1       29.135 -29.309  11.360  0.00  0.00    -0.479 OA
ATOM     18  H   LIG    1       28.713 -28.842  10.599  0.00  0.00    +0.295 HD
ENDBRANCH  15  17
ENDBRANCH  13  15
ENDBRANCH   1   3
BRANCH   1  19
ATOM     19  C   LIG    1       24.484 -30.080   6.480  0.00  0.00    +0.164 C 
BRANCH  19  20
ATOM     20  C   LIG    1       24.567 -31.428   5.714  0.00  0.00    +0.324 C 
ATOM     21  O   LIG    1       23.709 -32.300   5.792  0.00  0.00    -0.249 OA
BRANCH  20  22
ATOM     22  O   LIG    1       25.770 -31.565   5.065  0.00  0.00    -0.464 OA
BRANCH  22  24
ATOM     23  C   LIG    1       27.380 -32.796   6.557  0.00  0.00    +0.048 C 
ATOM     24  C   LIG    1       26.559 -32.752   5.283  0.00  0.00    +0.229 C 
ENDBRANCH  22  24
ENDBRANCH  20  22
ENDBRANCH  19  20
BRANCH  19  25
ATOM     25  C   LIG    1       24.567 -28.942   5.424  0.00  0.00    +0.035 C 
BRANCH  25  26
ATOM     26  C   LIG    1       25.726 -27.937   5.703  0.00  0.00    +0.037 C 
BRANCH  26  27
ATOM     27  C   LIG    1       25.360 -26.517   6.090  0.00  0.00    -0.047 A 
ATOM     28  C   LIG    1       24.012 -26.111   5.998  0.00  0.00    +0.003 A 
ATOM     29  C   LIG    1       23.623 -24.813   6.342  0.00  0.00    +0.000 A 
ATOM     30  C   LIG    1       24.578 -23.903   6.784  0.00  0.00    +0.000 A 
ATOM     31  C   LIG    1       25.917 -24.285   6.863  0.00  0.00    +0.000 A 
ATOM     32  C   LIG    1       26.307 -25.582   6.515  0.00  0.00    +0.003 A 
ENDBRANCH  26  27
ENDBRANCH  25  26
ENDBRANCH  19  25
ENDBRANCH   1  19
TORSDOF 10
ENDMDL
MODEL 4
REMARK VINA RESULT:      -6.9      7.627     11.343
REMARK  Name = *****
REMARK                            x       y       z     vdW  Elec       q    Type
REMARK                         _______ _______ _______ _____ _____    ______ ____
ROOT
ATOM      1  N   LIG    1       26.472 -29.609   8.268  0.00  0.00    -0.293 NA
ATOM      2  H   LIG    1       27.250 -29.197   7.740  0.00  0.00    +0.123 HD
ENDROOT
BRANCH   1   3
ATOM      3  C   LIG    1       26.896 -29.638   9.728  0.00  0.00    +0.143 C 
ATOM      4  C   LIG    1       26.240 -30.866  10.532  0.00  0.00    +0.247 C 
ATOM      5  O   LIG    1       25.752 -31.824   9.924  0.00  0.00    -0.273 OA
ATOM      6  N   LIG    1       26.222 -30.806  11.964  0.00  0.00    -0.219 N 
ATOM      7  N   LIG    1       27.080 -29.908  12.695  0.00  0.00    -0.224 NA
ATOM      8  C   LIG    1       27.515 -30.366  14.016  0.00  0.00    +0.106 C 
ATOM      9  C   LIG    1       26.342 -30.805  14.870  0.00  0.00    +0.019 C 
ATOM     10  C   LIG    1       25.683 -31.988  14.167  0.00  0.00    +0.037 C 
ATOM     11  C   LIG    1       26.563 -28.544  12.770  0.00  0.00    +0.106 C 
ATOM     12  C   LIG    1       27.118 -27.880  11.539  0.00  0.00    +0.019 C 
ATOM     13  C   LIG    1       25.212 -31.622  12.730  0.00  0.00    +0.202 C 
ATOM     14  C   LIG    1       26.316 -28.382  10.361  0.00  0.00    +0.029 C 
BRANCH  13  15
ATOM     15  C   LIG    1       23.850 -30.835  12.836  0.00  0.00    +0.327 C 
ATOM     16  O   LIG    1       23.467 -29.843  12.248  0.00  0.00    -0.249 OA
BRANCH  15  17
ATOM     17  O   LIG    1       23.078 -31.474  13.765  0.00  0.00    -0.479 OA
ATOM     18  H   LIG    1       23.580 -32.309  13.930  0.00  0.00    +0.295 HD
ENDBRANCH  15  17
ENDBRANCH  13  15
ENDBRANCH   1   3
BRANCH   1  19
ATOM     19  C   LIG    1       25.188 -28.860   7.929  0.00  0.00    +0.164 C 
BRANCH  19  20
ATOM     20  C   LIG    1       23.941 -29.774   7.789  0.00  0.00    +0.324 C 
ATOM     21  O   LIG    1       23.264 -30.139   8.744  0.00  0.00    -0.249 OA
BRANCH  20  22
ATOM     22  O   LIG    1       23.788 -30.222   6.500  0.00  0.00    -0.464 OA
BRANCH  22  24
ATOM     23  C   LIG    1       25.454 -31.646   5.265  0.00  0.00    +0.048 C 
ATOM     24  C   LIG    1       24.231 -31.550   6.156  0.00  0.00    +0.229 C 
ENDBRANCH  22  24
ENDBRANCH  20  22
ENDBRANCH  19  20
BRANCH  19  25
ATOM     25  C   LIG    1       25.333 -28.068   6.600  0.00  0.00    +0.035 C 
BRANCH  25  26
ATOM     26  C   LIG    1       26.104 -26.724   6.774  0.00  0.00    +0.037 C 
BRANCH  26  27
ATOM     27  C   LIG    1       25.302 -25.438   6.777  0.00  0.00    -0.047 A 
ATOM     28  C   LIG    1       25.939 -24.237   7.152  0.00  0.00    +0.003 A 
ATOM     29  C   LIG    1       25.243 -23.025   7.172  0.00  0.00    +0.000 A 
ATOM     30  C   LIG    1       23.899 -22.997   6.814  0.00  0.00    +0.000 A 
ATOM     31  C   LIG    1       23.251 -24.180   6.457  0.00  0.00    +0.000 A 
ATOM     32  C   LIG    1       23.946 -25.393   6.441  0.00  0.00    +0.003 A 
ENDBRANCH  26  27
ENDBRANCH  25  26
ENDBRANCH  19  25
ENDBRANCH   1  19
TORSDOF 10
ENDMDL
MODEL 5
REMARK VINA RESULT:      -6.9      1.561      2.168
REMARK  Name = *****
REMARK                            x       y       z     vdW  Elec       q    Type
REMARK                         _______ _______ _______ _____ _____    ______ ____
ROOT
ATOM      1  N   LIG    1       28.212 -20.192   5.602  0.00  0.00    -0.293 NA
ATOM      2  H   LIG    1       28.525 -21.000   5.052  0.00  0.00    +0.123 HD
ENDROOT
BRANCH   1   3
ATOM      3  C   LIG    1       26.740 -20.414   5.913  0.00  0.00    +0.143 C 
ATOM      4  C   LIG    1       26.440 -21.910   6.417  0.00  0.00    +0.247 C 
ATOM      5  O   LIG    1       27.358 -22.634   6.815  0.00  0.00    -0.273 OA
ATOM      6  N   LIG    1       25.087 -22.382   6.371  0.00  0.00    -0.219 N 
ATOM      7  N   LIG    1       23.973 -21.475   6.261  0.00  0.00    -0.224 NA
ATOM      8  C   LIG    1       22.728 -21.904   6.903  0.00  0.00    +0.106 C 
ATOM      9  C   LIG    1       22.330 -23.302   6.472  0.00  0.00    +0.019 C 
ATOM     10  C   LIG    1       23.433 -24.252   6.928  0.00  0.00    +0.037 C 
ATOM     11  C   LIG    1       23.717 -21.032   4.893  0.00  0.00    +0.106 C 
ATOM     12  C   LIG    1       24.576 -19.805   4.746  0.00  0.00    +0.019 C 
ATOM     13  C   LIG    1       24.817 -23.865   6.331  0.00  0.00    +0.202 C 
ATOM     14  C   LIG    1       26.003 -20.275   4.589  0.00  0.00    +0.029 C 
BRANCH  13  15
ATOM     15  C   LIG    1       24.884 -24.386   4.845  0.00  0.00    +0.327 C 
ATOM     16  O   LIG    1       25.087 -25.503   4.411  0.00  0.00    -0.249 OA
BRANCH  15  17
ATOM     17  O   LIG    1       24.661 -23.316   4.025  0.00  0.00    -0.479 OA
ATOM     18  H   LIG    1       23.724 -23.075   4.229  0.00  0.00    +0.295 HD
ENDBRANCH  15  17
ENDBRANCH  13  15
ENDBRANCH   1   3
BRANCH   1  19
ATOM     19  C   LIG    1       29.155 -20.000   6.785  0.00  0.00    +0.164 C 
BRANCH  19  20
ATOM     20  C   LIG    1       28.525 -20.353   8.160  0.00  0.00    +0.324 C 
ATOM     21  O   LIG    1       27.694 -19.647   8.720  0.00  0.00    -0.249 OA
BRANCH  20  22
ATOM     22  O   LIG    1       29.115 -21.463   8.713  0.00  0.00    -0.464 OA
BRANCH  22  24
ATOM     23  C   LIG    1       31.528 -21.494   9.426  0.00  0.00    +0.048 C 
ATOM     24  C   LIG    1       30.479 -21.782   8.370  0.00  0.00    +0.229 C 
ENDBRANCH  22  24
ENDBRANCH  20  22
ENDBRANCH  19  20
BRANCH  19  25
ATOM     25  C   LIG    1       29.660 -18.533   6.870  0.00  0.00    +0.035 C 
BRANCH  25  26
ATOM     26  C   LIG    1       31.078 -18.414   7.508  0.00  0.00    +0.037 C 
BRANCH  26  27
ATOM     27  C   LIG    1       31.202 -17.704   8.841  0.00  0.00    -0.047 A 
ATOM     28  C   LIG    1       32.326 -16.885   9.076  0.00  0.00    +0.003 A 
ATOM     29  C   LIG    1       32.486 -16.209  10.290  0.00  0.00    +0.000 A 
ATOM     30  C   LIG    1       31.523 -16.342  11.284  0.00  0.00    +0.000 A 
ATOM     31  C   LIG    1       30.414 -17.162  11.072  0.00  0.00    +0.000 A 
ATOM     32  C   LIG    1       30.256 -17.841   9.861  0.00  0.00    +0.003 A 
ENDBRANCH  26  27
ENDBRANCH  25  26
ENDBRANCH  19  25
ENDBRANCH   1  19
TORSDOF 10
ENDMDL
MODEL 6
REMARK VINA RESULT:      -6.9      5.676      8.975
REMARK  Name = *****
REMARK                            x       y       z     vdW  Elec       q    Type
REMARK                         _______ _______ _______ _____ _____    ______ ____
ROOT
ATOM      1  N   LIG    1       25.971 -26.991   6.960  0.00  0.00    -0.293 NA
ATOM      2  H   LIG    1       26.765 -27.048   7.607  0.00  0.00    +0.123 HD
ENDROOT
BRANCH   1   3
ATOM      3  C   LIG    1       25.064 -28.171   7.268  0.00  0.00    +0.143 C 
ATOM      4  C   LIG    1       25.613 -29.064   8.487  0.00  0.00    +0.247 C 
ATOM      5  O   LIG    1       26.466 -28.614   9.259  0.00  0.00    -0.273 OA
ATOM      6  N   LIG    1       25.103 -30.395   8.637  0.00  0.00    -0.219 N 
ATOM      7  N   LIG    1       23.880 -30.812   7.997  0.00  0.00    -0.224 NA
ATOM      8  C   LIG    1       23.097 -31.827   8.706  0.00  0.00    +0.106 C 
ATOM      9  C   LIG    1       23.946 -33.026   9.082  0.00  0.00    +0.019 C 
ATOM     10  C   LIG    1       25.031 -32.535  10.035  0.00  0.00    +0.037 C 
ATOM     11  C   LIG    1       24.057 -31.188   6.596  0.00  0.00    +0.106 C 
ATOM     12  C   LIG    1       23.864 -29.895   5.851  0.00  0.00    +0.019 C 
ATOM     13  C   LIG    1       25.908 -31.420   9.394  0.00  0.00    +0.202 C 
ATOM     14  C   LIG    1       25.119 -29.076   6.045  0.00  0.00    +0.029 C 
BRANCH  13  15
ATOM     15  C   LIG    1       26.957 -32.100   8.433  0.00  0.00    +0.327 C 
ATOM     16  O   LIG    1       27.136 -31.960   7.239  0.00  0.00    -0.249 OA
BRANCH  15  17
ATOM     17  O   LIG    1       27.715 -32.949   9.189  0.00  0.00    -0.479 OA
ATOM     18  H   LIG    1       27.039 -33.415   9.740  0.00  0.00    +0.295 HD
ENDBRANCH  15  17
ENDBRANCH  13  15
ENDBRANCH   1   3
BRANCH   1  19
ATOM     19  C   LIG    1       25.357 -25.598   7.048  0.00  0.00    +0.164 C 
BRANCH  19  20
ATOM     20  C   LIG    1       24.091 -25.407   6.170  0.00  0.00    +0.324 C 
ATOM     21  O   LIG    1       24.024 -25.764   4.999  0.00  0.00    -0.249 OA
BRANCH  20  22
ATOM     22  O   LIG    1       23.130 -24.676   6.825  0.00  0.00    -0.464 OA
BRANCH  22  24
ATOM     23  C   LIG    1       23.015 -22.203   7.276  0.00  0.00    +0.048 C 
ATOM     24  C   LIG    1       22.781 -23.367   6.333  0.00  0.00    +0.229 C 
ENDBRANCH  22  24
ENDBRANCH  20  22
ENDBRANCH  19  20
BRANCH  19  25
ATOM     25  C   LIG    1       26.380 -24.505   6.629  0.00  0.00    +0.035 C 
BRANCH  25  26
ATOM     26  C   LIG    1       26.274 -23.210   7.491  0.00  0.00    +0.037 C 
BRANCH  26  27
ATOM     27  C   LIG    1       27.005 -21.972   7.010  0.00  0.00    -0.047 A 
ATOM     28  C   LIG    1       26.373 -21.126   6.076  0.00  0.00    +0.003 A 
ATOM     29  C   LIG    1       27.005 -19.973   5.601  0.00  0.00    +0.000 A 
ATOM     30  C   LIG    1       28.279 -19.650   6.056  0.00  0.00    +0.000 A 
ATOM     31  C   LIG    1       28.924 -20.486   6.968  0.00  0.00    +0.000 A 
ATOM     32  C   LIG    1       28.294 -21.641   7.440  0.00  0.00    +0.003 A 
ENDBRANCH  26  27
ENDBRANCH  25  26
ENDBRANCH  19  25
ENDBRANCH   1  19
TORSDOF 10
ENDMDL
MODEL 7
REMARK VINA RESULT:      -6.8      7.258     11.157
REMARK  Name = *****
REMARK                            x       y       z     vdW  Elec       q    Type
REMARK                         _______ _______ _______ _____ _____    ______ ____
ROOT
ATOM      1  N   LIG    1       25.712 -28.606   7.817  0.00  0.00    -0.293 NA
ATOM      2  H   LIG    1       25.617 -27.679   8.246  0.00  0.00    +0.123 HD
ENDROOT
BRANCH   1   3
ATOM      3  C   LIG    1       25.838 -29.607   8.954  0.00  0.00    +0.143 C 
ATOM      4  C   LIG    1       24.415 -29.987   9.596  0.00  0.00    +0.247 C 
ATOM      5  O   LIG    1       23.367 -29.745   8.987  0.00  0.00    -0.273 OA
ATOM      6  N   LIG    1       24.396 -30.592  10.896  0.00  0.00    -0.219 N 
ATOM      7  N   LIG    1       25.572 -31.204  11.461  0.00  0.00    -0.224 NA
ATOM      8  C   LIG    1       25.339 -32.337  12.359  0.00  0.00    +0.106 C 
ATOM      9  C   LIG    1       24.335 -31.994  13.443  0.00  0.00    +0.019 C 
ATOM     10  C   LIG    1       23.012 -31.674  12.754  0.00  0.00    +0.037 C 
ATOM     11  C   LIG    1       26.488 -30.245  12.074  0.00  0.00    +0.106 C 
ATOM     12  C   LIG    1       27.392 -29.837  10.942  0.00  0.00    +0.019 C 
ATOM     13  C   LIG    1       23.152 -30.500  11.742  0.00  0.00    +0.202 C 
ATOM     14  C   LIG    1       26.606 -28.896  10.059  0.00  0.00    +0.029 C 
BRANCH  13  15
ATOM     15  C   LIG    1       23.145 -29.144  12.546  0.00  0.00    +0.327 C 
ATOM     16  O   LIG    1       23.944 -28.229  12.553  0.00  0.00    -0.249 OA
BRANCH  15  17
ATOM     17  O   LIG    1       22.012 -29.126  13.310  0.00  0.00    -0.479 OA
ATOM     18  H   LIG    1       21.302 -29.335  12.654  0.00  0.00    +0.295 HD
ENDBRANCH  15  17
ENDBRANCH  13  15
ENDBRANCH   1   3
BRANCH   1  19
ATOM     19  C   LIG    1       24.572 -28.815   6.826  0.00  0.00    +0.164 C 
BRANCH  19  20
ATOM     20  C   LIG    1       24.733 -30.075   5.933  0.00  0.00    +0.324 C 
ATOM     21  O   LIG    1       25.711 -30.276   5.223  0.00  0.00    -0.249 OA
BRANCH  20  22
ATOM     22  O   LIG    1       23.595 -30.844   5.940  0.00  0.00    -0.464 OA
BRANCH  22  24
ATOM     23  C   LIG    1       23.432 -32.883   7.405  0.00  0.00    +0.048 C 
ATOM     24  C   LIG    1       23.712 -32.277   6.043  0.00  0.00    +0.229 C 
ENDBRANCH  22  24
ENDBRANCH  20  22
ENDBRANCH  19  20
BRANCH  19  25
ATOM     25  C   LIG    1       24.419 -27.592   5.879  0.00  0.00    +0.035 C 
BRANCH  25  26
ATOM     26  C   LIG    1       25.483 -26.483   6.140  0.00  0.00    +0.037 C 
BRANCH  26  27
ATOM     27  C   LIG    1       24.992 -25.102   6.529  0.00  0.00    -0.047 A 
ATOM     28  C   LIG    1       23.616 -24.811   6.417  0.00  0.00    +0.003 A 
ATOM     29  C   LIG    1       23.114 -23.553   6.762  0.00  0.00    +0.000 A 
ATOM     30  C   LIG    1       23.981 -22.569   7.226  0.00  0.00    +0.000 A 
ATOM     31  C   LIG    1       25.347 -22.837   7.325  0.00  0.00    +0.000 A 
ATOM     32  C   LIG    1       25.850 -24.093   6.976  0.00  0.00    +0.003 A 
ENDBRANCH  26  27
ENDBRANCH  25  26
ENDBRANCH  19  25
ENDBRANCH   1  19
TORSDOF 10
ENDMDL
MODEL 8
REMARK VINA RESULT:      -6.8      1.243      2.330
REMARK  Name = *****
REMARK                            x       y       z     vdW  Elec       q    Type
REMARK                         _______ _______ _______ _____ _____    ______ ____
ROOT
ATOM      1  N   LIG    1       28.580 -20.570   7.866  0.00  0.00    -0.293 NA
ATOM      2  H   LIG    1       28.468 -20.986   8.797  0.00  0.00    +0.123 HD
ENDROOT
BRANCH   1   3
ATOM      3  C   LIG    1       27.184 -20.382   7.295  0.00  0.00    +0.143 C 
ATOM      4  C   LIG    1       26.159 -21.513   7.798  0.00  0.00    +0.247 C 
ATOM      5  O   LIG    1       26.426 -22.207   8.785  0.00  0.00    -0.273 OA
ATOM      6  N   LIG    1       24.944 -21.704   7.062  0.00  0.00    -0.219 N 
ATOM      7  N   LIG    1       24.444 -20.701   6.155  0.00  0.00    -0.224 NA
ATOM      8  C   LIG    1       22.988 -20.627   6.017  0.00  0.00    +0.106 C 
ATOM      9  C   LIG    1       22.387 -21.984   5.705  0.00  0.00    +0.019 C 
ATOM     10  C   LIG    1       22.690 -22.899   6.887  0.00  0.00    +0.037 C 
ATOM     11  C   LIG    1       25.083 -20.737   4.841  0.00  0.00    +0.106 C 
ATOM     12  C   LIG    1       26.274 -19.831   4.996  0.00  0.00    +0.019 C 
ATOM     13  C   LIG    1       24.219 -23.022   7.151  0.00  0.00    +0.202 C 
ATOM     14  C   LIG    1       27.310 -20.588   5.792  0.00  0.00    +0.029 C 
BRANCH  13  15
ATOM     15  C   LIG    1       24.824 -24.043   6.113  0.00  0.00    +0.327 C 
ATOM     16  O   LIG    1       24.863 -24.001   4.899  0.00  0.00    -0.249 OA
BRANCH  15  17
ATOM     17  O   LIG    1       25.353 -25.084   6.822  0.00  0.00    -0.479 OA
ATOM     18  H   LIG    1       25.130 -25.867   6.261  0.00  0.00    +0.295 HD
ENDBRANCH  15  17
ENDBRANCH  13  15
ENDBRANCH   1   3
BRANCH   1  19
ATOM     19  C   LIG    1       29.462 -19.332   7.977  0.00  0.00    +0.164 C 
BRANCH  19  20
ATOM     20  C   LIG    1       30.036 -18.839   6.621  0.00  0.00    +0.324 C 
ATOM     21  O   LIG    1       31.069 -19.277   6.129  0.00  0.00    -0.249 OA
BRANCH  20  22
ATOM     22  O   LIG    1       29.321 -17.774   6.130  0.00  0.00    -0.464 OA
BRANCH  22  24
ATOM     23  C   LIG    1       27.884 -16.844   4.286  0.00  0.00    +0.048 C 
ATOM     24  C   LIG    1       29.073 -17.683   4.713  0.00  0.00    +0.229 C 
ENDBRANCH  22  24
ENDBRANCH  20  22
ENDBRANCH  19  20
BRANCH  19  25
ATOM     25  C   LIG    1       30.667 -19.582   8.926  0.00  0.00    +0.035 C 
BRANCH  25  26
ATOM     26  C   LIG    1       31.765 -18.479   8.820  0.00  0.00    +0.037 C 
BRANCH  26  27
ATOM     27  C   LIG    1       31.956 -17.549  10.002  0.00  0.00    -0.047 A 
ATOM     28  C   LIG    1       32.813 -16.437   9.863  0.00  0.00    +0.003 A 
ATOM     29  C   LIG    1       33.023 -15.551  10.923  0.00  0.00    +0.000 A 
ATOM     30  C   LIG    1       32.379 -15.764  12.137  0.00  0.00    +0.000 A 
ATOM     31  C   LIG    1       31.542 -16.870  12.295  0.00  0.00    +0.000 A 
ATOM     32  C   LIG    1       31.335 -17.758  11.236  0.00  0.00    +0.003 A 
ENDBRANCH  26  27
ENDBRANCH  25  26
ENDBRANCH  19  25
ENDBRANCH   1  19
TORSDOF 10
ENDMDL
MODEL 9
REMARK VINA RESULT:      -6.8      5.382      9.505
REMARK  Name = *****
REMARK                            x       y       z     vdW  Elec       q    Type
REMARK                         _______ _______ _______ _____ _____    ______ ____
ROOT
ATOM      1  N   LIG    1       26.574 -25.554   5.994  0.00  0.00    -0.293 NA
ATOM      2  H   LIG    1       26.549 -25.493   4.970  0.00  0.00    +0.123 HD
ENDROOT
BRANCH   1   3
ATOM      3  C   LIG    1       25.640 -24.478   6.524  0.00  0.00    +0.143 C 
ATOM      4  C   LIG    1       24.889 -23.685   5.346  0.00  0.00    +0.247 C 
ATOM      5  O   LIG    1       24.842 -24.155   4.204  0.00  0.00    -0.273 OA
ATOM      6  N   LIG    1       24.298 -22.416   5.652  0.00  0.00    -0.219 N 
ATOM      7  N   LIG    1       24.023 -22.017   7.010  0.00  0.00    -0.224 NA
ATOM      8  C   LIG    1       22.866 -21.140   7.202  0.00  0.00    +0.106 C 
ATOM      9  C   LIG    1       22.922 -19.933   6.286  0.00  0.00    +0.019 C 
ATOM     10  C   LIG    1       22.876 -20.446   4.851  0.00  0.00    +0.037 C 
ATOM     11  C   LIG    1       25.192 -21.483   7.705  0.00  0.00    +0.106 C 
ATOM     12  C   LIG    1       25.832 -22.700   8.318  0.00  0.00    +0.019 C 
ATOM     13  C   LIG    1       24.047 -21.424   4.544  0.00  0.00    +0.202 C 
ATOM     14  C   LIG    1       26.528 -23.447   7.206  0.00  0.00    +0.029 C 
BRANCH  13  15
ATOM     15  C   LIG    1       25.349 -20.576   4.275  0.00  0.00    +0.327 C 
ATOM     16  O   LIG    1       26.339 -20.415   4.961  0.00  0.00    -0.249 OA
BRANCH  15  17
ATOM     17  O   LIG    1       25.208 -19.986   3.050  0.00  0.00    -0.479 OA
ATOM     18  H   LIG    1       26.062 -19.500   2.942  0.00  0.00    +0.295 HD
ENDBRANCH  15  17
ENDBRANCH  13  15
ENDBRANCH   1   3
BRANCH   1  19
ATOM     19  C   LIG    1       26.292 -26.992   6.414  0.00  0.00    +0.164 C 
BRANCH  19  20
ATOM     20  C   LIG    1       25.239 -27.714   5.531  0.00  0.00    +0.324 C 
ATOM     21  O   LIG    1       24.085 -27.321   5.402  0.00  0.00    -0.249 OA
BRANCH  20  22
ATOM     22  O   LIG    1       25.724 -28.902   5.039  0.00  0.00    -0.464 OA
BRANCH  22  24
ATOM     23  C   LIG    1       25.892 -31.352   5.585  0.00  0.00    +0.048 C 
ATOM     24  C   LIG    1       25.030 -30.128   5.343  0.00  0.00    +0.229 C 
ENDBRANCH  22  24
ENDBRANCH  20  22
ENDBRANCH  19  20
BRANCH  19  25
ATOM     25  C   LIG    1       25.790 -27.062   7.884  0.00  0.00    +0.035 C 
BRANCH  25  26
ATOM     26  C   LIG    1       26.551 -28.123   8.737  0.00  0.00    +0.037 C 
BRANCH  26  27
ATOM     27  C   LIG    1       25.915 -29.488   8.907  0.00  0.00    -0.047 A 
ATOM     28  C   LIG    1       24.517 -29.612   8.769  0.00  0.00    +0.003 A 
ATOM     29  C   LIG    1       23.883 -30.849   8.917  0.00  0.00    +0.000 A 
ATOM     30  C   LIG    1       24.640 -31.980   9.203  0.00  0.00    +0.000 A 
ATOM     31  C   LIG    1       26.022 -31.870   9.359  0.00  0.00    +0.000 A 
ATOM     32  C   LIG    1       26.656 -30.633   9.216  0.00  0.00    +0.003 A 
ENDBRANCH  26  27
ENDBRANCH  25  26
ENDBRANCH  19  25
ENDBRANCH   1  19
TORSDOF 10
ENDMDL
