MODEL 1
REMARK VINA RESULT:       7.9      0.000      0.000
REMARK  Name = *****
REMARK                            x       y       z     vdW  Elec       q    Type
REMARK                         _______ _______ _______ _____ _____    ______ ____
ROOT
ATOM      1  C   LIG    1       29.475 -20.044   5.552  0.00  0.00    +0.105 C 
ATOM      2  N   LIG    1       28.437 -19.306   6.271  0.00  0.00    -0.305 NA
ATOM      3  C   LIG    1       28.437 -17.876   5.926  0.00  0.00    +0.088 C 
ATOM      4  C   LIG    1       27.912 -17.546   4.518  0.00  0.00    +0.047 C 
ATOM      5  C   LIG    1       26.536 -18.152   4.252  0.00  0.00    -0.056 C 
ATOM      6  C   LIG    1       25.477 -17.461   3.751  0.00  0.00    +0.024 C 
ATOM      7  C   LIG    1       25.619 -16.022   3.412  0.00  0.00    -0.011 A 
ATOM      8  C   LIG    1       24.915 -15.072   4.171  0.00  0.00    -0.038 A 
ATOM      9  C   LIG    1       25.039 -13.712   3.863  0.00  0.00    +0.004 A 
ATOM     10  C   LIG    1       25.843 -13.303   2.797  0.00  0.00    +0.000 A 
ATOM     11  C   LIG    1       26.520 -14.248   2.028  0.00  0.00    +0.001 A 
ATOM     12  C   LIG    1       24.003 -15.543   5.274  0.00  0.00    +0.057 C 
ATOM     13  C   LIG    1       22.802 -16.312   4.718  0.00  0.00    +0.128 C 
ATOM     14  N   LIG    1       23.029 -17.557   3.994  0.00  0.00    -0.321 N 
ATOM     15  C   LIG    1       21.998 -18.399   3.597  0.00  0.00    +0.101 A 
ATOM     16  C   LIG    1       22.629 -19.446   2.964  0.00  0.00    +0.142 A 
ATOM     17  N   LIG    1       23.980 -19.268   2.944  0.00  0.00    -0.235 NA
ATOM     18  C   LIG    1       26.403 -15.604   2.329  0.00  0.00    +0.009 A 
ATOM     19  C   LIG    1       24.218 -18.120   3.557  0.00  0.00    +0.142 A 
ATOM     20  C   LIG    1       26.511 -19.628   4.643  0.00  0.00    +0.047 C 
ATOM     21  C   LIG    1       27.099 -19.875   6.044  0.00  0.00    +0.088 C 
ENDROOT
BRANCH  15  22
ATOM     22  C   LIG    1       20.584 -18.213   3.792  0.00  0.00    +0.278 C 
ATOM     23  O   LIG    1       19.714 -18.491   2.972  0.00  0.00    -0.294 OA
ENDBRANCH  15  22
TORSDOF 1
ENDMDL
MODEL 2
REMARK VINA RESULT:      10.7      2.627      5.500
REMARK  Name = *****
REMARK                            x       y       z     vdW  Elec       q    Type
REMARK                         _______ _______ _______ _____ _____    ______ ____
ROOT
ATOM      1  C   LIG    1       24.933 -12.608   3.414  0.00  0.00    +0.105 C 
ATOM      2  N   LIG    1       24.572 -13.417   4.577  0.00  0.00    -0.305 NA
ATOM      3  C   LIG    1       23.211 -13.967   4.468  0.00  0.00    +0.088 C 
ATOM      4  C   LIG    1       23.049 -15.098   3.438  0.00  0.00    +0.047 C 
ATOM      5  C   LIG    1       24.057 -16.225   3.646  0.00  0.00    -0.056 C 
ATOM      6  C   LIG    1       23.733 -17.546   3.701  0.00  0.00    +0.024 C 
ATOM      7  C   LIG    1       22.319 -17.972   3.543  0.00  0.00    -0.011 A 
ATOM      8  C   LIG    1       21.651 -18.536   4.643  0.00  0.00    -0.038 A 
ATOM      9  C   LIG    1       20.318 -18.944   4.508  0.00  0.00    +0.004 A 
ATOM     10  C   LIG    1       19.662 -18.806   3.283  0.00  0.00    +0.000 A 
ATOM     11  C   LIG    1       20.333 -18.272   2.185  0.00  0.00    +0.001 A 
ATOM     12  C   LIG    1       22.401 -18.733   5.934  0.00  0.00    +0.057 C 
ATOM     13  C   LIG    1       23.505 -19.783   5.787  0.00  0.00    +0.128 C 
ATOM     14  N   LIG    1       24.605 -19.533   4.863  0.00  0.00    -0.321 N 
ATOM     15  C   LIG    1       25.726 -20.349   4.783  0.00  0.00    +0.101 A 
ATOM     16  C   LIG    1       26.510 -19.769   3.812  0.00  0.00    +0.142 A 
ATOM     17  N   LIG    1       25.911 -18.661   3.293  0.00  0.00    -0.235 NA
ATOM     18  C   LIG    1       21.660 -17.863   2.311  0.00  0.00    +0.009 A 
ATOM     19  C   LIG    1       24.755 -18.527   3.921  0.00  0.00    +0.142 A 
ATOM     20  C   LIG    1       25.469 -15.665   3.801  0.00  0.00    +0.047 C 
ATOM     21  C   LIG    1       25.534 -14.505   4.810  0.00  0.00    +0.088 C 
ENDROOT
BRANCH  15  22
ATOM     22  C   LIG    1       26.001 -21.543   5.538  0.00  0.00    +0.278 C 
ATOM     23  O   LIG    1       26.377 -21.572   6.706  0.00  0.00    -0.294 OA
ENDBRANCH  15  22
TORSDOF 1
ENDMDL
