MODEL 1
REMARK VINA RESULT:      -4.2      0.000      0.000
REMARK  Name = *****
REMARK                            x       y       z     vdW  Elec       q    Type
REMARK                         _______ _______ _______ _____ _____    ______ ____
ROOT
ATOM      1  N   LIG    1       29.249 -18.182   4.820  0.00  0.00    -0.311 NA
ATOM      2  H   LIG    1       29.588 -17.999   3.866  0.00  0.00    +0.122 HD
ENDROOT
BRANCH   1   3
ATOM      3  C   LIG    1       28.198 -17.207   5.159  0.00  0.00    +0.115 C 
BRANCH   3   4
ATOM      4  C   LIG    1       28.013 -16.098   4.090  0.00  0.00    +0.169 C 
BRANCH   4   5
ATOM      5  C   LIG    1       28.119 -14.654   4.654  0.00  0.00    +0.203 C 
ATOM      6  O   LIG    1       26.868 -14.186   5.182  0.00  0.00    -0.486 OA
ATOM      7  C   LIG    1       26.030 -13.543   4.310  0.00  0.00    +0.124 A 
ATOM      8  C   LIG    1       26.426 -13.062   3.058  0.00  0.00    -0.003 A 
ATOM      9  C   LIG    1       25.476 -12.423   2.244  0.00  0.00    +0.045 A 
ATOM     10  C   LIG    1       24.175 -12.263   2.702  0.00  0.00    +0.124 A 
ATOM     11  C   LIG    1       23.783 -12.731   3.946  0.00  0.00    +0.042 A 
ATOM     12  F   LIG    1       23.277 -11.641   1.919  0.00  0.00    -0.205 F 
ATOM     13  C   LIG    1       27.828 -13.255   2.561  0.00  0.00    +0.042 C 
ATOM     14  C   LIG    1       24.719 -13.378   4.757  0.00  0.00    +0.049 A 
ATOM     15  C   LIG    1       28.752 -13.627   3.709  0.00  0.00    +0.052 C 
ENDBRANCH   4   5
BRANCH   4  16
ATOM     16  O   LIG    1       26.771 -16.326   3.417  0.00  0.00    -0.387 OA
ATOM     17  H   LIG    1       26.605 -15.503   2.914  0.00  0.00    +0.210 HD
ENDBRANCH   4  16
ENDBRANCH   3   4
ENDBRANCH   1   3
BRANCH   1  18
ATOM     18  C   LIG    1       28.738 -19.562   4.872  0.00  0.00    +0.115 C 
BRANCH  18  19
ATOM     19  C   LIG    1       28.378 -19.993   6.317  0.00  0.00    +0.169 C 
BRANCH  19  20
ATOM     20  C   LIG    1       26.842 -20.104   6.504  0.00  0.00    +0.203 C 
ATOM     21  O   LIG    1       26.237 -19.687   5.263  0.00  0.00    -0.486 OA
ATOM     22  C   LIG    1       24.906 -19.972   5.116  0.00  0.00    +0.124 A 
ATOM     23  C   LIG    1       24.212 -20.883   5.921  0.00  0.00    -0.003 A 
ATOM     24  C   LIG    1       22.856 -21.124   5.661  0.00  0.00    +0.045 A 
ATOM     25  C   LIG    1       22.227 -20.476   4.604  0.00  0.00    +0.124 A 
ATOM     26  C   LIG    1       22.915 -19.580   3.798  0.00  0.00    +0.042 A 
ATOM     27  F   LIG    1       20.932 -20.726   4.354  0.00  0.00    -0.205 F 
ATOM     28  C   LIG    1       24.902 -21.572   7.061  0.00  0.00    +0.042 C 
ATOM     29  C   LIG    1       24.265 -19.327   4.055  0.00  0.00    +0.049 A 
ATOM     30  C   LIG    1       26.416 -21.528   6.875  0.00  0.00    +0.052 C 
ENDBRANCH  19  20
BRANCH  19  31
ATOM     31  O   LIG    1       28.999 -21.260   6.600  0.00  0.00    -0.387 OA
ATOM     32  H   LIG    1       29.961 -21.117   6.511  0.00  0.00    +0.210 HD
ENDBRANCH  19  31
ENDBRANCH  18  19
ENDBRANCH   1  18
TORSDOF 8
ENDMDL
MODEL 2
REMARK VINA RESULT:      -2.7      3.197      7.830
REMARK  Name = *****
REMARK                            x       y       z     vdW  Elec       q    Type
REMARK                         _______ _______ _______ _____ _____    ______ ____
ROOT
ATOM      1  N   LIG    1       22.117 -18.464   3.784  0.00  0.00    -0.311 NA
ATOM      2  H   LIG    1       22.623 -18.734   2.930  0.00  0.00    +0.122 HD
ENDROOT
BRANCH   1   3
ATOM      3  C   LIG    1       22.869 -18.923   4.964  0.00  0.00    +0.115 C 
BRANCH   3   4
ATOM      4  C   LIG    1       22.492 -20.356   5.421  0.00  0.00    +0.169 C 
BRANCH   4   5
ATOM      5  C   LIG    1       23.541 -21.437   5.039  0.00  0.00    +0.203 C 
ATOM      6  O   LIG    1       24.570 -21.568   6.032  0.00  0.00    -0.486 OA
ATOM      7  C   LIG    1       25.673 -20.769   5.888  0.00  0.00    +0.124 A 
ATOM      8  C   LIG    1       25.988 -20.077   4.715  0.00  0.00    -0.003 A 
ATOM      9  C   LIG    1       27.145 -19.280   4.686  0.00  0.00    +0.045 A 
ATOM     10  C   LIG    1       27.961 -19.211   5.808  0.00  0.00    +0.124 A 
ATOM     11  C   LIG    1       27.655 -19.903   6.969  0.00  0.00    +0.042 A 
ATOM     12  F   LIG    1       29.071 -18.454   5.766  0.00  0.00    -0.205 F 
ATOM     13  C   LIG    1       25.094 -20.140   3.513  0.00  0.00    +0.042 C 
ATOM     14  C   LIG    1       26.500 -20.689   7.009  0.00  0.00    +0.049 A 
ATOM     15  C   LIG    1       24.129 -21.308   3.630  0.00  0.00    +0.052 C 
ENDBRANCH   4   5
BRANCH   4  16
ATOM     16  O   LIG    1       21.191 -20.662   4.913  0.00  0.00    -0.387 OA
ATOM     17  H   LIG    1       21.323 -20.799   3.952  0.00  0.00    +0.210 HD
ENDBRANCH   4  16
ENDBRANCH   3   4
ENDBRANCH   1   3
BRANCH   1  18
ATOM     18  C   LIG    1       21.959 -17.000   3.783  0.00  0.00    +0.115 C 
BRANCH  18  19
ATOM     19  C   LIG    1       22.920 -16.313   4.786  0.00  0.00    +0.169 C 
BRANCH  19  20
ATOM     20  C   LIG    1       24.074 -15.585   4.049  0.00  0.00    +0.203 C 
ATOM     21  O   LIG    1       24.637 -14.639   4.980  0.00  0.00    -0.486 OA
ATOM     22  C   LIG    1       25.842 -14.090   4.629  0.00  0.00    +0.124 A 
ATOM     23  C   LIG    1       26.669 -14.610   3.627  0.00  0.00    -0.003 A 
ATOM     24  C   LIG    1       27.900 -13.988   3.370  0.00  0.00    +0.045 A 
ATOM     25  C   LIG    1       28.288 -12.884   4.121  0.00  0.00    +0.124 A 
ATOM     26  C   LIG    1       27.473 -12.373   5.123  0.00  0.00    +0.042 A 
ATOM     27  F   LIG    1       29.473 -12.305   3.879  0.00  0.00    -0.205 F 
ATOM     28  C   LIG    1       26.236 -15.798   2.820  0.00  0.00    +0.042 C 
ATOM     29  C   LIG    1       26.242 -12.982   5.379  0.00  0.00    +0.049 A 
ATOM     30  C   LIG    1       25.138 -16.567   3.549  0.00  0.00    +0.052 C 
ENDBRANCH  19  20
BRANCH  19  31
ATOM     31  O   LIG    1       22.177 -15.373   5.583  0.00  0.00    -0.387 OA
ATOM     32  H   LIG    1       22.708 -14.553   5.603  0.00  0.00    +0.210 HD
ENDBRANCH  19  31
ENDBRANCH  18  19
ENDBRANCH   1  18
TORSDOF 8
ENDMDL
MODEL 3
REMARK VINA RESULT:      -1.9      3.012      4.781
REMARK  Name = *****
REMARK                            x       y       z     vdW  Elec       q    Type
REMARK                         _______ _______ _______ _____ _____    ______ ____
ROOT
ATOM      1  N   LIG    1       21.904 -17.260   4.215  0.00  0.00    -0.311 NA
ATOM      2  H   LIG    1       21.156 -17.756   4.718  0.00  0.00    +0.122 HD
ENDROOT
BRANCH   1   3
ATOM      3  C   LIG    1       22.710 -16.489   5.175  0.00  0.00    +0.115 C 
BRANCH   3   4
ATOM      4  C   LIG    1       22.950 -15.018   4.744  0.00  0.00    +0.169 C 
BRANCH   4   5
ATOM      5  C   LIG    1       23.594 -14.869   3.339  0.00  0.00    +0.203 C 
ATOM      6  O   LIG    1       24.920 -15.417   3.290  0.00  0.00    -0.486 OA
ATOM      7  C   LIG    1       25.951 -14.572   3.604  0.00  0.00    +0.124 A 
ATOM      8  C   LIG    1       25.827 -13.181   3.673  0.00  0.00    -0.003 A 
ATOM      9  C   LIG    1       26.954 -12.415   4.012  0.00  0.00    +0.045 A 
ATOM     10  C   LIG    1       28.168 -13.045   4.252  0.00  0.00    +0.124 A 
ATOM     11  C   LIG    1       28.296 -14.423   4.175  0.00  0.00    +0.042 A 
ATOM     12  F   LIG    1       29.242 -12.301   4.566  0.00  0.00    -0.205 F 
ATOM     13  C   LIG    1       24.509 -12.507   3.432  0.00  0.00    +0.042 C 
ATOM     14  C   LIG    1       27.176 -15.193   3.850  0.00  0.00    +0.049 A 
ATOM     15  C   LIG    1       23.545 -13.458   2.742  0.00  0.00    +0.052 C 
ENDBRANCH   4   5
BRANCH   4  16
ATOM     16  O   LIG    1       23.719 -14.371   5.762  0.00  0.00    -0.387 OA
ATOM     17  H   LIG    1       23.792 -15.033   6.480  0.00  0.00    +0.210 HD
ENDBRANCH   4  16
ENDBRANCH   3   4
ENDBRANCH   1   3
BRANCH   1  18
ATOM     18  C   LIG    1       22.722 -18.258   3.506  0.00  0.00    +0.115 C 
BRANCH  18  19
ATOM     19  C   LIG    1       22.377 -19.706   3.941  0.00  0.00    +0.169 C 
BRANCH  19  20
ATOM     20  C   LIG    1       23.596 -20.396   4.607  0.00  0.00    +0.203 C 
ATOM     21  O   LIG    1       24.753 -19.589   4.307  0.00  0.00    -0.486 OA
ATOM     22  C   LIG    1       25.884 -19.864   5.028  0.00  0.00    +0.124 A 
ATOM     23  C   LIG    1       25.890 -20.625   6.203  0.00  0.00    -0.003 A 
ATOM     24  C   LIG    1       27.103 -20.817   6.881  0.00  0.00    +0.045 A 
ATOM     25  C   LIG    1       28.269 -20.239   6.394  0.00  0.00    +0.124 A 
ATOM     26  C   LIG    1       28.262 -19.475   5.234  0.00  0.00    +0.042 A 
ATOM     27  F   LIG    1       29.421 -20.416   7.058  0.00  0.00    -0.205 F 
ATOM     28  C   LIG    1       24.626 -21.248   6.715  0.00  0.00    +0.042 C 
ATOM     29  C   LIG    1       27.061 -19.285   4.548  0.00  0.00    +0.049 A 
ATOM     30  C   LIG    1       23.407 -20.549   6.119  0.00  0.00    +0.052 C 
ENDBRANCH  19  20
BRANCH  19  31
ATOM     31  O   LIG    1       21.271 -19.671   4.861  0.00  0.00    -0.387 OA
ATOM     32  H   LIG    1       20.896 -18.772   4.801  0.00  0.00    +0.210 HD
ENDBRANCH  19  31
ENDBRANCH  18  19
ENDBRANCH   1  18
TORSDOF 8
ENDMDL
