MODEL 1
REMARK VINA RESULT:     -10.4      0.000      0.000
REMARK  Name = *****
REMARK                            x       y       z     vdW  Elec       q    Type
REMARK                         _______ _______ _______ _____ _____    ______ ____
ROOT
ATOM      1  C   LIG    1       25.913 -21.399   6.782  0.00  0.00    +0.021 C 
ATOM      2  C   LIG    1       25.265 -20.575   5.627  0.00  0.00    -0.033 A 
ATOM      3  C   LIG    1       23.844 -20.659   5.592  0.00  0.00    -0.036 A 
ATOM      4  C   LIG    1       23.105 -20.035   4.592  0.00  0.00    +0.004 A 
ATOM      5  C   LIG    1       23.778 -19.291   3.625  0.00  0.00    +0.000 A 
ATOM      6  C   LIG    1       25.173 -19.170   3.668  0.00  0.00    +0.000 A 
ATOM      7  C   LIG    1       23.245 -21.492   6.718  0.00  0.00    +0.050 C 
ATOM      8  C   LIG    1       23.900 -22.863   6.673  0.00  0.00    -0.036 A 
ATOM      9  C   LIG    1       23.198 -24.064   6.611  0.00  0.00    +0.004 A 
ATOM     10  C   LIG    1       23.912 -25.253   6.529  0.00  0.00    +0.000 A 
ATOM     11  C   LIG    1       25.313 -25.235   6.475  0.00  0.00    +0.000 A 
ATOM     12  C   LIG    1       26.020 -24.025   6.527  0.00  0.00    +0.005 A 
ATOM     13  C   LIG    1       23.716 -20.836   8.032  0.00  0.00    +0.014 C 
ATOM     14  C   LIG    1       25.920 -19.812   4.663  0.00  0.00    +0.005 A 
ATOM     15  C   LIG    1       25.327 -22.831   6.667  0.00  0.00    -0.033 A 
ATOM     16  C   LIG    1       25.272 -20.794   8.083  0.00  0.00    +0.017 C 
ENDROOT
BRANCH   1  17
ATOM     17  C   LIG    1       27.468 -21.279   6.822  0.00  0.00    +0.017 C 
BRANCH  17  18
ATOM     18  C   LIG    1       28.079 -20.146   7.677  0.00  0.00    +0.016 C 
BRANCH  18  19
ATOM     19  C   LIG    1       29.473 -19.742   7.154  0.00  0.00    +0.080 C 
BRANCH  19  21
ATOM     20  C   LIG    1       31.174 -20.094   8.837  0.00  0.00    +0.101 C 
ATOM     21  N   LIG    1       30.510 -20.646   7.659  0.00  0.00    -0.319 NA
ATOM     22  H   LIG    1       30.100 -21.546   7.904  0.00  0.00    +0.122 HD
ENDBRANCH  19  21
ENDBRANCH  18  19
ENDBRANCH  17  18
ENDBRANCH   1  17
TORSDOF 4
ENDMDL
MODEL 2
REMARK VINA RESULT:      -8.8      2.005      5.108
REMARK  Name = *****
REMARK                            x       y       z     vdW  Elec       q    Type
REMARK                         _______ _______ _______ _____ _____    ______ ____
ROOT
ATOM      1  C   LIG    1       25.084 -21.362   5.706  0.00  0.00    +0.021 C 
ATOM      2  C   LIG    1       25.141 -22.918   5.788  0.00  0.00    -0.033 A 
ATOM      3  C   LIG    1       25.589 -23.410   7.047  0.00  0.00    -0.036 A 
ATOM      4  C   LIG    1       25.757 -24.771   7.276  0.00  0.00    +0.004 A 
ATOM      5  C   LIG    1       25.450 -25.667   6.254  0.00  0.00    +0.000 A 
ATOM      6  C   LIG    1       24.973 -25.200   5.022  0.00  0.00    +0.000 A 
ATOM      7  C   LIG    1       25.871 -22.319   8.072  0.00  0.00    +0.050 C 
ATOM      8  C   LIG    1       26.864 -21.350   7.449  0.00  0.00    -0.036 A 
ATOM      9  C   LIG    1       28.070 -20.979   8.039  0.00  0.00    +0.004 A 
ATOM     10  C   LIG    1       28.915 -20.118   7.350  0.00  0.00    +0.000 A 
ATOM     11  C   LIG    1       28.571 -19.664   6.069  0.00  0.00    +0.000 A 
ATOM     12  C   LIG    1       27.362 -20.046   5.470  0.00  0.00    +0.005 A 
ATOM     13  C   LIG    1       24.555 -21.534   8.236  0.00  0.00    +0.014 C 
ATOM     14  C   LIG    1       24.821 -23.829   4.783  0.00  0.00    +0.005 A 
ATOM     15  C   LIG    1       26.478 -20.858   6.166  0.00  0.00    -0.033 A 
ATOM     16  C   LIG    1       24.098 -20.959   6.862  0.00  0.00    +0.017 C 
ENDROOT
BRANCH   1  17
ATOM     17  C   LIG    1       24.569 -20.838   4.330  0.00  0.00    +0.017 C 
BRANCH  17  18
ATOM     18  C   LIG    1       23.463 -19.759   4.340  0.00  0.00    +0.016 C 
BRANCH  18  19
ATOM     19  C   LIG    1       23.966 -18.439   3.722  0.00  0.00    +0.080 C 
BRANCH  19  21
ATOM     20  C   LIG    1       26.036 -17.265   3.287  0.00  0.00    +0.101 C 
ATOM     21  N   LIG    1       25.358 -18.558   3.279  0.00  0.00    -0.319 NA
ATOM     22  H   LIG    1       25.865 -19.199   3.890  0.00  0.00    +0.122 HD
ENDBRANCH  19  21
ENDBRANCH  18  19
ENDBRANCH  17  18
ENDBRANCH   1  17
TORSDOF 4
ENDMDL
MODEL 3
REMARK VINA RESULT:      -8.5      2.439      5.540
REMARK  Name = *****
REMARK                            x       y       z     vdW  Elec       q    Type
REMARK                         _______ _______ _______ _____ _____    ______ ____
ROOT
ATOM      1  C   LIG    1       25.039 -21.240   5.781  0.00  0.00    +0.021 C 
ATOM      2  C   LIG    1       25.125 -22.796   5.823  0.00  0.00    -0.033 A 
ATOM      3  C   LIG    1       25.698 -23.307   7.022  0.00  0.00    -0.036 A 
ATOM      4  C   LIG    1       25.906 -24.670   7.203  0.00  0.00    +0.004 A 
ATOM      5  C   LIG    1       25.516 -25.549   6.195  0.00  0.00    +0.000 A 
ATOM      6  C   LIG    1       24.916 -25.064   5.025  0.00  0.00    +0.000 A 
ATOM      7  C   LIG    1       26.063 -22.233   8.039  0.00  0.00    +0.050 C 
ATOM      8  C   LIG    1       26.978 -21.236   7.346  0.00  0.00    -0.036 A 
ATOM      9  C   LIG    1       28.229 -20.858   7.826  0.00  0.00    +0.004 A 
ATOM     10  C   LIG    1       28.993 -19.970   7.079  0.00  0.00    +0.000 A 
ATOM     11  C   LIG    1       28.521 -19.495   5.847  0.00  0.00    +0.000 A 
ATOM     12  C   LIG    1       27.266 -19.884   5.359  0.00  0.00    +0.005 A 
ATOM     13  C   LIG    1       24.757 -21.473   8.345  0.00  0.00    +0.014 C 
ATOM     14  C   LIG    1       24.723 -23.691   4.833  0.00  0.00    +0.005 A 
ATOM     15  C   LIG    1       26.464 -20.724   6.117  0.00  0.00    -0.033 A 
ATOM     16  C   LIG    1       24.163 -20.877   7.035  0.00  0.00    +0.017 C 
ENDROOT
BRANCH   1  17
ATOM     17  C   LIG    1       24.388 -20.696   4.473  0.00  0.00    +0.017 C 
BRANCH  17  18
ATOM     18  C   LIG    1       23.010 -20.005   4.589  0.00  0.00    +0.016 C 
BRANCH  18  19
ATOM     19  C   LIG    1       23.053 -18.573   4.019  0.00  0.00    +0.080 C 
BRANCH  19  21
ATOM     20  C   LIG    1       22.466 -16.314   4.654  0.00  0.00    +0.101 C 
ATOM     21  N   LIG    1       22.055 -17.716   4.664  0.00  0.00    -0.319 NA
ATOM     22  H   LIG    1       21.159 -17.800   4.185  0.00  0.00    +0.122 HD
ENDBRANCH  19  21
ENDBRANCH  18  19
ENDBRANCH  17  18
ENDBRANCH   1  17
TORSDOF 4
ENDMDL
MODEL 4
REMARK VINA RESULT:      -8.4      2.358      5.139
REMARK  Name = *****
REMARK                            x       y       z     vdW  Elec       q    Type
REMARK                         _______ _______ _______ _____ _____    ______ ____
ROOT
ATOM      1  C   LIG    1       24.514 -22.677   5.843  0.00  0.00    +0.021 C 
ATOM      2  C   LIG    1       25.542 -22.076   6.850  0.00  0.00    -0.033 A 
ATOM      3  C   LIG    1       25.015 -21.017   7.643  0.00  0.00    -0.036 A 
ATOM      4  C   LIG    1       25.810 -20.327   8.551  0.00  0.00    +0.004 A 
ATOM      5  C   LIG    1       27.143 -20.706   8.701  0.00  0.00    +0.000 A 
ATOM      6  C   LIG    1       27.665 -21.770   7.954  0.00  0.00    +0.000 A 
ATOM      7  C   LIG    1       23.543 -20.722   7.383  0.00  0.00    +0.050 C 
ATOM      8  C   LIG    1       23.385 -20.456   5.894  0.00  0.00    -0.036 A 
ATOM      9  C   LIG    1       22.790 -19.315   5.362  0.00  0.00    +0.004 A 
ATOM     10  C   LIG    1       22.744 -19.165   3.982  0.00  0.00    +0.000 A 
ATOM     11  C   LIG    1       23.319 -20.133   3.146  0.00  0.00    +0.000 A 
ATOM     12  C   LIG    1       23.927 -21.277   3.682  0.00  0.00    +0.005 A 
ATOM     13  C   LIG    1       22.788 -22.036   7.665  0.00  0.00    +0.014 C 
ATOM     14  C   LIG    1       26.871 -22.455   7.026  0.00  0.00    +0.005 A 
ATOM     15  C   LIG    1       23.932 -21.473   5.055  0.00  0.00    -0.033 A 
ATOM     16  C   LIG    1       23.337 -23.177   6.758  0.00  0.00    +0.017 C 
ENDROOT
BRANCH   1  17
ATOM     17  C   LIG    1       25.097 -23.851   4.998  0.00  0.00    +0.017 C 
BRANCH  17  18
ATOM     18  C   LIG    1       24.880 -25.290   5.521  0.00  0.00    +0.016 C 
BRANCH  18  19
ATOM     19  C   LIG    1       26.189 -25.884   6.078  0.00  0.00    +0.080 C 
BRANCH  19  21
ATOM     20  C   LIG    1       25.617 -28.050   5.166  0.00  0.00    +0.101 C 
ATOM     21  N   LIG    1       26.644 -27.017   5.267  0.00  0.00    -0.319 NA
ATOM     22  H   LIG    1       26.885 -26.700   4.328  0.00  0.00    +0.122 HD
ENDBRANCH  19  21
ENDBRANCH  18  19
ENDBRANCH  17  18
ENDBRANCH   1  17
TORSDOF 4
ENDMDL
