MODEL 1
REMARK VINA RESULT:      38.9      0.000      0.000
REMARK  Name = *****
REMARK                            x       y       z     vdW  Elec       q    Type
REMARK                         _______ _______ _______ _____ _____    ______ ____
ROOT
ATOM      1  C   LIG    1       25.000 -23.152   7.488  0.00  0.00    +0.000 C 
ATOM      2  C   LIG    1       25.014 -24.472   7.279  0.00  0.00    +0.000 C 
ENDROOT
BRANCH   1   5
ATOM      3  C   LIG    1       26.168 -21.536   5.223  0.00  0.00    +0.044 C 
ATOM      4  C   LIG    1       24.718 -21.547   5.638  0.00  0.00    -0.050 C 
ATOM      5  C   LIG    1       24.229 -22.266   6.662  0.00  0.00    +0.003 C 
BRANCH   4   6
ATOM      6  C   LIG    1       23.785 -20.720   4.884  0.00  0.00    +0.003 C 
ATOM      7  C   LIG    1       23.837 -20.524   3.563  0.00  0.00    +0.001 C 
BRANCH   7   8
ATOM      8  C   LIG    1       22.887 -19.681   2.900  0.00  0.00    +0.003 C 
ATOM      9  C   LIG    1       22.182 -18.700   3.490  0.00  0.00    -0.050 C 
ATOM     10  C   LIG    1       22.294 -18.309   4.942  0.00  0.00    +0.044 C 
BRANCH   9  11
ATOM     11  C   LIG    1       21.240 -17.913   2.711  0.00  0.00    +0.003 C 
ATOM     12  C   LIG    1       20.113 -17.391   3.222  0.00  0.00    +0.004 C 
BRANCH  12  13
ATOM     13  C   LIG    1       19.139 -16.629   2.465  0.00  0.00    -0.043 C 
ATOM     14  C   LIG    1       17.717 -17.228   2.436  0.00  0.00    -0.010 C 
ATOM     15  C   LIG    1       17.698 -18.757   2.187  0.00  0.00    +0.016 C 
ATOM     16  C   LIG    1       17.024 -16.957   3.791  0.00  0.00    +0.016 C 
ATOM     17  C   LIG    1       16.893 -16.587   1.291  0.00  0.00    +0.011 C 
ATOM     18  C   LIG    1       17.016 -15.071   1.286  0.00  0.00    +0.005 C 
ATOM     19  C   LIG    1       18.464 -14.656   1.062  0.00  0.00    +0.031 C 
ATOM     20  C   LIG    1       19.477 -15.489   1.813  0.00  0.00    -0.069 C 
ATOM     21  C   LIG    1       20.876 -14.920   1.726  0.00  0.00    +0.039 C 
ENDBRANCH  12  13
ENDBRANCH   9  11
ENDBRANCH   7   8
ENDBRANCH   4   6
ENDBRANCH   1   5
BRANCH   2  22
ATOM     22  C   LIG    1       25.777 -25.364   8.098  0.00  0.00    +0.003 C 
ATOM     23  C   LIG    1       26.029 -26.666   7.856  0.00  0.00    -0.050 C 
ATOM     24  C   LIG    1       25.598 -27.434   6.632  0.00  0.00    +0.044 C 
BRANCH  23  25
ATOM     25  C   LIG    1       26.825 -27.430   8.801  0.00  0.00    +0.003 C 
ATOM     26  C   LIG    1       26.985 -27.093  10.083  0.00  0.00    +0.001 C 
BRANCH  26  27
ATOM     27  C   LIG    1       27.791 -27.865  10.987  0.00  0.00    +0.003 C 
ATOM     28  C   LIG    1       27.703 -29.195  11.148  0.00  0.00    -0.050 C 
ATOM     29  C   LIG    1       26.714 -30.114  10.488  0.00  0.00    +0.044 C 
BRANCH  28  30
ATOM     30  C   LIG    1       28.612 -29.859  12.053  0.00  0.00    +0.003 C 
ATOM     31  C   LIG    1       29.546 -29.198  12.750  0.00  0.00    +0.004 C 
BRANCH  31  32
ATOM     32  C   LIG    1       30.481 -29.874  13.619  0.00  0.00    -0.043 C 
ATOM     33  C   LIG    1       31.973 -29.589  13.373  0.00  0.00    -0.010 C 
ATOM     34  C   LIG    1       32.308 -29.169  11.915  0.00  0.00    +0.016 C 
ATOM     35  C   LIG    1       32.384 -28.407  14.281  0.00  0.00    +0.016 C 
ATOM     36  C   LIG    1       32.849 -30.834  13.695  0.00  0.00    +0.011 C 
ATOM     37  C   LIG    1       32.250 -31.864  14.654  0.00  0.00    +0.005 C 
ATOM     38  C   LIG    1       31.092 -31.356  15.495  0.00  0.00    +0.031 C 
ATOM     39  C   LIG    1       30.068 -30.664  14.636  0.00  0.00    -0.069 C 
ATOM     40  C   LIG    1       28.637 -30.922  15.037  0.00  0.00    +0.039 C 
ENDBRANCH  31  32
ENDBRANCH  28  30
ENDBRANCH  26  27
ENDBRANCH  23  25
ENDBRANCH   2  22
TORSDOF 10
ENDMDL
MODEL 2
REMARK VINA RESULT:      39.3      6.159     15.309
REMARK  Name = *****
REMARK                            x       y       z     vdW  Elec       q    Type
REMARK                         _______ _______ _______ _____ _____    ______ ____
ROOT
ATOM      1  C   LIG    1       24.197 -25.340   7.213  0.00  0.00    +0.000 C 
ATOM      2  C   LIG    1       23.635 -24.132   7.112  0.00  0.00    +0.000 C 
ENDROOT
BRANCH   1   5
ATOM      3  C   LIG    1       25.613 -27.783   8.279  0.00  0.00    +0.044 C 
ATOM      4  C   LIG    1       24.127 -27.527   8.350  0.00  0.00    -0.050 C 
ATOM      5  C   LIG    1       23.523 -26.435   7.852  0.00  0.00    +0.003 C 
BRANCH   4   6
ATOM      6  C   LIG    1       23.291 -28.529   8.995  0.00  0.00    +0.003 C 
ATOM      7  C   LIG    1       22.152 -28.268   9.644  0.00  0.00    +0.001 C 
BRANCH   7   8
ATOM      8  C   LIG    1       21.395 -29.314  10.266  0.00  0.00    +0.003 C 
ATOM      9  C   LIG    1       21.652 -29.836  11.478  0.00  0.00    -0.050 C 
ATOM     10  C   LIG    1       22.765 -29.389  12.393  0.00  0.00    +0.044 C 
BRANCH   9  11
ATOM     11  C   LIG    1       20.814 -30.902  12.003  0.00  0.00    +0.003 C 
ATOM     12  C   LIG    1       19.480 -30.936  11.849  0.00  0.00    +0.004 C 
BRANCH  12  13
ATOM     13  C   LIG    1       18.614 -31.966  12.386  0.00  0.00    -0.043 C 
ATOM     14  C   LIG    1       18.966 -32.443  13.811  0.00  0.00    -0.010 C 
ATOM     15  C   LIG    1       20.483 -32.678  14.023  0.00  0.00    +0.016 C 
ATOM     16  C   LIG    1       18.501 -31.380  14.832  0.00  0.00    +0.016 C 
ATOM     17  C   LIG    1       18.268 -33.794  14.109  0.00  0.00    +0.011 C 
ATOM     18  C   LIG    1       16.797 -33.766  13.722  0.00  0.00    +0.005 C 
ATOM     19  C   LIG    1       16.645 -33.520  12.227  0.00  0.00    +0.031 C 
ATOM     20  C   LIG    1       17.588 -32.483  11.665  0.00  0.00    -0.069 C 
ATOM     21  C   LIG    1       17.267 -32.124  10.230  0.00  0.00    +0.039 C 
ENDBRANCH  12  13
ENDBRANCH   9  11
ENDBRANCH   7   8
ENDBRANCH   4   6
ENDBRANCH   1   5
BRANCH   2  22
ATOM     22  C   LIG    1       24.297 -23.035   6.474  0.00  0.00    +0.003 C 
ATOM     23  C   LIG    1       24.731 -22.984   5.199  0.00  0.00    -0.050 C 
ATOM     24  C   LIG    1       24.552 -24.066   4.163  0.00  0.00    +0.044 C 
BRANCH  23  25
ATOM     25  C   LIG    1       25.390 -21.784   4.714  0.00  0.00    +0.003 C 
ATOM     26  C   LIG    1       26.553 -21.329   5.188  0.00  0.00    +0.001 C 
BRANCH  26  27
ATOM     27  C   LIG    1       27.168 -20.129   4.694  0.00  0.00    +0.003 C 
ATOM     28  C   LIG    1       26.534 -19.174   3.996  0.00  0.00    -0.050 C 
ATOM     29  C   LIG    1       25.104 -19.199   3.536  0.00  0.00    +0.044 C 
BRANCH  28  30
ATOM     30  C   LIG    1       27.258 -17.988   3.602  0.00  0.00    +0.003 C 
ATOM     31  C   LIG    1       27.008 -16.783   4.131  0.00  0.00    +0.004 C 
BRANCH  31  32
ATOM     32  C   LIG    1       27.705 -15.593   3.700  0.00  0.00    -0.043 C 
ATOM     33  C   LIG    1       26.922 -14.633   2.786  0.00  0.00    -0.010 C 
ATOM     34  C   LIG    1       25.804 -15.320   1.955  0.00  0.00    +0.016 C 
ATOM     35  C   LIG    1       26.227 -13.586   3.687  0.00  0.00    +0.016 C 
ATOM     36  C   LIG    1       27.863 -13.921   1.773  0.00  0.00    +0.011 C 
ATOM     37  C   LIG    1       29.342 -13.833   2.154  0.00  0.00    +0.005 C 
ATOM     38  C   LIG    1       29.635 -14.057   3.628  0.00  0.00    +0.031 C 
ATOM     39  C   LIG    1       28.955 -15.303   4.128  0.00  0.00    -0.069 C 
ATOM     40  C   LIG    1       29.769 -16.110   5.108  0.00  0.00    +0.039 C 
ENDBRANCH  31  32
ENDBRANCH  28  30
ENDBRANCH  26  27
ENDBRANCH  23  25
ENDBRANCH   2  22
TORSDOF 10
ENDMDL
MODEL 3
REMARK VINA RESULT:      40.3      1.748      2.380
REMARK  Name = *****
REMARK                            x       y       z     vdW  Elec       q    Type
REMARK                         _______ _______ _______ _____ _____    ______ ____
ROOT
ATOM      1  C   LIG    1       25.397 -22.729   7.500  0.00  0.00    +0.000 C 
ATOM      2  C   LIG    1       25.148 -23.037   8.776  0.00  0.00    +0.000 C 
ENDROOT
BRANCH   1   5
ATOM      3  C   LIG    1       26.269 -20.673   5.470  0.00  0.00    +0.044 C 
ATOM      4  C   LIG    1       24.841 -21.030   5.802  0.00  0.00    -0.050 C 
ATOM      5  C   LIG    1       24.483 -21.940   6.723  0.00  0.00    +0.003 C 
BRANCH   4   6
ATOM      6  C   LIG    1       23.780 -20.341   5.082  0.00  0.00    +0.003 C 
ATOM      7  C   LIG    1       22.817 -19.613   5.656  0.00  0.00    +0.001 C 
BRANCH   7   8
ATOM      8  C   LIG    1       21.798 -18.978   4.873  0.00  0.00    +0.003 C 
ATOM      9  C   LIG    1       21.343 -19.427   3.690  0.00  0.00    -0.050 C 
ATOM     10  C   LIG    1       21.812 -20.686   3.005  0.00  0.00    +0.044 C 
BRANCH   9  11
ATOM     11  C   LIG    1       20.306 -18.691   2.984  0.00  0.00    +0.003 C 
ATOM     12  C   LIG    1       19.166 -18.281   3.564  0.00  0.00    +0.004 C 
BRANCH  12  13
ATOM     13  C   LIG    1       18.101 -17.574   2.881  0.00  0.00    -0.043 C 
ATOM     14  C   LIG    1       17.482 -16.400   3.668  0.00  0.00    -0.010 C 
ATOM     15  C   LIG    1       17.206 -16.736   5.156  0.00  0.00    +0.016 C 
ATOM     16  C   LIG    1       18.447 -15.193   3.623  0.00  0.00    +0.016 C 
ATOM     17  C   LIG    1       16.119 -16.002   3.048  0.00  0.00    +0.011 C 
ATOM     18  C   LIG    1       16.206 -15.864   1.536  0.00  0.00    +0.005 C 
ATOM     19  C   LIG    1       16.599 -17.192   0.902  0.00  0.00    +0.031 C 
ATOM     20  C   LIG    1       17.673 -17.948   1.649  0.00  0.00    -0.069 C 
ATOM     21  C   LIG    1       18.175 -19.152   0.883  0.00  0.00    +0.039 C 
ENDBRANCH  12  13
ENDBRANCH   9  11
ENDBRANCH   7   8
ENDBRANCH   4   6
ENDBRANCH   1   5
BRANCH   2  22
ATOM     22  C   LIG    1       26.054 -23.821   9.560  0.00  0.00    +0.003 C 
ATOM     23  C   LIG    1       26.060 -23.946  10.903  0.00  0.00    -0.050 C 
ATOM     24  C   LIG    1       25.066 -23.322  11.850  0.00  0.00    +0.044 C 
BRANCH  23  25
ATOM     25  C   LIG    1       27.058 -24.786  11.540  0.00  0.00    +0.003 C 
ATOM     26  C   LIG    1       26.849 -25.465  12.670  0.00  0.00    +0.001 C 
BRANCH  26  27
ATOM     27  C   LIG    1       27.865 -26.276  13.280  0.00  0.00    +0.003 C 
ATOM     28  C   LIG    1       27.877 -27.618  13.280  0.00  0.00    -0.050 C 
ATOM     29  C   LIG    1       26.817 -28.525  12.722  0.00  0.00    +0.044 C 
BRANCH  28  30
ATOM     30  C   LIG    1       28.988 -28.315  13.885  0.00  0.00    +0.003 C 
ATOM     31  C   LIG    1       29.500 -29.440  13.368  0.00  0.00    +0.004 C 
BRANCH  31  32
ATOM     32  C   LIG    1       30.582 -30.157  14.002  0.00  0.00    -0.043 C 
ATOM     33  C   LIG    1       32.007 -29.669  13.685  0.00  0.00    -0.010 C 
ATOM     34  C   LIG    1       32.142 -28.953  12.313  0.00  0.00    +0.016 C 
ATOM     35  C   LIG    1       32.403 -28.635  14.765  0.00  0.00    +0.016 C 
ATOM     36  C   LIG    1       33.023 -30.847  13.679  0.00  0.00    +0.011 C 
ATOM     37  C   LIG    1       32.629 -32.096  14.469  0.00  0.00    +0.005 C 
ATOM     38  C   LIG    1       31.526 -31.882  15.492  0.00  0.00    +0.031 C 
ATOM     39  C   LIG    1       30.357 -31.161  14.879  0.00  0.00    -0.069 C 
ATOM     40  C   LIG    1       29.007 -31.646  15.348  0.00  0.00    +0.039 C 
ENDBRANCH  31  32
ENDBRANCH  28  30
ENDBRANCH  26  27
ENDBRANCH  23  25
ENDBRANCH   2  22
TORSDOF 10
ENDMDL
