MODEL 1
REMARK VINA RESULT:       0.1      0.000      0.000
REMARK  Name = *****
REMARK                            x       y       z     vdW  Elec       q    Type
REMARK                         _______ _______ _______ _____ _____    ______ ____
ROOT
ATOM      1  C   LIG    1       27.649 -14.486   3.085  0.00  0.00    +0.031 C 
ATOM      2  C   LIG    1       28.217 -13.131   2.655  0.00  0.00    +0.121 C 
ATOM      3  C   LIG    1       29.389 -12.959   3.614  0.00  0.00    +0.063 C 
ATOM      4  C   LIG    1       28.809 -13.399   4.959  0.00  0.00    +0.124 C 
ATOM      5  C   LIG    1       27.714 -14.446   4.630  0.00  0.00    +0.046 C 
ENDROOT
BRANCH   2   6
ATOM      6  O   LIG    1       27.286 -12.076   2.867  0.00  0.00    -0.391 OA
ATOM      7  H   LIG    1       27.626 -11.300   2.384  0.00  0.00    +0.210 HD
ENDBRANCH   2   6
BRANCH   5   8
ATOM      8  C   LIG    1       28.050 -15.816   5.167  0.00  0.00    -0.022 C 
ATOM      9  C   LIG    1       28.433 -16.862   4.420  0.00  0.00    +0.003 C 
BRANCH   9  10
ATOM     10  C   LIG    1       28.732 -18.248   4.941  0.00  0.00    +0.174 C 
BRANCH  10  11
ATOM     11  O   LIG    1       28.913 -18.228   6.355  0.00  0.00    -0.384 OA
ATOM     12  H   LIG    1       29.867 -18.380   6.495  0.00  0.00    +0.210 HD
ENDBRANCH  10  11
BRANCH  10  13
ATOM     13  C   LIG    1       27.620 -19.247   4.569  0.00  0.00    +0.264 C 
BRANCH  13  14
ATOM     14  O   LIG    1       27.153 -19.908   5.756  0.00  0.00    -0.489 OA
BRANCH  14  15
ATOM     15  C   LIG    1       25.820 -20.190   5.857  0.00  0.00    +0.121 A 
ATOM     16  C   LIG    1       24.798 -19.620   5.098  0.00  0.00    +0.058 A 
ATOM     17  C   LIG    1       23.450 -19.958   5.328  0.00  0.00    +0.058 A 
ATOM     18  C   LIG    1       23.141 -20.903   6.314  0.00  0.00    +0.012 A 
ATOM     19  C   LIG    1       24.159 -21.494   7.059  0.00  0.00    +0.004 A 
ATOM     20  C   LIG    1       25.490 -21.134   6.833  0.00  0.00    +0.045 A 
BRANCH  17  21
ATOM     21  C   LIG    1       22.375 -19.287   4.512  0.00  0.00    +0.417 C 
ATOM     22  F   LIG    1       22.769 -19.051   3.230  0.00  0.00    -0.166 F 
ATOM     23  F   LIG    1       22.022 -18.072   5.020  0.00  0.00    -0.166 F 
ATOM     24  F   LIG    1       21.220 -20.003   4.424  0.00  0.00    -0.166 F 
ENDBRANCH  17  21
ENDBRANCH  14  15
ENDBRANCH  13  14
ENDBRANCH  10  13
ENDBRANCH   9  10
ENDBRANCH   5   8
BRANCH   4  25
ATOM     25  O   LIG    1       28.206 -12.269   5.597  0.00  0.00    -0.391 OA
ATOM     26  H   LIG    1       27.403 -12.054   5.080  0.00  0.00    +0.210 HD
ENDBRANCH   4  25
BRANCH   1  27
ATOM     27  C   LIG    1       26.244 -14.828   2.574  0.00  0.00    +0.033 C 
BRANCH  27  29
ATOM     28  C   LIG    1       24.597 -15.998   4.106  0.00  0.00    -0.031 C 
ATOM     29  C   LIG    1       25.670 -16.013   3.299  0.00  0.00    -0.031 C 
BRANCH  28  30
ATOM     30  C   LIG    1       23.805 -14.773   4.462  0.00  0.00    +0.027 C 
BRANCH  30  31
ATOM     31  C   LIG    1       22.924 -14.323   3.300  0.00  0.00    +0.015 C 
BRANCH  31  32
ATOM     32  C   LIG    1       23.728 -13.592   2.227  0.00  0.00    +0.121 C 
BRANCH  32  33
ATOM     33  C   LIG    1       24.050 -12.213   2.736  0.00  0.00    +0.307 C 
ATOM     34  O   LIG    1       24.839 -11.452   2.192  0.00  0.00    -0.251 OA
BRANCH  33  35
ATOM     35  O   LIG    1       23.225 -11.896   3.772  0.00  0.00    -0.462 OA
BRANCH  35  37
ATOM     36  C   LIG    1       22.859 -11.492   6.098  0.00  0.00    +0.051 C 
ATOM     37  C   LIG    1       23.886 -11.450   4.969  0.00  0.00    +0.170 C 
ATOM     38  C   LIG    1       25.045 -12.394   5.258  0.00  0.00    +0.051 C 
ENDBRANCH  35  37
ENDBRANCH  33  35
ENDBRANCH  32  33
ENDBRANCH  31  32
ENDBRANCH  30  31
ENDBRANCH  28  30
ENDBRANCH  27  29
ENDBRANCH   1  27
TORSDOF 17
ENDMDL
