MODEL 1
REMARK VINA RESULT:      -4.7      0.000      0.000
REMARK  Name = *****
REMARK                            x       y       z     vdW  Elec       q    Type
REMARK                         _______ _______ _______ _____ _____    ______ ____
ROOT
ATOM      1  N   LIG    1       25.536 -17.081   3.110  0.00  0.00    -0.119 NA
ATOM      2  C   LIG    1       25.937 -16.022   3.737  0.00  0.00    +0.159 C 
ENDROOT
BRANCH   2   3
ATOM      3  C   LIG    1       25.368 -14.678   3.487  0.00  0.00    +0.033 A 
ATOM      4  C   LIG    1       26.179 -13.715   2.860  0.00  0.00    +0.051 A 
ATOM      5 CL   LIG    1       27.809 -14.033   2.365  0.00  0.00    -0.083 Cl
ATOM      6  C   LIG    1       25.679 -12.440   2.571  0.00  0.00    +0.021 A 
ATOM      7  C   LIG    1       24.374 -12.103   2.917  0.00  0.00    +0.003 A 
ATOM      8  C   LIG    1       23.567 -13.044   3.552  0.00  0.00    +0.021 A 
ATOM      9  C   LIG    1       24.052 -14.329   3.835  0.00  0.00    +0.051 A 
ATOM     10 CL   LIG    1       22.957 -15.383   4.662  0.00  0.00    -0.083 Cl
ENDBRANCH   2   3
BRANCH   1  11
ATOM     11  N   LIG    1       26.237 -18.214   3.419  0.00  0.00    -0.155 N 
ATOM     12  H   LIG    1       27.151 -18.382   3.002  0.00  0.00    +0.292 HD
BRANCH  11  15
ATOM     13  N   LIG    1       24.451 -19.686   3.605  0.00  0.00    -0.128 NA
ATOM     14  H   LIG    1       24.262 -20.599   4.026  0.00  0.00    +0.306 HD
ATOM     15  C   LIG    1       25.667 -19.369   3.868  0.00  0.00    +0.400 C 
BRANCH  15  16
ATOM     16  N   LIG    1       26.490 -20.131   4.623  0.00  0.00    -0.288 N 
ATOM     17  H   LIG    1       26.561 -19.725   5.555  0.00  0.00    +0.255 HD
ATOM     18  H   LIG    1       26.283 -21.119   4.637  0.00  0.00    +0.255 HD
ENDBRANCH  15  16
ENDBRANCH  11  15
ENDBRANCH   1  11
TORSDOF 4
ENDMDL
MODEL 2
REMARK VINA RESULT:      -4.6      0.174      2.610
REMARK  Name = *****
REMARK                            x       y       z     vdW  Elec       q    Type
REMARK                         _______ _______ _______ _____ _____    ______ ____
ROOT
ATOM      1  N   LIG    1       25.630 -17.064   3.036  0.00  0.00    -0.119 NA
ATOM      2  C   LIG    1       25.876 -16.041   3.790  0.00  0.00    +0.159 C 
ENDROOT
BRANCH   2   3
ATOM      3  C   LIG    1       25.382 -14.681   3.481  0.00  0.00    +0.033 A 
ATOM      4  C   LIG    1       24.058 -14.354   3.832  0.00  0.00    +0.051 A 
ATOM      5 CL   LIG    1       22.986 -15.471   4.610  0.00  0.00    -0.083 Cl
ATOM      6  C   LIG    1       23.552 -13.071   3.591  0.00  0.00    +0.021 A 
ATOM      7  C   LIG    1       24.350 -12.105   2.987  0.00  0.00    +0.003 A 
ATOM      8  C   LIG    1       25.656 -12.421   2.622  0.00  0.00    +0.021 A 
ATOM      9  C   LIG    1       26.179 -13.699   2.868  0.00  0.00    +0.051 A 
ATOM     10 CL   LIG    1       27.800 -13.968   2.329  0.00  0.00    -0.083 Cl
ENDBRANCH   2   3
BRANCH   1  11
ATOM     11  N   LIG    1       26.239 -18.220   3.444  0.00  0.00    -0.155 N 
ATOM     12  H   LIG    1       27.172 -18.452   3.112  0.00  0.00    +0.292 HD
BRANCH  11  15
ATOM     13  N   LIG    1       26.164 -20.306   4.462  0.00  0.00    -0.128 NA
ATOM     14  H   LIG    1       25.456 -20.998   4.720  0.00  0.00    +0.306 HD
ATOM     15  C   LIG    1       25.570 -19.324   3.885  0.00  0.00    +0.400 C 
BRANCH  15  16
ATOM     16  N   LIG    1       24.241 -19.295   3.643  0.00  0.00    -0.288 N 
ATOM     17  H   LIG    1       23.999 -20.057   3.011  0.00  0.00    +0.255 HD
ATOM     18  H   LIG    1       23.647 -19.253   4.458  0.00  0.00    +0.255 HD
ENDBRANCH  15  16
ENDBRANCH  11  15
ENDBRANCH   1  11
TORSDOF 4
ENDMDL
MODEL 3
REMARK VINA RESULT:      -4.3      3.167      6.030
REMARK  Name = *****
REMARK                            x       y       z     vdW  Elec       q    Type
REMARK                         _______ _______ _______ _____ _____    ______ ____
ROOT
ATOM      1  N   LIG    1       25.283 -17.402   3.844  0.00  0.00    -0.119 NA
ATOM      2  C   LIG    1       25.322 -18.690   3.721  0.00  0.00    +0.159 C 
ENDROOT
BRANCH   2   3
ATOM      3  C   LIG    1       24.626 -19.605   4.653  0.00  0.00    +0.033 A 
ATOM      4  C   LIG    1       25.404 -20.413   5.502  0.00  0.00    +0.051 A 
ATOM      5 CL   LIG    1       27.137 -20.382   5.506  0.00  0.00    -0.083 Cl
ATOM      6  C   LIG    1       24.796 -21.273   6.424  0.00  0.00    +0.021 A 
ATOM      7  C   LIG    1       23.409 -21.349   6.503  0.00  0.00    +0.003 A 
ATOM      8  C   LIG    1       22.629 -20.564   5.657  0.00  0.00    +0.021 A 
ATOM      9  C   LIG    1       23.226 -19.690   4.737  0.00  0.00    +0.051 A 
ATOM     10 CL   LIG    1       22.140 -18.806   3.722  0.00  0.00    -0.083 Cl
ENDBRANCH   2   3
BRANCH   1  11
ATOM     11  N   LIG    1       26.055 -16.729   2.935  0.00  0.00    -0.155 N 
ATOM     12  H   LIG    1       26.542 -17.238   2.200  0.00  0.00    +0.292 HD
BRANCH  11  15
ATOM     13  N   LIG    1       26.205 -14.438   2.586  0.00  0.00    -0.128 NA
ATOM     14  H   LIG    1       26.763 -13.654   2.933  0.00  0.00    +0.306 HD
ATOM     15  C   LIG    1       26.618 -15.508   3.164  0.00  0.00    +0.400 C 
BRANCH  15  16
ATOM     16  N   LIG    1       27.653 -15.534   4.033  0.00  0.00    -0.288 N 
ATOM     17  H   LIG    1       27.303 -15.366   4.975  0.00  0.00    +0.255 HD
ATOM     18  H   LIG    1       28.256 -16.341   3.973  0.00  0.00    +0.255 HD
ENDBRANCH  15  16
ENDBRANCH  11  15
ENDBRANCH   1  11
TORSDOF 4
ENDMDL
MODEL 4
REMARK VINA RESULT:      -4.2      3.139      6.294
REMARK  Name = *****
REMARK                            x       y       z     vdW  Elec       q    Type
REMARK                         _______ _______ _______ _____ _____    ______ ____
ROOT
ATOM      1  N   LIG    1       25.334 -17.323   3.880  0.00  0.00    -0.119 NA
ATOM      2  C   LIG    1       25.210 -18.585   3.621  0.00  0.00    +0.159 C 
ENDROOT
BRANCH   2   3
ATOM      3  C   LIG    1       24.619 -19.546   4.578  0.00  0.00    +0.033 A 
ATOM      4  C   LIG    1       23.216 -19.627   4.665  0.00  0.00    +0.051 A 
ATOM      5 CL   LIG    1       22.155 -18.656   3.700  0.00  0.00    -0.083 Cl
ATOM      6  C   LIG    1       22.607 -20.542   5.531  0.00  0.00    +0.021 A 
ATOM      7  C   LIG    1       23.382 -21.375   6.331  0.00  0.00    +0.003 A 
ATOM      8  C   LIG    1       24.771 -21.293   6.264  0.00  0.00    +0.021 A 
ATOM      9  C   LIG    1       25.395 -20.389   5.392  0.00  0.00    +0.051 A 
ATOM     10 CL   LIG    1       27.123 -20.365   5.440  0.00  0.00    -0.083 Cl
ENDBRANCH   2   3
BRANCH   1  11
ATOM     11  N   LIG    1       25.977 -16.612   2.904  0.00  0.00    -0.155 N 
ATOM     12  H   LIG    1       26.324 -17.082   2.070  0.00  0.00    +0.292 HD
BRANCH  11  15
ATOM     13  N   LIG    1       26.282 -14.343   2.507  0.00  0.00    -0.128 NA
ATOM     14  H   LIG    1       26.883 -13.589   2.846  0.00  0.00    +0.306 HD
ATOM     15  C   LIG    1       26.614 -15.424   3.116  0.00  0.00    +0.400 C 
BRANCH  15  16
ATOM     16  N   LIG    1       27.630 -15.496   4.005  0.00  0.00    -0.288 N 
ATOM     17  H   LIG    1       28.096 -16.397   3.908  0.00  0.00    +0.255 HD
ATOM     18  H   LIG    1       28.271 -14.717   4.003  0.00  0.00    +0.255 HD
ENDBRANCH  15  16
ENDBRANCH  11  15
ENDBRANCH   1  11
TORSDOF 4
ENDMDL
MODEL 5
REMARK VINA RESULT:      -4.1      4.600      5.938
REMARK  Name = *****
REMARK                            x       y       z     vdW  Elec       q    Type
REMARK                         _______ _______ _______ _____ _____    ______ ____
ROOT
ATOM      1  N   LIG    1       24.859 -20.441   5.865  0.00  0.00    -0.119 NA
ATOM      2  C   LIG    1       25.844 -20.481   5.027  0.00  0.00    +0.159 C 
ENDROOT
BRANCH   2   3
ATOM      3  C   LIG    1       27.097 -19.718   5.226  0.00  0.00    +0.033 A 
ATOM      4  C   LIG    1       27.284 -18.535   4.487  0.00  0.00    +0.051 A 
ATOM      5 CL   LIG    1       26.114 -17.932   3.361  0.00  0.00    -0.083 Cl
ATOM      6  C   LIG    1       28.437 -17.760   4.662  0.00  0.00    +0.021 A 
ATOM      7  C   LIG    1       29.421 -18.159   5.560  0.00  0.00    +0.003 A 
ATOM      8  C   LIG    1       29.253 -19.336   6.285  0.00  0.00    +0.021 A 
ATOM      9  C   LIG    1       28.098 -20.116   6.129  0.00  0.00    +0.051 A 
ATOM     10 CL   LIG    1       28.038 -21.571   7.061  0.00  0.00    -0.083 Cl
ENDBRANCH   2   3
BRANCH   1  11
ATOM     11  N   LIG    1       23.757 -21.148   5.468  0.00  0.00    -0.155 N 
ATOM     12  H   LIG    1       23.844 -22.127   5.201  0.00  0.00    +0.292 HD
BRANCH  11  15
ATOM     13  N   LIG    1       22.558 -19.335   4.649  0.00  0.00    -0.128 NA
ATOM     14  H   LIG    1       21.630 -19.154   4.260  0.00  0.00    +0.306 HD
ATOM     15  C   LIG    1       22.629 -20.582   4.950  0.00  0.00    +0.400 C 
BRANCH  15  16
ATOM     16  N   LIG    1       21.599 -21.444   4.800  0.00  0.00    -0.288 N 
ATOM     17  H   LIG    1       20.862 -20.994   4.258  0.00  0.00    +0.255 HD
ATOM     18  H   LIG    1       21.841 -22.361   4.454  0.00  0.00    +0.255 HD
ENDBRANCH  15  16
ENDBRANCH  11  15
ENDBRANCH   1  11
TORSDOF 4
ENDMDL
MODEL 6
REMARK VINA RESULT:      -3.8      1.618      2.272
REMARK  Name = *****
REMARK                            x       y       z     vdW  Elec       q    Type
REMARK                         _______ _______ _______ _____ _____    ______ ____
ROOT
ATOM      1  N   LIG    1       25.637 -17.486   3.165  0.00  0.00    -0.119 NA
ATOM      2  C   LIG    1       25.219 -16.334   3.583  0.00  0.00    +0.159 C 
ENDROOT
BRANCH   2   3
ATOM      3  C   LIG    1       26.042 -15.106   3.507  0.00  0.00    +0.033 A 
ATOM      4  C   LIG    1       27.400 -15.188   3.867  0.00  0.00    +0.051 A 
ATOM      5 CL   LIG    1       28.149 -16.660   4.391  0.00  0.00    -0.083 Cl
ATOM      6  C   LIG    1       28.230 -14.064   3.782  0.00  0.00    +0.021 A 
ATOM      7  C   LIG    1       27.716 -12.844   3.353  0.00  0.00    +0.003 A 
ATOM      8  C   LIG    1       26.370 -12.748   3.009  0.00  0.00    +0.021 A 
ATOM      9  C   LIG    1       25.531 -13.870   3.078  0.00  0.00    +0.051 A 
ATOM     10 CL   LIG    1       23.875 -13.599   2.660  0.00  0.00    -0.083 Cl
ENDBRANCH   2   3
BRANCH   1  11
ATOM     11  N   LIG    1       24.765 -18.515   3.395  0.00  0.00    -0.155 N 
ATOM     12  H   LIG    1       23.788 -18.323   3.603  0.00  0.00    +0.292 HD
BRANCH  11  15
ATOM     13  N   LIG    1       26.293 -19.986   4.341  0.00  0.00    -0.128 NA
ATOM     14  H   LIG    1       26.330 -20.973   4.608  0.00  0.00    +0.306 HD
ATOM     15  C   LIG    1       25.139 -19.754   3.828  0.00  0.00    +0.400 C 
BRANCH  15  16
ATOM     16  N   LIG    1       24.197 -20.706   3.651  0.00  0.00    -0.288 N 
ATOM     17  H   LIG    1       24.451 -21.533   4.190  0.00  0.00    +0.255 HD
ATOM     18  H   LIG    1       23.243 -20.413   3.802  0.00  0.00    +0.255 HD
ENDBRANCH  15  16
ENDBRANCH  11  15
ENDBRANCH   1  11
TORSDOF 4
ENDMDL
MODEL 7
REMARK VINA RESULT:      -3.6      1.617      2.788
REMARK  Name = *****
REMARK                            x       y       z     vdW  Elec       q    Type
REMARK                         _______ _______ _______ _____ _____    ______ ____
ROOT
ATOM      1  N   LIG    1       25.636 -17.503   3.201  0.00  0.00    -0.119 NA
ATOM      2  C   LIG    1       25.238 -16.326   3.566  0.00  0.00    +0.159 C 
ENDROOT
BRANCH   2   3
ATOM      3  C   LIG    1       26.111 -15.132   3.514  0.00  0.00    +0.033 A 
ATOM      4  C   LIG    1       25.554 -13.915   3.079  0.00  0.00    +0.051 A 
ATOM      5 CL   LIG    1       23.895 -13.753   2.607  0.00  0.00    -0.083 Cl
ATOM      6  C   LIG    1       26.328 -12.749   3.042  0.00  0.00    +0.021 A 
ATOM      7  C   LIG    1       27.665 -12.783   3.422  0.00  0.00    +0.003 A 
ATOM      8  C   LIG    1       28.231 -13.985   3.840  0.00  0.00    +0.021 A 
ATOM      9  C   LIG    1       27.463 -15.158   3.893  0.00  0.00    +0.051 A 
ATOM     10 CL   LIG    1       28.302 -16.586   4.392  0.00  0.00    -0.083 Cl
ENDBRANCH   2   3
BRANCH   1  11
ATOM     11  N   LIG    1       24.712 -18.493   3.398  0.00  0.00    -0.155 N 
ATOM     12  H   LIG    1       23.742 -18.257   3.599  0.00  0.00    +0.292 HD
BRANCH  11  15
ATOM     13  N   LIG    1       26.173 -20.066   4.284  0.00  0.00    -0.128 NA
ATOM     14  H   LIG    1       26.156 -21.056   4.542  0.00  0.00    +0.306 HD
ATOM     15  C   LIG    1       25.020 -19.756   3.810  0.00  0.00    +0.400 C 
BRANCH  15  16
ATOM     16  N   LIG    1       24.014 -20.645   3.657  0.00  0.00    -0.288 N 
ATOM     17  H   LIG    1       24.351 -21.444   3.123  0.00  0.00    +0.255 HD
ATOM     18  H   LIG    1       23.530 -20.911   4.503  0.00  0.00    +0.255 HD
ENDBRANCH  15  16
ENDBRANCH  11  15
ENDBRANCH   1  11
TORSDOF 4
ENDMDL
MODEL 8
REMARK VINA RESULT:      -3.5      2.014      3.229
REMARK  Name = *****
REMARK                            x       y       z     vdW  Elec       q    Type
REMARK                         _______ _______ _______ _____ _____    ______ ____
ROOT
ATOM      1  N   LIG    1       27.978 -16.661   4.625  0.00  0.00    -0.119 NA
ATOM      2  C   LIG    1       27.114 -16.405   3.696  0.00  0.00    +0.159 C 
ENDROOT
BRANCH   2   3
ATOM      3  C   LIG    1       26.230 -15.218   3.728  0.00  0.00    +0.033 A 
ATOM      4  C   LIG    1       24.841 -15.421   3.826  0.00  0.00    +0.051 A 
ATOM      5 CL   LIG    1       24.122 -16.995   3.914  0.00  0.00    -0.083 Cl
ATOM      6  C   LIG    1       23.964 -14.332   3.892  0.00  0.00    +0.021 A 
ATOM      7  C   LIG    1       24.456 -13.032   3.846  0.00  0.00    +0.003 A 
ATOM      8  C   LIG    1       25.827 -12.819   3.734  0.00  0.00    +0.021 A 
ATOM      9  C   LIG    1       26.718 -13.902   3.679  0.00  0.00    +0.051 A 
ATOM     10 CL   LIG    1       28.389 -13.494   3.500  0.00  0.00    -0.083 Cl
ENDBRANCH   2   3
BRANCH   1  11
ATOM     11  N   LIG    1       28.644 -17.845   4.460  0.00  0.00    -0.155 N 
ATOM     12  H   LIG    1       28.866 -18.183   3.526  0.00  0.00    +0.292 HD
BRANCH  11  15
ATOM     13  N   LIG    1       27.928 -19.910   5.245  0.00  0.00    -0.128 NA
ATOM     14  H   LIG    1       28.118 -20.527   6.038  0.00  0.00    +0.306 HD
ATOM     15  C   LIG    1       28.648 -18.855   5.377  0.00  0.00    +0.400 C 
BRANCH  15  16
ATOM     16  N   LIG    1       29.461 -18.635   6.434  0.00  0.00    -0.288 N 
ATOM     17  H   LIG    1       29.296 -17.695   6.792  0.00  0.00    +0.255 HD
ATOM     18  H   LIG    1       29.446 -19.342   7.154  0.00  0.00    +0.255 HD
ENDBRANCH  15  16
ENDBRANCH  11  15
ENDBRANCH   1  11
TORSDOF 4
ENDMDL
MODEL 9
REMARK VINA RESULT:      -3.5      2.064      2.386
REMARK  Name = *****
REMARK                            x       y       z     vdW  Elec       q    Type
REMARK                         _______ _______ _______ _____ _____    ______ ____
ROOT
ATOM      1  N   LIG    1       27.757 -17.142   4.126  0.00  0.00    -0.119 NA
ATOM      2  C   LIG    1       27.874 -15.865   4.302  0.00  0.00    +0.159 C 
ENDROOT
BRANCH   2   3
ATOM      3  C   LIG    1       26.941 -14.884   3.704  0.00  0.00    +0.033 A 
ATOM      4  C   LIG    1       27.418 -13.588   3.430  0.00  0.00    +0.051 A 
ATOM      5 CL   LIG    1       29.045 -13.094   3.758  0.00  0.00    -0.083 Cl
ATOM      6  C   LIG    1       26.585 -12.633   2.835  0.00  0.00    +0.021 A 
ATOM      7  C   LIG    1       25.268 -12.949   2.520  0.00  0.00    +0.003 A 
ATOM      8  C   LIG    1       24.781 -14.224   2.800  0.00  0.00    +0.021 A 
ATOM      9  C   LIG    1       25.608 -15.194   3.385  0.00  0.00    +0.051 A 
ATOM     10 CL   LIG    1       24.864 -16.720   3.715  0.00  0.00    -0.083 Cl
ENDBRANCH   2   3
BRANCH   1  11
ATOM     11  N   LIG    1       28.762 -17.879   4.691  0.00  0.00    -0.155 N 
ATOM     12  H   LIG    1       29.696 -17.868   4.287  0.00  0.00    +0.292 HD
BRANCH  11  15
ATOM     13  N   LIG    1       27.672 -19.872   5.179  0.00  0.00    -0.128 NA
ATOM     14  H   LIG    1       27.724 -20.611   5.884  0.00  0.00    +0.306 HD
ATOM     15  C   LIG    1       28.559 -18.986   5.462  0.00  0.00    +0.400 C 
BRANCH  15  16
ATOM     16  N   LIG    1       29.357 -19.052   6.550  0.00  0.00    -0.288 N 
ATOM     17  H   LIG    1       29.568 -18.107   6.868  0.00  0.00    +0.255 HD
ATOM     18  H   LIG    1       29.039 -19.658   7.293  0.00  0.00    +0.255 HD
ENDBRANCH  15  16
ENDBRANCH  11  15
ENDBRANCH   1  11
TORSDOF 4
ENDMDL
