MODEL 1
REMARK VINA RESULT:      -5.3      0.000      0.000
REMARK  Name = *****
REMARK                            x       y       z     vdW  Elec       q    Type
REMARK                         _______ _______ _______ _____ _____    ______ ____
ROOT
ATOM      1  C   LIG    1       25.290 -30.011   9.998  0.00  0.00    +0.068 C 
ATOM      2  C   LIG    1       24.777 -30.308  11.440  0.00  0.00    +0.097 C 
ATOM      3  C   LIG    1       23.691 -31.362  11.339  0.00  0.00    +0.065 C 
ATOM      4  C   LIG    1       22.792 -31.241  10.340  0.00  0.00    +0.016 C 
ATOM      5  C   LIG    1       21.543 -32.064  10.192  0.00  0.00    +0.061 C 
ATOM      6  N   LIG    1       23.037 -30.291   9.336  0.00  0.00    -0.319 N 
ATOM      7  H   LIG    1       22.410 -30.307   8.529  0.00  0.00    +0.152 HD
ATOM      8  C   LIG    1       24.346 -29.879   9.020  0.00  0.00    +0.045 C 
ENDROOT
BRANCH   2   9
ATOM      9  C   LIG    1       24.357 -29.042  12.270  0.00  0.00    -0.017 A 
ATOM     10  C   LIG    1       25.205 -28.048  12.797  0.00  0.00    +0.045 A 
ATOM     11 CL   LIG    1       26.921 -28.139  12.901  0.00  0.00    -0.083 Cl
ATOM     12  C   LIG    1       24.690 -26.861  13.358  0.00  0.00    +0.020 A 
ATOM     13  C   LIG    1       23.326 -26.631  13.452  0.00  0.00    +0.001 A 
ATOM     14  C   LIG    1       22.464 -27.604  12.995  0.00  0.00    +0.000 A 
ATOM     15  C   LIG    1       22.986 -28.773  12.423  0.00  0.00    +0.006 A 
ENDBRANCH   2   9
BRANCH   1  16
ATOM     16  C   LIG    1       26.796 -30.035   9.904  0.00  0.00    +0.338 C 
ATOM     17  O   LIG    1       27.478 -29.039   9.803  0.00  0.00    -0.245 OA
BRANCH  16  18
ATOM     18  O   LIG    1       27.294 -31.294   9.988  0.00  0.00    -0.462 OA
BRANCH  18  20
ATOM     19  C   LIG    1       26.304 -33.403   9.332  0.00  0.00    +0.048 C 
ATOM     20  C   LIG    1       27.064 -32.175   8.866  0.00  0.00    +0.229 C 
ENDBRANCH  18  20
ENDBRANCH  16  18
ENDBRANCH   1  16
BRANCH   3  21
ATOM     21  C   LIG    1       23.743 -32.500  12.319  0.00  0.00    +0.337 C 
ATOM     22  O   LIG    1       24.074 -33.615  12.089  0.00  0.00    -0.245 OA
BRANCH  21  23
ATOM     23  O   LIG    1       23.342 -32.015  13.539  0.00  0.00    -0.465 OA
ATOM     24  C   LIG    1       21.978 -32.226  13.884  0.00  0.00    +0.280 C 
ENDBRANCH  21  23
ENDBRANCH   3  21
BRANCH   8  25
ATOM     25  C   LIG    1       24.550 -29.450   7.567  0.00  0.00    +0.211 C 
BRANCH  25  26
ATOM     26  O   LIG    1       25.312 -28.220   7.458  0.00  0.00    -0.373 OA
BRANCH  26  27
ATOM     27  C   LIG    1       25.000 -27.524   6.232  0.00  0.00    +0.175 C 
BRANCH  27  28
ATOM     28  C   LIG    1       26.076 -26.473   5.869  0.00  0.00    +0.106 C 
BRANCH  28  29
ATOM     29  N   LIG    1       27.197 -27.083   5.149  0.00  0.00    -0.328 NA
ATOM     30  H   LIG    1       27.643 -26.380   4.564  0.00  0.00    +0.118 HD
ATOM     31  H   LIG    1       26.840 -27.794   4.510  0.00  0.00    +0.118 HD
ENDBRANCH  28  29
ENDBRANCH  27  28
ENDBRANCH  26  27
ENDBRANCH  25  26
ENDBRANCH   8  25
TORSDOF 11
ENDMDL
MODEL 2
REMARK VINA RESULT:      -5.3      7.884     11.325
REMARK  Name = *****
REMARK                            x       y       z     vdW  Elec       q    Type
REMARK                         _______ _______ _______ _____ _____    ______ ____
ROOT
ATOM      1  C   LIG    1       24.428 -20.715   5.769  0.00  0.00    +0.068 C 
ATOM      2  C   LIG    1       25.099 -21.553   6.899  0.00  0.00    +0.097 C 
ATOM      3  C   LIG    1       26.510 -21.031   7.090  0.00  0.00    +0.065 C 
ATOM      4  C   LIG    1       27.225 -20.740   5.983  0.00  0.00    +0.016 C 
ATOM      5  C   LIG    1       28.690 -20.401   5.961  0.00  0.00    +0.061 C 
ATOM      6  N   LIG    1       26.561 -20.726   4.747  0.00  0.00    -0.319 N 
ATOM      7  H   LIG    1       27.094 -20.380   3.945  0.00  0.00    +0.152 HD
ATOM      8  C   LIG    1       25.181 -20.457   4.659  0.00  0.00    +0.045 C 
ENDROOT
BRANCH   2   9
ATOM      9  C   LIG    1       25.019 -23.111   6.707  0.00  0.00    -0.017 A 
ATOM     10  C   LIG    1       23.861 -23.887   6.508  0.00  0.00    +0.045 A 
ATOM     11 CL   LIG    1       22.239 -23.348   6.715  0.00  0.00    -0.083 Cl
ATOM     12  C   LIG    1       23.939 -25.251   6.157  0.00  0.00    +0.020 A 
ATOM     13  C   LIG    1       25.156 -25.903   6.027  0.00  0.00    +0.001 A 
ATOM     14  C   LIG    1       26.310 -25.188   6.266  0.00  0.00    +0.000 A 
ATOM     15  C   LIG    1       26.222 -23.829   6.597  0.00  0.00    +0.006 A 
ENDBRANCH   2   9
BRANCH   1  16
ATOM     16  C   LIG    1       23.057 -20.217   6.155  0.00  0.00    +0.338 C 
ATOM     17  O   LIG    1       22.699 -20.059   7.301  0.00  0.00    -0.245 OA
BRANCH  16  18
ATOM     18  O   LIG    1       22.293 -19.932   5.071  0.00  0.00    -0.462 OA
BRANCH  18  20
ATOM     19  C   LIG    1       21.075 -18.416   3.629  0.00  0.00    +0.048 C 
ATOM     20  C   LIG    1       22.098 -18.538   4.744  0.00  0.00    +0.229 C 
ENDBRANCH  18  20
ENDBRANCH  16  18
ENDBRANCH   1  16
BRANCH   3  21
ATOM     21  C   LIG    1       26.977 -20.812   8.501  0.00  0.00    +0.337 C 
ATOM     22  O   LIG    1       26.576 -19.993   9.258  0.00  0.00    -0.245 OA
BRANCH  21  23
ATOM     23  O   LIG    1       27.954 -21.740   8.763  0.00  0.00    -0.465 OA
ATOM     24  C   LIG    1       29.297 -21.270   8.723  0.00  0.00    +0.280 C 
ENDBRANCH  21  23
ENDBRANCH   3  21
BRANCH   8  25
ATOM     25  C   LIG    1       24.739 -19.793   3.355  0.00  0.00    +0.211 C 
BRANCH  25  26
ATOM     26  O   LIG    1       25.712 -18.830   2.871  0.00  0.00    -0.373 OA
BRANCH  26  27
ATOM     27  C   LIG    1       25.452 -17.516   3.409  0.00  0.00    +0.175 C 
BRANCH  27  28
ATOM     28  C   LIG    1       26.734 -16.652   3.484  0.00  0.00    +0.106 C 
BRANCH  28  29
ATOM     29  N   LIG    1       26.495 -15.298   2.980  0.00  0.00    -0.328 NA
ATOM     30  H   LIG    1       25.493 -15.152   2.870  0.00  0.00    +0.118 HD
ATOM     31  H   LIG    1       26.894 -15.210   2.044  0.00  0.00    +0.118 HD
ENDBRANCH  28  29
ENDBRANCH  27  28
ENDBRANCH  26  27
ENDBRANCH  25  26
ENDBRANCH   8  25
TORSDOF 11
ENDMDL
MODEL 3
REMARK VINA RESULT:      -5.3      1.817      2.497
REMARK  Name = *****
REMARK                            x       y       z     vdW  Elec       q    Type
REMARK                         _______ _______ _______ _____ _____    ______ ____
ROOT
ATOM      1  C   LIG    1       25.606 -29.544  11.261  0.00  0.00    +0.068 C 
ATOM      2  C   LIG    1       24.693 -29.835  12.490  0.00  0.00    +0.097 C 
ATOM      3  C   LIG    1       23.986 -31.154  12.242  0.00  0.00    +0.065 C 
ATOM      4  C   LIG    1       23.501 -31.381  11.003  0.00  0.00    +0.016 C 
ATOM      5  C   LIG    1       22.610 -32.528  10.617  0.00  0.00    +0.061 C 
ATOM      6  N   LIG    1       23.866 -30.498   9.974  0.00  0.00    -0.319 N 
ATOM      7  H   LIG    1       23.590 -30.764   9.026  0.00  0.00    +0.152 HD
ATOM      8  C   LIG    1       25.071 -29.772  10.024  0.00  0.00    +0.045 C 
ENDROOT
BRANCH   2   9
ATOM      9  C   LIG    1       23.728 -28.663  12.893  0.00  0.00    -0.017 A 
ATOM     10  C   LIG    1       24.088 -27.386  13.367  0.00  0.00    +0.045 A 
ATOM     11 CL   LIG    1       25.658 -26.911  13.888  0.00  0.00    -0.083 Cl
ATOM     12  C   LIG    1       23.134 -26.357  13.511  0.00  0.00    +0.020 A 
ATOM     13  C   LIG    1       21.792 -26.562  13.230  0.00  0.00    +0.001 A 
ATOM     14  C   LIG    1       21.394 -27.814  12.814  0.00  0.00    +0.000 A 
ATOM     15  C   LIG    1       22.352 -28.825  12.657  0.00  0.00    +0.006 A 
ENDBRANCH   2   9
BRANCH   1  16
ATOM     16  C   LIG    1       27.008 -29.158  11.661  0.00  0.00    +0.338 C 
ATOM     17  O   LIG    1       27.535 -28.116  11.339  0.00  0.00    -0.245 OA
BRANCH  16  18
ATOM     18  O   LIG    1       27.590 -30.093  12.453  0.00  0.00    -0.462 OA
BRANCH  18  20
ATOM     19  C   LIG    1       27.613 -29.814  14.857  0.00  0.00    +0.048 C 
ATOM     20  C   LIG    1       28.384 -29.622  13.564  0.00  0.00    +0.229 C 
ENDBRANCH  18  20
ENDBRANCH  16  18
ENDBRANCH   1  16
BRANCH   3  21
ATOM     21  C   LIG    1       23.941 -32.135  13.379  0.00  0.00    +0.337 C 
ATOM     22  O   LIG    1       23.152 -32.153  14.264  0.00  0.00    -0.245 OA
BRANCH  21  23
ATOM     23  O   LIG    1       24.978 -33.017  13.207  0.00  0.00    -0.465 OA
ATOM     24  C   LIG    1       25.907 -33.115  14.281  0.00  0.00    +0.280 C 
ENDBRANCH  21  23
ENDBRANCH   3  21
BRANCH   8  25
ATOM     25  C   LIG    1       25.678 -29.442   8.661  0.00  0.00    +0.211 C 
BRANCH  25  26
ATOM     26  O   LIG    1       24.664 -29.245   7.641  0.00  0.00    -0.373 OA
BRANCH  26  27
ATOM     27  C   LIG    1       25.066 -28.225   6.701  0.00  0.00    +0.175 C 
BRANCH  27  28
ATOM     28  C   LIG    1       24.444 -28.446   5.300  0.00  0.00    +0.106 C 
BRANCH  28  29
ATOM     29  N   LIG    1       23.296 -29.353   5.363  0.00  0.00    -0.328 NA
ATOM     30  H   LIG    1       22.569 -28.936   5.941  0.00  0.00    +0.118 HD
ATOM     31  H   LIG    1       23.572 -30.214   5.839  0.00  0.00    +0.118 HD
ENDBRANCH  28  29
ENDBRANCH  27  28
ENDBRANCH  26  27
ENDBRANCH  25  26
ENDBRANCH   8  25
TORSDOF 11
ENDMDL
MODEL 4
REMARK VINA RESULT:      -5.0      1.899      2.454
REMARK  Name = *****
REMARK                            x       y       z     vdW  Elec       q    Type
REMARK                         _______ _______ _______ _____ _____    ______ ____
ROOT
ATOM      1  C   LIG    1       24.082 -30.845  11.320  0.00  0.00    +0.068 C 
ATOM      2  C   LIG    1       23.259 -30.614  12.623  0.00  0.00    +0.097 C 
ATOM      3  C   LIG    1       21.985 -31.431  12.520  0.00  0.00    +0.065 C 
ATOM      4  C   LIG    1       21.340 -31.437  11.335  0.00  0.00    +0.016 C 
ATOM      5  C   LIG    1       19.975 -32.020  11.093  0.00  0.00    +0.061 C 
ATOM      6  N   LIG    1       21.988 -30.879  10.222  0.00  0.00    -0.319 N 
ATOM      7  H   LIG    1       21.532 -31.010   9.315  0.00  0.00    +0.152 HD
ATOM      8  C   LIG    1       23.392 -30.827  10.141  0.00  0.00    +0.045 C 
ENDROOT
BRANCH   2   9
ATOM      9  C   LIG    1       23.018 -29.107  12.998  0.00  0.00    -0.017 A 
ATOM     10  C   LIG    1       23.982 -28.165  13.407  0.00  0.00    +0.045 A 
ATOM     11 CL   LIG    1       25.602 -28.518  13.869  0.00  0.00    -0.083 Cl
ATOM     12  C   LIG    1       23.669 -26.795  13.529  0.00  0.00    +0.020 A 
ATOM     13  C   LIG    1       22.391 -26.314  13.289  0.00  0.00    +0.001 A 
ATOM     14  C   LIG    1       21.408 -27.214  12.937  0.00  0.00    +0.000 A 
ATOM     15  C   LIG    1       21.733 -28.571  12.802  0.00  0.00    +0.006 A 
ENDBRANCH   2   9
BRANCH   1  16
ATOM     16  C   LIG    1       25.527 -31.174  11.600  0.00  0.00    +0.338 C 
ATOM     17  O   LIG    1       25.899 -31.787  12.576  0.00  0.00    -0.245 OA
BRANCH  16  18
ATOM     18  O   LIG    1       26.351 -30.740  10.614  0.00  0.00    -0.462 OA
BRANCH  18  20
ATOM     19  C   LIG    1       26.764 -28.365  10.393  0.00  0.00    +0.048 C 
ATOM     20  C   LIG    1       27.280 -29.682  10.942  0.00  0.00    +0.229 C 
ENDBRANCH  18  20
ENDBRANCH  16  18
ENDBRANCH   1  16
BRANCH   3  21
ATOM     21  C   LIG    1       21.579 -32.226  13.728  0.00  0.00    +0.337 C 
ATOM     22  O   LIG    1       21.659 -33.402  13.858  0.00  0.00    -0.245 OA
BRANCH  21  23
ATOM     23  O   LIG    1       21.100 -31.345  14.664  0.00  0.00    -0.465 OA
ATOM     24  C   LIG    1       19.688 -31.164  14.697  0.00  0.00    +0.280 C 
ENDBRANCH  21  23
ENDBRANCH   3  21
BRANCH   8  25
ATOM     25  C   LIG    1       23.955 -30.881   8.720  0.00  0.00    +0.211 C 
BRANCH  25  26
ATOM     26  O   LIG    1       23.705 -29.655   7.983  0.00  0.00    -0.373 OA
BRANCH  26  27
ATOM     27  C   LIG    1       24.889 -29.227   7.275  0.00  0.00    +0.175 C 
BRANCH  27  28
ATOM     28  C   LIG    1       24.575 -28.807   5.818  0.00  0.00    +0.106 C 
BRANCH  28  29
ATOM     29  N   LIG    1       23.298 -29.364   5.365  0.00  0.00    -0.328 NA
ATOM     30  H   LIG    1       23.410 -29.740   4.426  0.00  0.00    +0.118 HD
ATOM     31  H   LIG    1       22.612 -28.612   5.285  0.00  0.00    +0.118 HD
ENDBRANCH  28  29
ENDBRANCH  27  28
ENDBRANCH  26  27
ENDBRANCH  25  26
ENDBRANCH   8  25
TORSDOF 11
ENDMDL
MODEL 5
REMARK VINA RESULT:      -4.9      2.373      3.888
REMARK  Name = *****
REMARK                            x       y       z     vdW  Elec       q    Type
REMARK                         _______ _______ _______ _____ _____    ______ ____
ROOT
ATOM      1  C   LIG    1       25.361 -29.919  10.643  0.00  0.00    +0.068 C 
ATOM      2  C   LIG    1       25.565 -29.272  12.047  0.00  0.00    +0.097 C 
ATOM      3  C   LIG    1       26.055 -30.354  12.990  0.00  0.00    +0.065 C 
ATOM      4  C   LIG    1       25.468 -31.567  12.912  0.00  0.00    +0.016 C 
ATOM      5  C   LIG    1       25.676 -32.696  13.882  0.00  0.00    +0.061 C 
ATOM      6  N   LIG    1       24.608 -31.820  11.832  0.00  0.00    -0.319 N 
ATOM      7  H   LIG    1       24.277 -32.782  11.727  0.00  0.00    +0.152 HD
ATOM      8  C   LIG    1       24.748 -31.140  10.607  0.00  0.00    +0.045 C 
ENDROOT
BRANCH   2   9
ATOM      9  C   LIG    1       24.332 -28.465  12.591  0.00  0.00    -0.017 A 
ATOM     10  C   LIG    1       24.348 -27.204  13.218  0.00  0.00    +0.045 A 
ATOM     11 CL   LIG    1       25.747 -26.381  13.790  0.00  0.00    -0.083 Cl
ATOM     12  C   LIG    1       23.155 -26.500  13.488  0.00  0.00    +0.020 A 
ATOM     13  C   LIG    1       21.910 -27.031  13.186  0.00  0.00    +0.001 A 
ATOM     14  C   LIG    1       21.854 -28.286  12.620  0.00  0.00    +0.000 A 
ATOM     15  C   LIG    1       23.045 -28.970  12.339  0.00  0.00    +0.006 A 
ENDBRANCH   2   9
BRANCH   1  16
ATOM     16  C   LIG    1       26.000 -29.115   9.538  0.00  0.00    +0.338 C 
ATOM     17  O   LIG    1       27.151 -28.740   9.560  0.00  0.00    -0.245 OA
BRANCH  16  18
ATOM     18  O   LIG    1       25.147 -28.898   8.505  0.00  0.00    -0.462 OA
BRANCH  18  20
ATOM     19  C   LIG    1       24.504 -27.799   6.447  0.00  0.00    +0.048 C 
ATOM     20  C   LIG    1       25.654 -28.163   7.369  0.00  0.00    +0.229 C 
ENDBRANCH  18  20
ENDBRANCH  16  18
ENDBRANCH   1  16
BRANCH   3  21
ATOM     21  C   LIG    1       27.205 -30.010  13.893  0.00  0.00    +0.337 C 
ATOM     22  O   LIG    1       27.138 -29.704  15.037  0.00  0.00    -0.245 OA
BRANCH  21  23
ATOM     23  O   LIG    1       28.358 -30.119  13.157  0.00  0.00    -0.465 OA
ATOM     24  C   LIG    1       29.550 -29.649  13.777  0.00  0.00    +0.280 C 
ENDBRANCH  21  23
ENDBRANCH   3  21
BRANCH   8  25
ATOM     25  C   LIG    1       24.295 -31.930   9.379  0.00  0.00    +0.211 C 
BRANCH  25  26
ATOM     26  O   LIG    1       25.386 -32.183   8.455  0.00  0.00    -0.373 OA
BRANCH  26  27
ATOM     27  C   LIG    1       24.893 -32.704   7.202  0.00  0.00    +0.175 C 
BRANCH  27  28
ATOM     28  C   LIG    1       24.839 -31.618   6.101  0.00  0.00    +0.106 C 
BRANCH  28  29
ATOM     29  N   LIG    1       23.461 -31.208   5.822  0.00  0.00    -0.328 NA
ATOM     30  H   LIG    1       22.844 -31.600   6.531  0.00  0.00    +0.118 HD
ATOM     31  H   LIG    1       23.161 -31.615   4.935  0.00  0.00    +0.118 HD
ENDBRANCH  28  29
ENDBRANCH  27  28
ENDBRANCH  26  27
ENDBRANCH  25  26
ENDBRANCH   8  25
TORSDOF 11
ENDMDL
MODEL 6
REMARK VINA RESULT:      -4.9      2.968      4.708
REMARK  Name = *****
REMARK                            x       y       z     vdW  Elec       q    Type
REMARK                         _______ _______ _______ _____ _____    ______ ____
ROOT
ATOM      1  C   LIG    1       23.564 -30.691  10.937  0.00  0.00    +0.068 C 
ATOM      2  C   LIG    1       24.228 -29.847  12.067  0.00  0.00    +0.097 C 
ATOM      3  C   LIG    1       24.725 -30.805  13.132  0.00  0.00    +0.065 C 
ATOM      4  C   LIG    1       23.919 -31.832  13.475  0.00  0.00    +0.016 C 
ATOM      5  C   LIG    1       24.146 -32.764  14.633  0.00  0.00    +0.061 C 
ATOM      6  N   LIG    1       22.786 -32.081  12.685  0.00  0.00    -0.319 N 
ATOM      7  H   LIG    1       22.265 -32.937  12.890  0.00  0.00    +0.152 HD
ATOM      8  C   LIG    1       22.743 -31.711  11.327  0.00  0.00    +0.045 C 
ENDROOT
BRANCH   2   9
ATOM      9  C   LIG    1       23.344 -28.676  12.628  0.00  0.00    -0.017 A 
ATOM     10  C   LIG    1       23.786 -27.428  13.108  0.00  0.00    +0.045 A 
ATOM     11 CL   LIG    1       25.417 -27.003  13.456  0.00  0.00    -0.083 Cl
ATOM     12  C   LIG    1       22.879 -26.389  13.405  0.00  0.00    +0.020 A 
ATOM     13  C   LIG    1       21.509 -26.558  13.277  0.00  0.00    +0.001 A 
ATOM     14  C   LIG    1       21.036 -27.784  12.861  0.00  0.00    +0.000 A 
ATOM     15  C   LIG    1       21.946 -28.804  12.551  0.00  0.00    +0.006 A 
ENDBRANCH   2   9
BRANCH   1  16
ATOM     16  C   LIG    1       24.047 -30.299   9.563  0.00  0.00    +0.338 C 
ATOM     17  O   LIG    1       23.308 -29.990   8.655  0.00  0.00    -0.245 OA
BRANCH  16  18
ATOM     18  O   LIG    1       25.401 -30.295   9.478  0.00  0.00    -0.462 OA
BRANCH  18  20
ATOM     19  C   LIG    1       26.729 -28.345  10.015  0.00  0.00    +0.048 C 
ATOM     20  C   LIG    1       26.028 -29.121   8.916  0.00  0.00    +0.229 C 
ENDBRANCH  18  20
ENDBRANCH  16  18
ENDBRANCH   1  16
BRANCH   3  21
ATOM     21  C   LIG    1       26.107 -30.575  13.674  0.00  0.00    +0.337 C 
ATOM     22  O   LIG    1       27.128 -30.883  13.155  0.00  0.00    -0.245 OA
BRANCH  21  23
ATOM     23  O   LIG    1       25.979 -29.936  14.881  0.00  0.00    -0.465 OA
ATOM     24  C   LIG    1       27.184 -29.476  15.483  0.00  0.00    +0.280 C 
ENDBRANCH  21  23
ENDBRANCH   3  21
BRANCH   8  25
ATOM     25  C   LIG    1       21.859 -32.596  10.449  0.00  0.00    +0.211 C 
BRANCH  25  26
ATOM     26  O   LIG    1       20.759 -31.858   9.855  0.00  0.00    -0.373 OA
BRANCH  26  27
ATOM     27  C   LIG    1       19.614 -31.838  10.734  0.00  0.00    +0.175 C 
BRANCH  27  28
ATOM     28  C   LIG    1       18.340 -31.325  10.020  0.00  0.00    +0.106 C 
BRANCH  28  29
ATOM     29  N   LIG    1       17.300 -30.955  10.983  0.00  0.00    -0.328 NA
ATOM     30  H   LIG    1       17.087 -29.964  10.884  0.00  0.00    +0.118 HD
ATOM     31  H   LIG    1       17.663 -31.068  11.931  0.00  0.00    +0.118 HD
ENDBRANCH  28  29
ENDBRANCH  27  28
ENDBRANCH  26  27
ENDBRANCH  25  26
ENDBRANCH   8  25
TORSDOF 11
ENDMDL
MODEL 7
REMARK VINA RESULT:      -4.8      2.897      5.465
REMARK  Name = *****
REMARK                            x       y       z     vdW  Elec       q    Type
REMARK                         _______ _______ _______ _____ _____    ______ ____
ROOT
ATOM      1  C   LIG    1       25.472 -31.460   9.053  0.00  0.00    +0.068 C 
ATOM      2  C   LIG    1       26.062 -30.019   9.132  0.00  0.00    +0.097 C 
ATOM      3  C   LIG    1       25.732 -29.457  10.501  0.00  0.00    +0.065 C 
ATOM      4  C   LIG    1       24.494 -29.682  10.989  0.00  0.00    +0.016 C 
ATOM      5  C   LIG    1       23.920 -29.048  12.226  0.00  0.00    +0.061 C 
ATOM      6  N   LIG    1       23.669 -30.595  10.314  0.00  0.00    -0.319 N 
ATOM      7  H   LIG    1       22.788 -30.841  10.773  0.00  0.00    +0.152 HD
ATOM      8  C   LIG    1       24.210 -31.641   9.543  0.00  0.00    +0.045 C 
ENDROOT
BRANCH   2   9
ATOM      9  C   LIG    1       25.661 -29.072   7.944  0.00  0.00    -0.017 A 
ATOM     10  C   LIG    1       24.699 -29.317   6.945  0.00  0.00    +0.045 A 
ATOM     11 CL   LIG    1       23.940 -30.829   6.626  0.00  0.00    -0.083 Cl
ATOM     12  C   LIG    1       24.296 -28.307   6.046  0.00  0.00    +0.020 A 
ATOM     13  C   LIG    1       24.854 -27.038   6.076  0.00  0.00    +0.001 A 
ATOM     14  C   LIG    1       25.837 -26.777   7.006  0.00  0.00    +0.000 A 
ATOM     15  C   LIG    1       26.218 -27.782   7.906  0.00  0.00    +0.006 A 
ENDBRANCH   2   9
BRANCH   1  16
ATOM     16  C   LIG    1       26.472 -32.465   8.537  0.00  0.00    +0.338 C 
ATOM     17  O   LIG    1       27.414 -32.867   9.184  0.00  0.00    -0.245 OA
BRANCH  16  18
ATOM     18  O   LIG    1       26.169 -32.893   7.286  0.00  0.00    -0.462 OA
BRANCH  18  20
ATOM     19  C   LIG    1       26.479 -32.726   4.891  0.00  0.00    +0.048 C 
ATOM     20  C   LIG    1       27.152 -32.668   6.251  0.00  0.00    +0.229 C 
ENDBRANCH  18  20
ENDBRANCH  16  18
ENDBRANCH   1  16
BRANCH   3  21
ATOM     21  C   LIG    1       26.834 -28.751  11.239  0.00  0.00    +0.337 C 
ATOM     22  O   LIG    1       26.991 -27.579  11.320  0.00  0.00    -0.245 OA
BRANCH  21  23
ATOM     23  O   LIG    1       27.631 -29.711  11.812  0.00  0.00    -0.465 OA
ATOM     24  C   LIG    1       27.771 -29.652  13.227  0.00  0.00    +0.280 C 
ENDBRANCH  21  23
ENDBRANCH   3  21
BRANCH   8  25
ATOM     25  C   LIG    1       23.341 -32.896   9.464  0.00  0.00    +0.211 C 
BRANCH  25  26
ATOM     26  O   LIG    1       21.988 -32.602   9.026  0.00  0.00    -0.373 OA
BRANCH  26  27
ATOM     27  C   LIG    1       21.016 -33.198   9.912  0.00  0.00    +0.175 C 
BRANCH  27  28
ATOM     28  C   LIG    1       20.153 -32.134  10.632  0.00  0.00    +0.106 C 
BRANCH  28  29
ATOM     29  N   LIG    1       20.569 -30.777  10.271  0.00  0.00    -0.328 NA
ATOM     30  H   LIG    1       20.186 -30.117  10.945  0.00  0.00    +0.118 HD
ATOM     31  H   LIG    1       20.158 -30.526   9.370  0.00  0.00    +0.118 HD
ENDBRANCH  28  29
ENDBRANCH  27  28
ENDBRANCH  26  27
ENDBRANCH  25  26
ENDBRANCH   8  25
TORSDOF 11
ENDMDL
MODEL 8
REMARK VINA RESULT:      -4.8      1.503      2.076
REMARK  Name = *****
REMARK                            x       y       z     vdW  Elec       q    Type
REMARK                         _______ _______ _______ _____ _____    ______ ____
ROOT
ATOM      1  C   LIG    1       25.117 -30.109  10.086  0.00  0.00    +0.068 C 
ATOM      2  C   LIG    1       24.638 -30.328  11.553  0.00  0.00    +0.097 C 
ATOM      3  C   LIG    1       23.506 -31.337  11.527  0.00  0.00    +0.065 C 
ATOM      4  C   LIG    1       22.581 -31.216  10.551  0.00  0.00    +0.016 C 
ATOM      5  C   LIG    1       21.295 -31.990  10.474  0.00  0.00    +0.061 C 
ATOM      6  N   LIG    1       22.834 -30.317   9.503  0.00  0.00    -0.319 N 
ATOM      7  H   LIG    1       22.181 -30.337   8.716  0.00  0.00    +0.152 HD
ATOM      8  C   LIG    1       24.148 -29.975   9.132  0.00  0.00    +0.045 C 
ENDROOT
BRANCH   2   9
ATOM      9  C   LIG    1       24.297 -29.014  12.344  0.00  0.00    -0.017 A 
ATOM     10  C   LIG    1       25.200 -28.026  12.785  0.00  0.00    +0.045 A 
ATOM     11 CL   LIG    1       26.915 -28.169  12.813  0.00  0.00    -0.083 Cl
ATOM     12  C   LIG    1       24.749 -26.800  13.316  0.00  0.00    +0.020 A 
ATOM     13  C   LIG    1       23.399 -26.521  13.464  0.00  0.00    +0.001 A 
ATOM     14  C   LIG    1       22.487 -27.484  13.091  0.00  0.00    +0.000 A 
ATOM     15  C   LIG    1       22.945 -28.693  12.549  0.00  0.00    +0.006 A 
ENDBRANCH   2   9
BRANCH   1  16
ATOM     16  C   LIG    1       26.616 -30.201   9.948  0.00  0.00    +0.338 C 
ATOM     17  O   LIG    1       27.325 -29.255   9.687  0.00  0.00    -0.245 OA
BRANCH  16  18
ATOM     18  O   LIG    1       27.076 -31.454  10.189  0.00  0.00    -0.462 OA
BRANCH  18  20
ATOM     19  C   LIG    1       27.345 -32.657   8.106  0.00  0.00    +0.048 C 
ATOM     20  C   LIG    1       26.537 -32.526   9.384  0.00  0.00    +0.229 C 
ENDBRANCH  18  20
ENDBRANCH  16  18
ENDBRANCH   1  16
BRANCH   3  21
ATOM     21  C   LIG    1       23.541 -32.437  12.549  0.00  0.00    +0.337 C 
ATOM     22  O   LIG    1       22.894 -32.500  13.541  0.00  0.00    -0.245 OA
BRANCH  21  23
ATOM     23  O   LIG    1       24.458 -33.367  12.127  0.00  0.00    -0.465 OA
ATOM     24  C   LIG    1       25.387 -33.825  13.103  0.00  0.00    +0.280 C 
ENDBRANCH  21  23
ENDBRANCH   3  21
BRANCH   8  25
ATOM     25  C   LIG    1       24.324 -29.611   7.657  0.00  0.00    +0.211 C 
BRANCH  25  26
ATOM     26  O   LIG    1       23.555 -30.478   6.782  0.00  0.00    -0.373 OA
BRANCH  26  27
ATOM     27  C   LIG    1       24.051 -31.834   6.832  0.00  0.00    +0.175 C 
BRANCH  27  28
ATOM     28  C   LIG    1       24.314 -32.410   5.420  0.00  0.00    +0.106 C 
BRANCH  28  29
ATOM     29  N   LIG    1       25.239 -31.563   4.662  0.00  0.00    -0.328 NA
ATOM     30  H   LIG    1       25.248 -30.629   5.067  0.00  0.00    +0.118 HD
ATOM     31  H   LIG    1       24.889 -31.451   3.709  0.00  0.00    +0.118 HD
ENDBRANCH  28  29
ENDBRANCH  27  28
ENDBRANCH  26  27
ENDBRANCH  25  26
ENDBRANCH   8  25
TORSDOF 11
ENDMDL
MODEL 9
REMARK VINA RESULT:      -4.7      3.310      6.013
REMARK  Name = *****
REMARK                            x       y       z     vdW  Elec       q    Type
REMARK                         _______ _______ _______ _____ _____    ______ ____
ROOT
ATOM      1  C   LIG    1       25.710 -30.101   8.802  0.00  0.00    +0.068 C 
ATOM      2  C   LIG    1       24.837 -31.230   8.172  0.00  0.00    +0.097 C 
ATOM      3  C   LIG    1       24.156 -31.976   9.303  0.00  0.00    +0.065 C 
ATOM      4  C   LIG    1       24.889 -32.256  10.400  0.00  0.00    +0.016 C 
ATOM      5  C   LIG    1       24.454 -33.147  11.530  0.00  0.00    +0.061 C 
ATOM      6  N   LIG    1       26.153 -31.659  10.525  0.00  0.00    -0.319 N 
ATOM      7  H   LIG    1       26.632 -31.786  11.420  0.00  0.00    +0.152 HD
ATOM      8  C   LIG    1       26.450 -30.432   9.902  0.00  0.00    +0.045 C 
ENDROOT
BRANCH   2   9
ATOM      9  C   LIG    1       25.591 -32.164   7.158  0.00  0.00    -0.017 A 
ATOM     10  C   LIG    1       25.065 -32.765   5.998  0.00  0.00    +0.045 A 
ATOM     11 CL   LIG    1       23.399 -32.848   5.574  0.00  0.00    -0.083 Cl
ATOM     12  C   LIG    1       25.895 -33.425   5.069  0.00  0.00    +0.020 A 
ATOM     13  C   LIG    1       27.261 -33.549   5.269  0.00  0.00    +0.001 A 
ATOM     14  C   LIG    1       27.804 -33.019   6.420  0.00  0.00    +0.000 A 
ATOM     15  C   LIG    1       26.974 -32.350   7.329  0.00  0.00    +0.006 A 
ENDBRANCH   2   9
BRANCH   1  16
ATOM     16  C   LIG    1       25.492 -28.765   8.138  0.00  0.00    +0.338 C 
ATOM     17  O   LIG    1       26.250 -27.827   8.253  0.00  0.00    -0.245 OA
BRANCH  16  18
ATOM     18  O   LIG    1       24.375 -28.751   7.368  0.00  0.00    -0.462 OA
BRANCH  18  20
ATOM     19  C   LIG    1       25.157 -29.091   5.103  0.00  0.00    +0.048 C 
ATOM     20  C   LIG    1       24.473 -28.136   6.065  0.00  0.00    +0.229 C 
ENDBRANCH  18  20
ENDBRANCH  16  18
ENDBRANCH   1  16
BRANCH   3  21
ATOM     21  C   LIG    1       22.694 -32.284   9.140  0.00  0.00    +0.337 C 
ATOM     22  O   LIG    1       22.228 -33.293   8.726  0.00  0.00    -0.245 OA
BRANCH  21  23
ATOM     23  O   LIG    1       21.988 -31.187   9.565  0.00  0.00    -0.465 OA
ATOM     24  C   LIG    1       20.949 -31.431  10.506  0.00  0.00    +0.280 C 
ENDBRANCH  21  23
ENDBRANCH   3  21
BRANCH   8  25
ATOM     25  C   LIG    1       27.490 -29.578  10.627  0.00  0.00    +0.211 C 
BRANCH  25  26
ATOM     26  O   LIG    1       27.746 -30.052  11.975  0.00  0.00    -0.373 OA
BRANCH  26  27
ATOM     27  C   LIG    1       27.666 -28.969  12.928  0.00  0.00    +0.175 C 
BRANCH  27  28
ATOM     28  C   LIG    1       26.807 -27.793  12.403  0.00  0.00    +0.106 C 
BRANCH  28  29
ATOM     29  N   LIG    1       27.356 -26.502  12.825  0.00  0.00    -0.328 NA
ATOM     30  H   LIG    1       27.408 -25.880  12.021  0.00  0.00    +0.118 HD
ATOM     31  H   LIG    1       28.318 -26.632  13.142  0.00  0.00    +0.118 HD
ENDBRANCH  28  29
ENDBRANCH  27  28
ENDBRANCH  26  27
ENDBRANCH  25  26
ENDBRANCH   8  25
TORSDOF 11
ENDMDL
