MODEL 1
REMARK VINA RESULT:      -4.5      0.000      0.000
REMARK  Name = *****
REMARK                            x       y       z     vdW  Elec       q    Type
REMARK                         _______ _______ _______ _____ _____    ______ ____
ROOT
ATOM      1  C   LIG    1       27.950 -17.574   4.453  0.00  0.00    +0.113 C 
ENDROOT
BRANCH   1   2
ATOM      2  C   LIG    1       27.883 -16.042   4.440  0.00  0.00    +0.233 C 
BRANCH   2   3
ATOM      3  N   LIG    1       27.208 -15.502   3.254  0.00  0.00    -0.233 N 
ATOM      4  H   LIG    1       26.657 -16.179   2.730  0.00  0.00    +0.291 HD
BRANCH   3   5
ATOM      5  C   LIG    1       26.642 -14.232   3.214  0.00  0.00    +0.326 C 
ATOM      6  C   LIG    1       25.309 -14.144   3.335  0.00  0.00    +0.474 C 
BRANCH   5   8
ATOM      7  C   LIG    1       28.794 -12.949   3.694  0.00  0.00    +0.273 C 
ATOM      8  N   LIG    1       27.480 -13.132   3.123  0.00  0.00    -0.236 N 
ATOM      9  H   LIG    1       27.371 -12.629   2.235  0.00  0.00    +0.291 HD
ENDBRANCH   5   8
BRANCH   6  10
ATOM     10  N   LIG    1       24.579 -12.900   3.399  0.00  0.00    +0.080 N 
ATOM     11  O   LIG    1       23.996 -12.670   4.449  0.00  0.00    -0.576 OA
ATOM     12  O   LIG    1       24.572 -12.138   2.401  0.00  0.00    +0.041 OA
ENDBRANCH   6  10
ENDBRANCH   3   5
ENDBRANCH   2   3
ENDBRANCH   1   2
BRANCH   1  13
ATOM     13  S   LIG    1       29.249 -18.243   5.556  0.00  0.00    -0.149 S 
BRANCH  13  14
ATOM     14  C   LIG    1       28.726 -19.991   5.670  0.00  0.00    +0.143 C 
BRANCH  14  15
ATOM     15  C   LIG    1       27.280 -20.188   5.947  0.00  0.00    +0.115 A 
ATOM     16  O   LIG    1       26.433 -20.060   4.879  0.00  0.00    -0.462 OA
ATOM     17  C   LIG    1       25.186 -20.430   5.303  0.00  0.00    +0.119 A 
ATOM     18  C   LIG    1       25.238 -20.804   6.630  0.00  0.00    +0.046 A 
ATOM     19  C   LIG    1       26.564 -20.574   7.061  0.00  0.00    +0.046 A 
BRANCH  17  20
ATOM     20  C   LIG    1       24.061 -20.299   4.321  0.00  0.00    +0.158 C 
BRANCH  20  21
ATOM     21  N   LIG    1       22.807 -19.887   4.990  0.00  0.00    -0.301 NA
ATOM     22  C   LIG    1       21.760 -20.897   4.824  0.00  0.00    +0.105 C 
ATOM     23  C   LIG    1       22.338 -18.604   4.456  0.00  0.00    +0.105 C 
ENDBRANCH  20  21
ENDBRANCH  17  20
ENDBRANCH  14  15
ENDBRANCH  13  14
ENDBRANCH   1  13
TORSDOF 10
ENDMDL
MODEL 2
REMARK VINA RESULT:      -4.1      2.249      6.664
REMARK  Name = *****
REMARK                            x       y       z     vdW  Elec       q    Type
REMARK                         _______ _______ _______ _____ _____    ______ ____
ROOT
ATOM      1  C   LIG    1       28.658 -18.960   6.194  0.00  0.00    +0.113 C 
ENDROOT
BRANCH   1   2
ATOM      2  C   LIG    1       28.075 -20.258   5.620  0.00  0.00    +0.233 C 
BRANCH   2   3
ATOM      3  N   LIG    1       26.875 -20.717   6.329  0.00  0.00    -0.233 N 
ATOM      4  H   LIG    1       26.848 -20.486   7.319  0.00  0.00    +0.291 HD
BRANCH   3   5
ATOM      5  C   LIG    1       25.605 -20.704   5.760  0.00  0.00    +0.326 C 
ATOM      6  C   LIG    1       25.471 -20.120   4.560  0.00  0.00    +0.474 C 
BRANCH   5   8
ATOM      7  C   LIG    1       23.387 -20.779   7.016  0.00  0.00    +0.273 C 
ATOM      8  N   LIG    1       24.573 -21.348   6.421  0.00  0.00    -0.236 N 
ATOM      9  H   LIG    1       24.408 -22.295   6.062  0.00  0.00    +0.291 HD
ENDBRANCH   5   8
BRANCH   6  10
ATOM     10  N   LIG    1       24.244 -20.099   3.799  0.00  0.00    +0.080 N 
ATOM     11  O   LIG    1       23.841 -21.180   3.394  0.00  0.00    -0.576 OA
ATOM     12  O   LIG    1       23.668 -19.002   3.590  0.00  0.00    +0.041 OA
ENDBRANCH   6  10
ENDBRANCH   3   5
ENDBRANCH   2   3
ENDBRANCH   1   2
BRANCH   1  13
ATOM     13  S   LIG    1       29.162 -17.752   4.915  0.00  0.00    -0.149 S 
BRANCH  13  14
ATOM     14  C   LIG    1       27.537 -17.316   4.202  0.00  0.00    +0.143 C 
BRANCH  14  15
ATOM     15  C   LIG    1       27.357 -15.871   3.908  0.00  0.00    +0.115 A 
ATOM     16  O   LIG    1       26.330 -15.545   3.063  0.00  0.00    -0.462 OA
ATOM     17  C   LIG    1       26.234 -14.181   3.047  0.00  0.00    +0.119 A 
ATOM     18  C   LIG    1       27.186 -13.638   3.886  0.00  0.00    +0.046 A 
ATOM     19  C   LIG    1       27.954 -14.719   4.375  0.00  0.00    +0.046 A 
BRANCH  17  20
ATOM     20  C   LIG    1       25.221 -13.575   2.125  0.00  0.00    +0.158 C 
BRANCH  20  21
ATOM     21  N   LIG    1       23.958 -13.272   2.835  0.00  0.00    -0.301 NA
ATOM     22  C   LIG    1       23.912 -11.873   3.264  0.00  0.00    +0.105 C 
ATOM     23  C   LIG    1       23.803 -14.146   4.002  0.00  0.00    +0.105 C 
ENDBRANCH  20  21
ENDBRANCH  17  20
ENDBRANCH  14  15
ENDBRANCH  13  14
ENDBRANCH   1  13
TORSDOF 10
ENDMDL
MODEL 3
REMARK VINA RESULT:      -4.0      2.650      4.294
REMARK  Name = *****
REMARK                            x       y       z     vdW  Elec       q    Type
REMARK                         _______ _______ _______ _____ _____    ______ ____
ROOT
ATOM      1  C   LIG    1       23.416 -16.759   4.100  0.00  0.00    +0.113 C 
ENDROOT
BRANCH   1   2
ATOM      2  C   LIG    1       22.704 -15.578   4.772  0.00  0.00    +0.233 C 
BRANCH   2   3
ATOM      3  N   LIG    1       23.548 -14.383   4.883  0.00  0.00    -0.233 N 
ATOM      4  H   LIG    1       23.903 -14.195   5.818  0.00  0.00    +0.291 HD
BRANCH   3   5
ATOM      5  C   LIG    1       24.452 -13.997   3.898  0.00  0.00    +0.326 C 
ATOM      6  C   LIG    1       25.709 -14.453   3.999  0.00  0.00    +0.474 C 
BRANCH   5   8
ATOM      7  C   LIG    1       23.923 -11.790   2.734  0.00  0.00    +0.273 C 
ATOM      8  N   LIG    1       23.996 -13.228   2.840  0.00  0.00    -0.236 N 
ATOM      9  H   LIG    1       24.164 -13.674   1.931  0.00  0.00    +0.291 HD
ENDBRANCH   5   8
BRANCH   6  10
ATOM     10  N   LIG    1       26.742 -14.216   3.018  0.00  0.00    +0.080 N 
ATOM     11  O   LIG    1       26.452 -14.469   1.858  0.00  0.00    -0.576 OA
ATOM     12  O   LIG    1       27.858 -13.780   3.393  0.00  0.00    +0.041 OA
ENDBRANCH   6  10
ENDBRANCH   3   5
ENDBRANCH   2   3
ENDBRANCH   1   2
BRANCH   1  13
ATOM     13  S   LIG    1       22.466 -18.323   4.165  0.00  0.00    -0.149 S 
BRANCH  13  14
ATOM     14  C   LIG    1       23.796 -19.539   3.860  0.00  0.00    +0.143 C 
BRANCH  14  15
ATOM     15  C   LIG    1       24.231 -20.296   5.062  0.00  0.00    +0.115 A 
ATOM     16  O   LIG    1       25.569 -20.262   5.351  0.00  0.00    -0.462 OA
ATOM     17  C   LIG    1       25.738 -20.876   6.562  0.00  0.00    +0.119 A 
ATOM     18  C   LIG    1       24.514 -21.289   7.050  0.00  0.00    +0.046 A 
ATOM     19  C   LIG    1       23.561 -20.986   6.051  0.00  0.00    +0.046 A 
BRANCH  17  20
ATOM     20  C   LIG    1       27.142 -21.033   7.062  0.00  0.00    +0.158 C 
BRANCH  20  21
ATOM     21  N   LIG    1       28.127 -20.577   6.055  0.00  0.00    -0.301 NA
ATOM     22  C   LIG    1       29.445 -20.369   6.658  0.00  0.00    +0.105 C 
ATOM     23  C   LIG    1       27.676 -19.332   5.423  0.00  0.00    +0.105 C 
ENDBRANCH  20  21
ENDBRANCH  17  20
ENDBRANCH  14  15
ENDBRANCH  13  14
ENDBRANCH   1  13
TORSDOF 10
ENDMDL
MODEL 4
REMARK VINA RESULT:      -3.8      2.848      4.324
REMARK  Name = *****
REMARK                            x       y       z     vdW  Elec       q    Type
REMARK                         _______ _______ _______ _____ _____    ______ ____
ROOT
ATOM      1  C   LIG    1       23.522 -16.225   4.133  0.00  0.00    +0.113 C 
ENDROOT
BRANCH   1   2
ATOM      2  C   LIG    1       23.508 -14.693   4.067  0.00  0.00    +0.233 C 
BRANCH   2   3
ATOM      3  N   LIG    1       24.619 -14.073   4.799  0.00  0.00    -0.233 N 
ATOM      4  H   LIG    1       24.841 -14.509   5.691  0.00  0.00    +0.291 HD
BRANCH   3   5
ATOM      5  C   LIG    1       25.755 -13.569   4.172  0.00  0.00    +0.326 C 
ATOM      6  C   LIG    1       26.876 -13.481   4.902  0.00  0.00    +0.474 C 
BRANCH   5   8
ATOM      7  C   LIG    1       24.857 -12.275   2.166  0.00  0.00    +0.273 C 
ATOM      8  N   LIG    1       25.687 -13.256   2.824  0.00  0.00    -0.236 N 
ATOM      9  H   LIG    1       26.587 -13.384   2.347  0.00  0.00    +0.291 HD
ENDBRANCH   5   8
BRANCH   6  10
ATOM     10  N   LIG    1       28.156 -13.063   4.379  0.00  0.00    +0.080 N 
ATOM     11  O   LIG    1       28.740 -12.197   5.013  0.00  0.00    -0.576 OA
ATOM     12  O   LIG    1       28.591 -13.589   3.325  0.00  0.00    +0.041 OA
ENDBRANCH   6  10
ENDBRANCH   3   5
ENDBRANCH   2   3
ENDBRANCH   1   2
BRANCH   1  13
ATOM     13  S   LIG    1       21.995 -16.944   4.843  0.00  0.00    -0.149 S 
BRANCH  13  14
ATOM     14  C   LIG    1       21.909 -18.524   3.927  0.00  0.00    +0.143 C 
BRANCH  14  15
ATOM     15  C   LIG    1       22.420 -19.701   4.675  0.00  0.00    +0.115 A 
ATOM     16  O   LIG    1       23.521 -19.491   5.462  0.00  0.00    -0.462 OA
ATOM     17  C   LIG    1       23.735 -20.638   6.177  0.00  0.00    +0.119 A 
ATOM     18  C   LIG    1       22.769 -21.571   5.859  0.00  0.00    +0.046 A 
ATOM     19  C   LIG    1       21.975 -20.996   4.840  0.00  0.00    +0.046 A 
BRANCH  17  20
ATOM     20  C   LIG    1       24.943 -20.679   7.062  0.00  0.00    +0.158 C 
BRANCH  20  21
ATOM     21  N   LIG    1       26.168 -20.985   6.289  0.00  0.00    -0.301 NA
ATOM     22  C   LIG    1       27.365 -20.494   6.974  0.00  0.00    +0.105 C 
ATOM     23  C   LIG    1       26.092 -20.388   4.951  0.00  0.00    +0.105 C 
ENDBRANCH  20  21
ENDBRANCH  17  20
ENDBRANCH  14  15
ENDBRANCH  13  14
ENDBRANCH   1  13
TORSDOF 10
ENDMDL
MODEL 5
REMARK VINA RESULT:      -3.5      2.537      7.796
REMARK  Name = *****
REMARK                            x       y       z     vdW  Elec       q    Type
REMARK                         _______ _______ _______ _____ _____    ______ ____
ROOT
ATOM      1  C   LIG    1       24.360 -17.679   3.793  0.00  0.00    +0.113 C 
ENDROOT
BRANCH   1   2
ATOM      2  C   LIG    1       24.359 -19.161   3.396  0.00  0.00    +0.233 C 
BRANCH   2   3
ATOM      3  N   LIG    1       24.056 -20.059   4.516  0.00  0.00    -0.233 N 
ATOM      4  H   LIG    1       23.337 -20.754   4.326  0.00  0.00    +0.291 HD
BRANCH   3   5
ATOM      5  C   LIG    1       25.029 -20.545   5.384  0.00  0.00    +0.326 C 
ATOM      6  C   LIG    1       26.287 -20.113   5.209  0.00  0.00    +0.474 C 
BRANCH   5   8
ATOM      7  C   LIG    1       23.353 -21.485   7.062  0.00  0.00    +0.273 C 
ATOM      8  N   LIG    1       24.641 -21.384   6.416  0.00  0.00    -0.236 N 
ATOM      9  H   LIG    1       25.134 -22.284   6.395  0.00  0.00    +0.291 HD
ENDBRANCH   5   8
BRANCH   6  10
ATOM     10  N   LIG    1       27.391 -20.453   6.074  0.00  0.00    +0.080 N 
ATOM     11  O   LIG    1       27.208 -21.387   6.841  0.00  0.00    -0.576 OA
ATOM     12  O   LIG    1       28.455 -19.789   6.003  0.00  0.00    +0.041 OA
ENDBRANCH   6  10
ENDBRANCH   3   5
ENDBRANCH   2   3
ENDBRANCH   1   2
BRANCH   1  13
ATOM     13  S   LIG    1       22.685 -16.989   4.061  0.00  0.00    -0.149 S 
BRANCH  13  14
ATOM     14  C   LIG    1       23.099 -15.407   4.879  0.00  0.00    +0.143 C 
BRANCH  14  15
ATOM     15  C   LIG    1       23.876 -14.461   4.038  0.00  0.00    +0.115 A 
ATOM     16  O   LIG    1       25.217 -14.712   3.920  0.00  0.00    -0.462 OA
ATOM     17  C   LIG    1       25.714 -13.837   2.993  0.00  0.00    +0.119 A 
ATOM     18  C   LIG    1       24.695 -13.040   2.512  0.00  0.00    +0.046 A 
ATOM     19  C   LIG    1       23.535 -13.389   3.240  0.00  0.00    +0.046 A 
BRANCH  17  20
ATOM     20  C   LIG    1       27.192 -13.866   2.746  0.00  0.00    +0.158 C 
BRANCH  20  21
ATOM     21  N   LIG    1       27.953 -13.760   4.011  0.00  0.00    -0.301 NA
ATOM     22  C   LIG    1       27.162 -13.103   5.053  0.00  0.00    +0.105 C 
ATOM     23  C   LIG    1       29.198 -13.014   3.800  0.00  0.00    +0.105 C 
ENDBRANCH  20  21
ENDBRANCH  17  20
ENDBRANCH  14  15
ENDBRANCH  13  14
ENDBRANCH   1  13
TORSDOF 10
ENDMDL
MODEL 6
REMARK VINA RESULT:      -3.0      2.519      4.321
REMARK  Name = *****
REMARK                            x       y       z     vdW  Elec       q    Type
REMARK                         _______ _______ _______ _____ _____    ______ ____
ROOT
ATOM      1  C   LIG    1       23.886 -13.404   4.179  0.00  0.00    +0.113 C 
ENDROOT
BRANCH   1   2
ATOM      2  C   LIG    1       24.330 -12.658   2.915  0.00  0.00    +0.233 C 
BRANCH   2   3
ATOM      3  N   LIG    1       25.420 -13.330   2.199  0.00  0.00    -0.233 N 
ATOM      4  H   LIG    1       25.496 -13.092   1.213  0.00  0.00    +0.291 HD
BRANCH   3   5
ATOM      5  C   LIG    1       26.666 -13.576   2.770  0.00  0.00    +0.326 C 
ATOM      6  C   LIG    1       27.294 -12.545   3.353  0.00  0.00    +0.474 C 
BRANCH   5   8
ATOM      7  C   LIG    1       27.313 -15.779   3.880  0.00  0.00    +0.273 C 
ATOM      8  N   LIG    1       27.154 -14.873   2.768  0.00  0.00    -0.236 N 
ATOM      9  H   LIG    1       26.948 -15.367   1.893  0.00  0.00    +0.291 HD
ENDBRANCH   5   8
BRANCH   6  10
ATOM     10  N   LIG    1       28.547 -12.652   4.062  0.00  0.00    +0.080 N 
ATOM     11  O   LIG    1       29.467 -13.180   3.456  0.00  0.00    -0.576 OA
ATOM     12  O   LIG    1       28.628 -12.215   5.237  0.00  0.00    +0.041 OA
ENDBRANCH   6  10
ENDBRANCH   3   5
ENDBRANCH   2   3
ENDBRANCH   1   2
BRANCH   1  13
ATOM     13  S   LIG    1       24.307 -15.186   4.166  0.00  0.00    -0.149 S 
BRANCH  13  14
ATOM     14  C   LIG    1       22.666 -15.923   4.488  0.00  0.00    +0.143 C 
BRANCH  14  15
ATOM     15  C   LIG    1       22.602 -17.396   4.307  0.00  0.00    +0.115 A 
ATOM     16  O   LIG    1       23.790 -18.029   4.051  0.00  0.00    -0.462 OA
ATOM     17  C   LIG    1       23.546 -19.375   4.075  0.00  0.00    +0.119 A 
ATOM     18  C   LIG    1       22.214 -19.602   4.357  0.00  0.00    +0.046 A 
ATOM     19  C   LIG    1       21.596 -18.332   4.428  0.00  0.00    +0.046 A 
BRANCH  17  20
ATOM     20  C   LIG    1       24.689 -20.285   3.742  0.00  0.00    +0.158 C 
BRANCH  20  21
ATOM     21  N   LIG    1       25.378 -20.754   4.964  0.00  0.00    -0.301 NA
ATOM     22  C   LIG    1       24.504 -20.663   6.135  0.00  0.00    +0.105 C 
ATOM     23  C   LIG    1       26.594 -19.969   5.201  0.00  0.00    +0.105 C 
ENDBRANCH  20  21
ENDBRANCH  17  20
ENDBRANCH  14  15
ENDBRANCH  13  14
ENDBRANCH   1  13
TORSDOF 10
ENDMDL
MODEL 7
REMARK VINA RESULT:      -3.0      2.421      6.803
REMARK  Name = *****
REMARK                            x       y       z     vdW  Elec       q    Type
REMARK                         _______ _______ _______ _____ _____    ______ ____
ROOT
ATOM      1  C   LIG    1       26.756 -19.694   4.470  0.00  0.00    +0.113 C 
ENDROOT
BRANCH   1   2
ATOM      2  C   LIG    1       26.285 -20.081   5.878  0.00  0.00    +0.233 C 
BRANCH   2   3
ATOM      3  N   LIG    1       25.159 -21.021   5.874  0.00  0.00    -0.233 N 
ATOM      4  H   LIG    1       24.946 -21.439   6.777  0.00  0.00    +0.291 HD
BRANCH   3   5
ATOM      5  C   LIG    1       24.012 -20.829   5.110  0.00  0.00    +0.326 C 
ATOM      6  C   LIG    1       23.154 -19.878   5.509  0.00  0.00    +0.474 C 
BRANCH   5   8
ATOM      7  C   LIG    1       24.216 -21.224   2.598  0.00  0.00    +0.273 C 
ATOM      8  N   LIG    1       23.851 -21.572   3.951  0.00  0.00    -0.236 N 
ATOM      9  H   LIG    1       23.917 -22.581   4.122  0.00  0.00    +0.291 HD
ENDBRANCH   5   8
BRANCH   6  10
ATOM     10  N   LIG    1       21.966 -19.497   4.782  0.00  0.00    +0.080 N 
ATOM     11  O   LIG    1       21.874 -18.316   4.481  0.00  0.00    -0.576 OA
ATOM     12  O   LIG    1       21.107 -20.370   4.506  0.00  0.00    +0.041 OA
ENDBRANCH   6  10
ENDBRANCH   3   5
ENDBRANCH   2   3
ENDBRANCH   1   2
BRANCH   1  13
ATOM     13  S   LIG    1       26.075 -18.101   3.879  0.00  0.00    -0.149 S 
BRANCH  13  14
ATOM     14  C   LIG    1       27.579 -17.062   3.903  0.00  0.00    +0.143 C 
BRANCH  14  15
ATOM     15  C   LIG    1       27.332 -15.611   3.702  0.00  0.00    +0.115 A 
ATOM     16  O   LIG    1       26.261 -15.279   2.916  0.00  0.00    -0.462 OA
ATOM     17  C   LIG    1       26.112 -13.921   2.985  0.00  0.00    +0.119 A 
ATOM     18  C   LIG    1       27.073 -13.389   3.820  0.00  0.00    +0.046 A 
ATOM     19  C   LIG    1       27.901 -14.465   4.216  0.00  0.00    +0.046 A 
BRANCH  17  20
ATOM     20  C   LIG    1       25.040 -13.305   2.138  0.00  0.00    +0.158 C 
BRANCH  20  21
ATOM     21  N   LIG    1       23.802 -13.076   2.916  0.00  0.00    -0.301 NA
ATOM     22  C   LIG    1       23.808 -11.754   3.546  0.00  0.00    +0.105 C 
ATOM     23  C   LIG    1       23.646 -14.108   3.946  0.00  0.00    +0.105 C 
ENDBRANCH  20  21
ENDBRANCH  17  20
ENDBRANCH  14  15
ENDBRANCH  13  14
ENDBRANCH   1  13
TORSDOF 10
ENDMDL
MODEL 8
REMARK VINA RESULT:      -2.5      1.811      2.488
REMARK  Name = *****
REMARK                            x       y       z     vdW  Elec       q    Type
REMARK                         _______ _______ _______ _____ _____    ______ ____
ROOT
ATOM      1  C   LIG    1       26.981 -18.919   4.577  0.00  0.00    +0.113 C 
ENDROOT
BRANCH   1   2
ATOM      2  C   LIG    1       27.664 -17.566   4.341  0.00  0.00    +0.233 C 
BRANCH   2   3
ATOM      3  N   LIG    1       26.892 -16.673   3.469  0.00  0.00    -0.233 N 
ATOM      4  H   LIG    1       26.006 -17.053   3.143  0.00  0.00    +0.291 HD
BRANCH   3   5
ATOM      5  C   LIG    1       26.825 -15.296   3.660  0.00  0.00    +0.326 C 
ATOM      6  C   LIG    1       27.932 -14.678   4.098  0.00  0.00    +0.474 C 
BRANCH   5   8
ATOM      7  C   LIG    1       24.372 -14.679   3.984  0.00  0.00    +0.273 C 
ATOM      8  N   LIG    1       25.656 -14.634   3.324  0.00  0.00    -0.236 N 
ATOM      9  H   LIG    1       25.833 -13.722   2.887  0.00  0.00    +0.291 HD
ENDBRANCH   5   8
BRANCH   6  10
ATOM     10  N   LIG    1       28.053 -13.248   4.263  0.00  0.00    +0.080 N 
ATOM     11  O   LIG    1       27.077 -12.674   4.721  0.00  0.00    -0.576 OA
ATOM     12  O   LIG    1       29.123 -12.680   3.933  0.00  0.00    +0.041 OA
ENDBRANCH   6  10
ENDBRANCH   3   5
ENDBRANCH   2   3
ENDBRANCH   1   2
BRANCH   1  13
ATOM     13  S   LIG    1       27.979 -20.080   5.581  0.00  0.00    -0.149 S 
BRANCH  13  14
ATOM     14  C   LIG    1       26.837 -20.387   6.976  0.00  0.00    +0.143 C 
BRANCH  14  15
ATOM     15  C   LIG    1       25.419 -20.586   6.582  0.00  0.00    +0.115 A 
ATOM     16  O   LIG    1       25.005 -19.937   5.450  0.00  0.00    -0.462 OA
ATOM     17  C   LIG    1       23.737 -20.369   5.174  0.00  0.00    +0.119 A 
ATOM     18  C   LIG    1       23.347 -21.298   6.117  0.00  0.00    +0.046 A 
ATOM     19  C   LIG    1       24.395 -21.377   7.061  0.00  0.00    +0.046 A 
BRANCH  17  20
ATOM     20  C   LIG    1       23.034 -19.736   4.012  0.00  0.00    +0.158 C 
BRANCH  20  21
ATOM     21  N   LIG    1       21.910 -18.883   4.460  0.00  0.00    -0.301 NA
ATOM     22  C   LIG    1       20.845 -18.838   3.456  0.00  0.00    +0.105 C 
ATOM     23  C   LIG    1       22.378 -17.521   4.738  0.00  0.00    +0.105 C 
ENDBRANCH  20  21
ENDBRANCH  17  20
ENDBRANCH  14  15
ENDBRANCH  13  14
ENDBRANCH   1  13
TORSDOF 10
ENDMDL
MODEL 9
REMARK VINA RESULT:      -2.3      2.787      4.425
REMARK  Name = *****
REMARK                            x       y       z     vdW  Elec       q    Type
REMARK                         _______ _______ _______ _____ _____    ______ ____
ROOT
ATOM      1  C   LIG    1       23.128 -14.231   3.730  0.00  0.00    +0.113 C 
ENDROOT
BRANCH   1   2
ATOM      2  C   LIG    1       24.143 -13.130   4.060  0.00  0.00    +0.233 C 
BRANCH   2   3
ATOM      3  N   LIG    1       25.312 -13.137   3.174  0.00  0.00    -0.233 N 
ATOM      4  H   LIG    1       25.695 -12.218   2.961  0.00  0.00    +0.291 HD
BRANCH   3   5
ATOM      5  C   LIG    1       26.306 -14.110   3.235  0.00  0.00    +0.326 C 
ATOM      6  C   LIG    1       25.932 -15.358   3.553  0.00  0.00    +0.474 C 
BRANCH   5   8
ATOM      7  C   LIG    1       28.615 -13.144   3.726  0.00  0.00    +0.273 C 
ATOM      8  N   LIG    1       27.603 -13.758   2.899  0.00  0.00    -0.236 N 
ATOM      9  H   LIG    1       28.008 -14.383   2.193  0.00  0.00    +0.291 HD
ENDBRANCH   5   8
BRANCH   6  10
ATOM     10  N   LIG    1       26.823 -16.493   3.574  0.00  0.00    +0.080 N 
ATOM     11  O   LIG    1       26.417 -17.508   3.028  0.00  0.00    -0.576 OA
ATOM     12  O   LIG    1       27.938 -16.389   4.142  0.00  0.00    +0.041 OA
ENDBRANCH   6  10
ENDBRANCH   3   5
ENDBRANCH   2   3
ENDBRANCH   1   2
BRANCH   1  13
ATOM     13  S   LIG    1       23.122 -15.611   4.933  0.00  0.00    -0.149 S 
BRANCH  13  14
ATOM     14  C   LIG    1       21.833 -16.685   4.209  0.00  0.00    +0.143 C 
BRANCH  14  15
ATOM     15  C   LIG    1       22.053 -18.140   4.413  0.00  0.00    +0.115 A 
ATOM     16  O   LIG    1       22.876 -18.491   5.449  0.00  0.00    -0.462 OA
ATOM     17  C   LIG    1       22.822 -19.853   5.567  0.00  0.00    +0.119 A 
ATOM     18  C   LIG    1       21.960 -20.369   4.621  0.00  0.00    +0.046 A 
ATOM     19  C   LIG    1       21.528 -19.277   3.833  0.00  0.00    +0.046 A 
BRANCH  17  20
ATOM     20  C   LIG    1       23.710 -20.488   6.594  0.00  0.00    +0.158 C 
BRANCH  20  21
ATOM     21  N   LIG    1       24.856 -21.179   5.963  0.00  0.00    -0.301 NA
ATOM     22  C   LIG    1       25.854 -21.572   6.960  0.00  0.00    +0.105 C 
ATOM     23  C   LIG    1       25.484 -20.317   4.956  0.00  0.00    +0.105 C 
ENDBRANCH  20  21
ENDBRANCH  17  20
ENDBRANCH  14  15
ENDBRANCH  13  14
ENDBRANCH   1  13
TORSDOF 10
ENDMDL
