MODEL 1
REMARK VINA RESULT:      -8.2      0.000      0.000
REMARK  Name = *****
REMARK                            x       y       z     vdW  Elec       q    Type
REMARK                         _______ _______ _______ _____ _____    ______ ____
ROOT
ATOM      1  C   LIG    1       27.024 -21.135   6.852  0.00  0.00    -0.017 C 
ATOM      2  C   LIG    1       28.234 -20.379   6.791  0.00  0.00    +0.042 C 
ATOM      3  C   LIG    1       29.383 -20.310   7.690  0.00  0.00    +0.169 C 
ATOM      4  C   LIG    1       30.534 -19.375   7.263  0.00  0.00    +0.075 C 
ATOM      5  C   LIG    1       30.055 -18.210   6.363  0.00  0.00    +0.019 C 
ATOM      6  C   LIG    1       29.235 -18.691   5.157  0.00  0.00    +0.055 C 
ATOM      7  O   LIG    1       29.467 -21.018   8.691  0.00  0.00    -0.292 OA
ATOM      8  C   LIG    1       28.186 -19.623   5.639  0.00  0.00    +0.027 C 
ATOM      9  N   LIG    1       27.005 -19.871   5.002  0.00  0.00    -0.361 NA
ATOM     10  H   LIG    1       26.702 -19.446   4.135  0.00  0.00    +0.165 HD
ATOM     11  C   LIG    1       26.286 -20.795   5.724  0.00  0.00    +0.017 C 
ATOM     12  C   LIG    1       24.951 -21.255   5.260  0.00  0.00    +0.063 C 
ENDROOT
BRANCH   1  14
ATOM     13  C   LIG    1       25.589 -21.527   8.872  0.00  0.00    +0.009 C 
ATOM     14  C   LIG    1       26.630 -22.105   7.924  0.00  0.00    +0.034 C 
ENDBRANCH   1  14
BRANCH   4  15
ATOM     15  C   LIG    1       31.232 -18.862   8.540  0.00  0.00    +0.096 C 
BRANCH  15  16
ATOM     16  N   LIG    1       30.950 -17.458   8.905  0.00  0.00    -0.297 NA
ATOM     17  C   LIG    1       30.068 -17.400  10.098  0.00  0.00    +0.112 C 
ATOM     18  C   LIG    1       30.772 -17.757  11.421  0.00  0.00    +0.175 C 
ATOM     19  O   LIG    1       31.936 -16.948  11.635  0.00  0.00    -0.377 OA
ATOM     20  C   LIG    1       32.845 -17.064  10.533  0.00  0.00    +0.175 C 
ATOM     21  C   LIG    1       32.165 -16.670   9.213  0.00  0.00    +0.112 C 
ENDBRANCH  15  16
ENDBRANCH   4  15
TORSDOF 3
ENDMDL
MODEL 2
REMARK VINA RESULT:      -7.9      2.438      4.107
REMARK  Name = *****
REMARK                            x       y       z     vdW  Elec       q    Type
REMARK                         _______ _______ _______ _____ _____    ______ ____
ROOT
ATOM      1  C   LIG    1       24.484 -20.441   5.040  0.00  0.00    -0.017 C 
ATOM      2  C   LIG    1       25.366 -20.524   6.160  0.00  0.00    +0.042 C 
ATOM      3  C   LIG    1       26.794 -20.247   6.295  0.00  0.00    +0.169 C 
ATOM      4  C   LIG    1       27.400 -20.434   7.701  0.00  0.00    +0.075 C 
ATOM      5  C   LIG    1       26.624 -21.467   8.554  0.00  0.00    +0.019 C 
ATOM      6  C   LIG    1       25.119 -21.172   8.618  0.00  0.00    +0.055 C 
ATOM      7  O   LIG    1       27.461 -19.811   5.359  0.00  0.00    -0.292 OA
ATOM      8  C   LIG    1       24.620 -20.953   7.237  0.00  0.00    +0.027 C 
ATOM      9  N   LIG    1       23.333 -21.146   6.828  0.00  0.00    -0.361 NA
ATOM     10  H   LIG    1       22.570 -21.467   7.412  0.00  0.00    +0.165 HD
ATOM     11  C   LIG    1       23.229 -20.833   5.493  0.00  0.00    +0.017 C 
ATOM     12  C   LIG    1       21.931 -20.950   4.780  0.00  0.00    +0.063 C 
ENDROOT
BRANCH   1  14
ATOM     13  C   LIG    1       24.844 -18.500   3.492  0.00  0.00    +0.009 C 
ATOM     14  C   LIG    1       24.844 -20.014   3.650  0.00  0.00    +0.034 C 
ENDBRANCH   1  14
BRANCH   4  15
ATOM     15  C   LIG    1       28.882 -20.827   7.535  0.00  0.00    +0.096 C 
BRANCH  15  16
ATOM     16  N   LIG    1       29.789 -20.384   8.615  0.00  0.00    -0.297 NA
ATOM     17  C   LIG    1       31.205 -20.479   8.176  0.00  0.00    +0.112 C 
ATOM     18  C   LIG    1       31.628 -19.389   7.172  0.00  0.00    +0.175 C 
ATOM     19  O   LIG    1       31.361 -18.075   7.677  0.00  0.00    -0.377 OA
ATOM     20  C   LIG    1       29.977 -17.933   8.021  0.00  0.00    +0.175 C 
ATOM     21  C   LIG    1       29.553 -18.990   9.053  0.00  0.00    +0.112 C 
ENDBRANCH  15  16
ENDBRANCH   4  15
TORSDOF 3
ENDMDL
MODEL 3
REMARK VINA RESULT:      -7.4      1.315      1.768
REMARK  Name = *****
REMARK                            x       y       z     vdW  Elec       q    Type
REMARK                         _______ _______ _______ _____ _____    ______ ____
ROOT
ATOM      1  C   LIG    1       25.726 -20.661   6.440  0.00  0.00    -0.017 C 
ATOM      2  C   LIG    1       27.033 -20.165   6.733  0.00  0.00    +0.042 C 
ATOM      3  C   LIG    1       27.723 -19.933   8.000  0.00  0.00    +0.169 C 
ATOM      4  C   LIG    1       29.168 -19.400   7.907  0.00  0.00    +0.075 C 
ATOM      5  C   LIG    1       29.427 -18.598   6.609  0.00  0.00    +0.019 C 
ATOM      6  C   LIG    1       29.024 -19.370   5.344  0.00  0.00    +0.055 C 
ATOM      7  O   LIG    1       27.211 -20.221   9.079  0.00  0.00    -0.292 OA
ATOM      8  C   LIG    1       27.647 -19.895   5.529  0.00  0.00    +0.027 C 
ATOM      9  N   LIG    1       26.778 -20.189   4.519  0.00  0.00    -0.361 NA
ATOM     10  H   LIG    1       26.964 -20.079   3.530  0.00  0.00    +0.165 HD
ATOM     11  C   LIG    1       25.604 -20.663   5.055  0.00  0.00    +0.017 C 
ATOM     12  C   LIG    1       24.473 -21.066   4.180  0.00  0.00    +0.063 C 
ENDROOT
BRANCH   1  14
ATOM     13  C   LIG    1       24.534 -22.606   7.483  0.00  0.00    +0.009 C 
ATOM     14  C   LIG    1       24.692 -21.094   7.434  0.00  0.00    +0.034 C 
ENDBRANCH   1  14
BRANCH   4  15
ATOM     15  C   LIG    1       29.448 -18.555   9.167  0.00  0.00    +0.096 C 
BRANCH  15  16
ATOM     16  N   LIG    1       30.700 -18.871   9.886  0.00  0.00    -0.297 NA
ATOM     17  C   LIG    1       31.879 -18.477   9.072  0.00  0.00    +0.112 C 
ATOM     18  C   LIG    1       32.124 -16.957   9.010  0.00  0.00    +0.175 C 
ATOM     19  O   LIG    1       32.223 -16.386  10.321  0.00  0.00    -0.377 OA
ATOM     20  C   LIG    1       31.052 -16.676  11.093  0.00  0.00    +0.175 C 
ATOM     21  C   LIG    1       30.820 -18.192  11.195  0.00  0.00    +0.112 C 
ENDBRANCH  15  16
ENDBRANCH   4  15
TORSDOF 3
ENDMDL
MODEL 4
REMARK VINA RESULT:      -7.4      2.019      3.017
REMARK  Name = *****
REMARK                            x       y       z     vdW  Elec       q    Type
REMARK                         _______ _______ _______ _____ _____    ______ ____
ROOT
ATOM      1  C   LIG    1       23.959 -21.111   6.239  0.00  0.00    -0.017 C 
ATOM      2  C   LIG    1       25.328 -20.733   6.095  0.00  0.00    +0.042 C 
ATOM      3  C   LIG    1       26.487 -20.931   6.962  0.00  0.00    +0.169 C 
ATOM      4  C   LIG    1       27.835 -20.390   6.441  0.00  0.00    +0.075 C 
ATOM      5  C   LIG    1       27.664 -19.201   5.464  0.00  0.00    +0.019 C 
ATOM      6  C   LIG    1       26.694 -19.512   4.315  0.00  0.00    +0.055 C 
ATOM      7  O   LIG    1       26.411 -21.564   8.012  0.00  0.00    -0.292 OA
ATOM      8  C   LIG    1       25.446 -20.075   4.889  0.00  0.00    +0.027 C 
ATOM      9  N   LIG    1       24.217 -20.022   4.298  0.00  0.00    -0.361 NA
ATOM     10  H   LIG    1       24.010 -19.588   3.407  0.00  0.00    +0.165 HD
ATOM     11  C   LIG    1       23.299 -20.654   5.104  0.00  0.00    +0.017 C 
ATOM     12  C   LIG    1       21.871 -20.749   4.704  0.00  0.00    +0.063 C 
ENDROOT
BRANCH   1  14
ATOM     13  C   LIG    1       22.983 -23.284   7.025  0.00  0.00    +0.009 C 
ATOM     14  C   LIG    1       23.354 -21.854   7.391  0.00  0.00    +0.034 C 
ENDBRANCH   1  14
BRANCH   4  15
ATOM     15  C   LIG    1       28.701 -20.009   7.659  0.00  0.00    +0.096 C 
BRANCH  15  16
ATOM     16  N   LIG    1       29.877 -19.161   7.370  0.00  0.00    -0.297 NA
ATOM     17  C   LIG    1       29.938 -18.020   8.319  0.00  0.00    +0.112 C 
ATOM     18  C   LIG    1       30.382 -18.407   9.743  0.00  0.00    +0.175 C 
ATOM     19  O   LIG    1       31.635 -19.102   9.734  0.00  0.00    -0.377 OA
ATOM     20  C   LIG    1       31.568 -20.262   8.895  0.00  0.00    +0.175 C 
ATOM     21  C   LIG    1       31.166 -19.883   7.461  0.00  0.00    +0.112 C 
ENDBRANCH  15  16
ENDBRANCH   4  15
TORSDOF 3
ENDMDL
MODEL 5
REMARK VINA RESULT:      -6.9      2.654      6.961
REMARK  Name = *****
REMARK                            x       y       z     vdW  Elec       q    Type
REMARK                         _______ _______ _______ _____ _____    ______ ____
ROOT
ATOM      1  C   LIG    1       30.170 -19.963   8.198  0.00  0.00    -0.017 C 
ATOM      2  C   LIG    1       28.934 -20.175   7.514  0.00  0.00    +0.042 C 
ATOM      3  C   LIG    1       27.827 -21.093   7.770  0.00  0.00    +0.169 C 
ATOM      4  C   LIG    1       26.627 -21.008   6.804  0.00  0.00    +0.075 C 
ATOM      5  C   LIG    1       27.024 -20.483   5.403  0.00  0.00    +0.019 C 
ATOM      6  C   LIG    1       27.800 -19.160   5.463  0.00  0.00    +0.055 C 
ATOM      7  O   LIG    1       27.815 -21.838   8.747  0.00  0.00    -0.292 OA
ATOM      8  C   LIG    1       28.902 -19.302   6.448  0.00  0.00    +0.027 C 
ATOM      9  N   LIG    1       30.059 -18.579   6.440  0.00  0.00    -0.361 NA
ATOM     10  H   LIG    1       30.306 -17.869   5.762  0.00  0.00    +0.165 HD
ATOM     11  C   LIG    1       30.842 -18.964   7.503  0.00  0.00    +0.017 C 
ATOM     12  C   LIG    1       32.167 -18.336   7.742  0.00  0.00    +0.063 C 
ENDROOT
BRANCH   1  14
ATOM     13  C   LIG    1       31.303 -22.013   9.096  0.00  0.00    +0.009 C 
ATOM     14  C   LIG    1       30.646 -20.681   9.424  0.00  0.00    +0.034 C 
ENDBRANCH   1  14
BRANCH   4  15
ATOM     15  C   LIG    1       25.974 -22.404   6.727  0.00  0.00    +0.096 C 
BRANCH  15  16
ATOM     16  N   LIG    1       24.996 -22.595   5.636  0.00  0.00    -0.297 NA
ATOM     17  C   LIG    1       24.844 -24.040   5.324  0.00  0.00    +0.112 C 
ATOM     18  C   LIG    1       24.046 -24.832   6.378  0.00  0.00    +0.175 C 
ATOM     19  O   LIG    1       22.760 -24.246   6.616  0.00  0.00    -0.377 OA
ATOM     20  C   LIG    1       22.890 -22.875   7.009  0.00  0.00    +0.175 C 
ATOM     21  C   LIG    1       23.649 -22.065   5.946  0.00  0.00    +0.112 C 
ENDBRANCH  15  16
ENDBRANCH   4  15
TORSDOF 3
ENDMDL
MODEL 6
REMARK VINA RESULT:      -6.7      3.372      7.615
REMARK  Name = *****
REMARK                            x       y       z     vdW  Elec       q    Type
REMARK                         _______ _______ _______ _____ _____    ______ ____
ROOT
ATOM      1  C   LIG    1       28.013 -20.403   6.551  0.00  0.00    -0.017 C 
ATOM      2  C   LIG    1       26.780 -21.076   6.292  0.00  0.00    +0.042 C 
ATOM      3  C   LIG    1       26.142 -22.217   6.943  0.00  0.00    +0.169 C 
ATOM      4  C   LIG    1       24.770 -22.648   6.382  0.00  0.00    +0.075 C 
ATOM      5  C   LIG    1       24.591 -22.277   4.890  0.00  0.00    +0.019 C 
ATOM      6  C   LIG    1       24.881 -20.796   4.608  0.00  0.00    +0.055 C 
ATOM      7  O   LIG    1       26.630 -22.756   7.934  0.00  0.00    -0.292 OA
ATOM      8  C   LIG    1       26.187 -20.444   5.221  0.00  0.00    +0.027 C 
ATOM      9  N   LIG    1       26.999 -19.430   4.805  0.00  0.00    -0.361 NA
ATOM     10  H   LIG    1       26.814 -18.805   4.031  0.00  0.00    +0.165 HD
ATOM     11  C   LIG    1       28.115 -19.385   5.608  0.00  0.00    +0.017 C 
ATOM     12  C   LIG    1       29.177 -18.370   5.384  0.00  0.00    +0.063 C 
ENDROOT
BRANCH   1  14
ATOM     13  C   LIG    1       29.464 -19.497   8.386  0.00  0.00    +0.009 C 
ATOM     14  C   LIG    1       29.002 -20.732   7.627  0.00  0.00    +0.034 C 
ENDBRANCH   1  14
BRANCH   4  15
ATOM     15  C   LIG    1       24.612 -24.164   6.618  0.00  0.00    +0.096 C 
BRANCH  15  16
ATOM     16  N   LIG    1       25.229 -25.040   5.599  0.00  0.00    -0.297 NA
ATOM     17  C   LIG    1       26.455 -25.680   6.140  0.00  0.00    +0.112 C 
ATOM     18  C   LIG    1       26.182 -26.806   7.156  0.00  0.00    +0.175 C 
ATOM     19  O   LIG    1       25.308 -27.805   6.615  0.00  0.00    -0.377 OA
ATOM     20  C   LIG    1       24.078 -27.218   6.172  0.00  0.00    +0.175 C 
ATOM     21  C   LIG    1       24.335 -26.121   5.127  0.00  0.00    +0.112 C 
ENDBRANCH  15  16
ENDBRANCH   4  15
TORSDOF 3
ENDMDL
MODEL 7
REMARK VINA RESULT:      -6.4      2.915      7.159
REMARK  Name = *****
REMARK                            x       y       z     vdW  Elec       q    Type
REMARK                         _______ _______ _______ _____ _____    ______ ____
ROOT
ATOM      1  C   LIG    1       29.929 -20.292   7.382  0.00  0.00    -0.017 C 
ATOM      2  C   LIG    1       28.598 -20.592   6.959  0.00  0.00    +0.042 C 
ATOM      3  C   LIG    1       27.774 -20.045   5.883  0.00  0.00    +0.169 C 
ATOM      4  C   LIG    1       26.366 -20.654   5.719  0.00  0.00    +0.075 C 
ATOM      5  C   LIG    1       25.808 -21.235   7.041  0.00  0.00    +0.019 C 
ATOM      6  C   LIG    1       26.778 -22.217   7.714  0.00  0.00    +0.055 C 
ATOM      7  O   LIG    1       28.206 -19.202   5.100  0.00  0.00    -0.292 OA
ATOM      8  C   LIG    1       28.118 -21.583   7.788  0.00  0.00    +0.027 C 
ATOM      9  N   LIG    1       29.082 -21.893   8.702  0.00  0.00    -0.361 NA
ATOM     10  H   LIG    1       28.998 -22.583   9.438  0.00  0.00    +0.165 HD
ATOM     11  C   LIG    1       30.196 -21.121   8.466  0.00  0.00    +0.017 C 
ATOM     12  C   LIG    1       31.409 -21.251   9.315  0.00  0.00    +0.063 C 
ENDROOT
BRANCH   1  14
ATOM     13  C   LIG    1       31.242 -18.190   7.759  0.00  0.00    +0.009 C 
ATOM     14  C   LIG    1       30.852 -19.282   6.775  0.00  0.00    +0.034 C 
ENDBRANCH   1  14
BRANCH   4  15
ATOM     15  C   LIG    1       25.440 -19.568   5.135  0.00  0.00    +0.096 C 
BRANCH  15  16
ATOM     16  N   LIG    1       24.631 -19.974   3.967  0.00  0.00    -0.297 NA
ATOM     17  C   LIG    1       23.869 -21.213   4.270  0.00  0.00    +0.112 C 
ATOM     18  C   LIG    1       22.669 -21.001   5.213  0.00  0.00    +0.175 C 
ATOM     19  O   LIG    1       21.781 -19.991   4.718  0.00  0.00    -0.377 OA
ATOM     20  C   LIG    1       22.480 -18.758   4.507  0.00  0.00    +0.175 C 
ATOM     21  C   LIG    1       23.655 -18.949   3.535  0.00  0.00    +0.112 C 
ENDBRANCH  15  16
ENDBRANCH   4  15
TORSDOF 3
ENDMDL
MODEL 8
REMARK VINA RESULT:      -6.2      6.311      8.949
REMARK  Name = *****
REMARK                            x       y       z     vdW  Elec       q    Type
REMARK                         _______ _______ _______ _____ _____    ______ ____
ROOT
ATOM      1  C   LIG    1       25.002 -29.733   7.346  0.00  0.00    -0.017 C 
ATOM      2  C   LIG    1       25.063 -28.424   6.779  0.00  0.00    +0.042 C 
ATOM      3  C   LIG    1       25.756 -27.211   7.207  0.00  0.00    +0.169 C 
ATOM      4  C   LIG    1       25.598 -25.973   6.300  0.00  0.00    +0.075 C 
ATOM      5  C   LIG    1       24.278 -25.989   5.492  0.00  0.00    +0.019 C 
ATOM      6  C   LIG    1       24.075 -27.295   4.711  0.00  0.00    +0.055 C 
ATOM      7  O   LIG    1       26.490 -27.197   8.192  0.00  0.00    -0.292 OA
ATOM      8  C   LIG    1       24.294 -28.437   5.635  0.00  0.00    +0.027 C 
ATOM      9  N   LIG    1       23.758 -29.682   5.482  0.00  0.00    -0.361 NA
ATOM     10  H   LIG    1       23.145 -29.973   4.731  0.00  0.00    +0.165 HD
ATOM     11  C   LIG    1       24.183 -30.488   6.513  0.00  0.00    +0.017 C 
ATOM     12  C   LIG    1       23.753 -31.908   6.600  0.00  0.00    +0.063 C 
ENDROOT
BRANCH   1  14
ATOM     13  C   LIG    1       24.779 -30.123   9.813  0.00  0.00    +0.009 C 
ATOM     14  C   LIG    1       25.686 -30.198   8.594  0.00  0.00    +0.034 C 
ENDBRANCH   1  14
BRANCH   4  15
ATOM     15  C   LIG    1       25.713 -24.714   7.183  0.00  0.00    +0.096 C 
BRANCH  15  16
ATOM     16  N   LIG    1       25.871 -23.435   6.460  0.00  0.00    -0.297 NA
ATOM     17  C   LIG    1       24.543 -22.827   6.187  0.00  0.00    +0.112 C 
ATOM     18  C   LIG    1       23.864 -22.212   7.426  0.00  0.00    +0.175 C 
ATOM     19  O   LIG    1       24.715 -21.258   8.074  0.00  0.00    -0.377 OA
ATOM     20  C   LIG    1       25.969 -21.852   8.430  0.00  0.00    +0.175 C 
ATOM     21  C   LIG    1       26.675 -22.433   7.195  0.00  0.00    +0.112 C 
ENDBRANCH  15  16
ENDBRANCH   4  15
TORSDOF 3
ENDMDL
MODEL 9
REMARK VINA RESULT:      -6.1      5.144      8.604
REMARK  Name = *****
REMARK                            x       y       z     vdW  Elec       q    Type
REMARK                         _______ _______ _______ _____ _____    ______ ____
ROOT
ATOM      1  C   LIG    1       24.654 -20.524   5.051  0.00  0.00    -0.017 C 
ATOM      2  C   LIG    1       24.313 -21.712   5.767  0.00  0.00    +0.042 C 
ATOM      3  C   LIG    1       25.123 -22.842   6.215  0.00  0.00    +0.169 C 
ATOM      4  C   LIG    1       24.385 -23.949   6.997  0.00  0.00    +0.075 C 
ATOM      5  C   LIG    1       22.883 -24.037   6.633  0.00  0.00    +0.019 C 
ATOM      6  C   LIG    1       22.164 -22.685   6.746  0.00  0.00    +0.055 C 
ATOM      7  O   LIG    1       26.341 -22.874   6.050  0.00  0.00    -0.292 OA
ATOM      8  C   LIG    1       22.958 -21.665   6.017  0.00  0.00    +0.027 C 
ATOM      9  N   LIG    1       22.454 -20.516   5.480  0.00  0.00    -0.361 NA
ATOM     10  H   LIG    1       21.484 -20.228   5.509  0.00  0.00    +0.165 HD
ATOM     11  C   LIG    1       23.474 -19.805   4.892  0.00  0.00    +0.017 C 
ATOM     12  C   LIG    1       23.212 -18.502   4.227  0.00  0.00    +0.063 C 
ENDROOT
BRANCH   1  14
ATOM     13  C   LIG    1       26.978 -19.855   5.713  0.00  0.00    +0.009 C 
ATOM     14  C   LIG    1       26.016 -20.133   4.567  0.00  0.00    +0.034 C 
ENDBRANCH   1  14
BRANCH   4  15
ATOM     15  C   LIG    1       25.115 -25.284   6.742  0.00  0.00    +0.096 C 
BRANCH  15  16
ATOM     16  N   LIG    1       24.521 -26.152   5.704  0.00  0.00    -0.297 NA
ATOM     17  C   LIG    1       25.471 -26.338   4.578  0.00  0.00    +0.112 C 
ATOM     18  C   LIG    1       26.651 -27.277   4.896  0.00  0.00    +0.175 C 
ATOM     19  O   LIG    1       26.198 -28.552   5.369  0.00  0.00    -0.377 OA
ATOM     20  C   LIG    1       25.352 -28.398   6.516  0.00  0.00    +0.175 C 
ATOM     21  C   LIG    1       24.149 -27.497   6.197  0.00  0.00    +0.112 C 
ENDBRANCH  15  16
ENDBRANCH   4  15
TORSDOF 3
ENDMDL
