MODEL 1
REMARK VINA RESULT:      -4.5      0.000      0.000
REMARK  Name = *****
REMARK                            x       y       z     vdW  Elec       q    Type
REMARK                         _______ _______ _______ _____ _____    ______ ____
ROOT
ATOM      1  C   LIG    1       25.093 -13.672   3.444  0.00  0.00    +0.104 C 
ATOM      2  C   LIG    1       26.558 -13.770   3.011  0.00  0.00    +0.152 C 
ATOM      3  O   LIG    1       26.892 -14.475   2.054  0.00  0.00    -0.296 OA
ATOM      4  C   LIG    1       27.573 -12.896   3.727  0.00  0.00    +0.070 C 
ATOM      5  C   LIG    1       29.007 -13.319   3.426  0.00  0.00    +0.017 C 
ATOM      6  C   LIG    1       27.283 -12.993   5.211  0.00  0.00    +0.115 C 
ATOM      7  N   LIG    1       25.940 -12.561   5.491  0.00  0.00    -0.314 N 
ATOM      8  H   LIG    1       25.718 -12.124   6.381  0.00  0.00    +0.149 HD
ATOM      9  C   LIG    1       24.853 -12.904   4.742  0.00  0.00    +0.226 C 
ATOM     10  O   LIG    1       23.732 -12.605   5.146  0.00  0.00    -0.275 OA
ENDROOT
BRANCH   1  12
ATOM     11  C   LIG    1       24.681 -11.535   2.032  0.00  0.00    +0.005 C 
ATOM     12  C   LIG    1       24.291 -12.985   2.304  0.00  0.00    +0.020 C 
ENDBRANCH   1  12
BRANCH   1  13
ATOM     13  C   LIG    1       24.526 -15.109   3.628  0.00  0.00    +0.020 C 
ATOM     14  C   LIG    1       23.204 -15.190   4.384  0.00  0.00    +0.005 C 
ENDBRANCH   1  13
TORSDOF 2
ENDMDL
MODEL 2
REMARK VINA RESULT:      -4.1      6.218      7.716
REMARK  Name = *****
REMARK                            x       y       z     vdW  Elec       q    Type
REMARK                         _______ _______ _______ _____ _____    ______ ____
ROOT
ATOM      1  C   LIG    1       23.698 -20.377   4.853  0.00  0.00    +0.104 C 
ATOM      2  C   LIG    1       24.585 -20.874   5.997  0.00  0.00    +0.152 C 
ATOM      3  O   LIG    1       24.093 -21.259   7.062  0.00  0.00    -0.296 OA
ATOM      4  C   LIG    1       26.081 -20.976   5.747  0.00  0.00    +0.070 C 
ATOM      5  C   LIG    1       26.866 -21.170   7.039  0.00  0.00    +0.017 C 
ATOM      6  C   LIG    1       26.507 -19.702   5.044  0.00  0.00    +0.115 C 
ATOM      7  N   LIG    1       25.786 -19.544   3.809  0.00  0.00    -0.314 N 
ATOM      8  H   LIG    1       26.218 -19.068   3.022  0.00  0.00    +0.149 HD
ATOM      9  C   LIG    1       24.449 -19.774   3.668  0.00  0.00    +0.226 C 
ATOM     10  O   LIG    1       23.900 -19.470   2.611  0.00  0.00    -0.275 OA
ENDROOT
BRANCH   1  12
ATOM     11  C   LIG    1       21.386 -21.553   4.797  0.00  0.00    +0.005 C 
ATOM     12  C   LIG    1       22.843 -21.571   4.343  0.00  0.00    +0.020 C 
ENDBRANCH   1  12
BRANCH   1  13
ATOM     13  C   LIG    1       22.727 -19.294   5.404  0.00  0.00    +0.020 C 
ATOM     14  C   LIG    1       22.342 -18.205   4.408  0.00  0.00    +0.005 C 
ENDBRANCH   1  13
TORSDOF 2
ENDMDL
MODEL 3
REMARK VINA RESULT:      -4.1      1.942      3.336
REMARK  Name = *****
REMARK                            x       y       z     vdW  Elec       q    Type
REMARK                         _______ _______ _______ _____ _____    ______ ____
ROOT
ATOM      1  C   LIG    1       25.665 -13.684   3.632  0.00  0.00    +0.104 C 
ATOM      2  C   LIG    1       25.046 -15.084   3.668  0.00  0.00    +0.152 C 
ATOM      3  O   LIG    1       23.875 -15.252   4.023  0.00  0.00    -0.296 OA
ATOM      4  C   LIG    1       25.881 -16.247   3.159  0.00  0.00    +0.070 C 
ATOM      5  C   LIG    1       25.281 -17.595   3.543  0.00  0.00    +0.017 C 
ATOM      6  C   LIG    1       27.272 -16.090   3.740  0.00  0.00    +0.115 C 
ATOM      7  N   LIG    1       27.844 -14.830   3.344  0.00  0.00    -0.314 N 
ATOM      8  H   LIG    1       28.848 -14.740   3.226  0.00  0.00    +0.149 HD
ATOM      9  C   LIG    1       27.163 -13.648   3.341  0.00  0.00    +0.226 C 
ATOM     10  O   LIG    1       27.779 -12.606   3.127  0.00  0.00    -0.275 OA
ENDROOT
BRANCH   1  12
ATOM     11  C   LIG    1       23.937 -11.827   3.089  0.00  0.00    +0.005 C 
ATOM     12  C   LIG    1       24.927 -12.852   2.546  0.00  0.00    +0.020 C 
ENDBRANCH   1  12
BRANCH   1  13
ATOM     13  C   LIG    1       25.428 -12.994   5.005  0.00  0.00    +0.020 C 
ATOM     14  C   LIG    1       26.443 -13.347   6.088  0.00  0.00    +0.005 C 
ENDBRANCH   1  13
TORSDOF 2
ENDMDL
MODEL 4
REMARK VINA RESULT:      -3.7      5.696      7.042
REMARK  Name = *****
REMARK                            x       y       z     vdW  Elec       q    Type
REMARK                         _______ _______ _______ _____ _____    ______ ____
ROOT
ATOM      1  C   LIG    1       24.208 -19.346   4.187  0.00  0.00    +0.104 C 
ATOM      2  C   LIG    1       25.307 -20.018   5.013  0.00  0.00    +0.152 C 
ATOM      3  O   LIG    1       26.438 -20.191   4.547  0.00  0.00    -0.296 OA
ATOM      4  C   LIG    1       24.996 -20.375   6.457  0.00  0.00    +0.070 C 
ATOM      5  C   LIG    1       26.042 -21.310   7.055  0.00  0.00    +0.017 C 
ATOM      6  C   LIG    1       23.625 -21.019   6.476  0.00  0.00    +0.115 C 
ATOM      7  N   LIG    1       22.638 -20.119   5.942  0.00  0.00    -0.314 N 
ATOM      8  H   LIG    1       21.680 -20.153   6.277  0.00  0.00    +0.149 HD
ATOM      9  C   LIG    1       22.821 -19.357   4.825  0.00  0.00    +0.226 C 
ATOM     10  O   LIG    1       21.868 -18.731   4.367  0.00  0.00    -0.275 OA
ENDROOT
BRANCH   1  12
ATOM     11  C   LIG    1       25.986 -17.700   3.260  0.00  0.00    +0.005 C 
ATOM     12  C   LIG    1       24.625 -17.871   3.927  0.00  0.00    +0.020 C 
ENDBRANCH   1  12
BRANCH   1  13
ATOM     13  C   LIG    1       24.105 -20.063   2.810  0.00  0.00    +0.020 C 
ATOM     14  C   LIG    1       23.882 -21.571   2.882  0.00  0.00    +0.005 C 
ENDBRANCH   1  13
TORSDOF 2
ENDMDL
MODEL 5
REMARK VINA RESULT:      -3.6      1.841      2.857
REMARK  Name = *****
REMARK                            x       y       z     vdW  Elec       q    Type
REMARK                         _______ _______ _______ _____ _____    ______ ____
ROOT
ATOM      1  C   LIG    1       24.864 -13.739   4.027  0.00  0.00    +0.104 C 
ATOM      2  C   LIG    1       26.334 -13.674   4.448  0.00  0.00    +0.152 C 
ATOM      3  O   LIG    1       26.679 -13.958   5.599  0.00  0.00    -0.296 OA
ATOM      4  C   LIG    1       27.368 -13.348   3.382  0.00  0.00    +0.070 C 
ATOM      5  C   LIG    1       28.725 -13.004   3.986  0.00  0.00    +0.017 C 
ATOM      6  C   LIG    1       26.828 -12.186   2.573  0.00  0.00    +0.115 C 
ATOM      7  N   LIG    1       25.564 -12.530   1.979  0.00  0.00    -0.314 N 
ATOM      8  H   LIG    1       25.288 -12.122   1.091  0.00  0.00    +0.149 HD
ATOM      9  C   LIG    1       24.567 -13.196   2.631  0.00  0.00    +0.226 C 
ATOM     10  O   LIG    1       23.472 -13.313   2.085  0.00  0.00    -0.275 OA
ENDROOT
BRANCH   1  12
ATOM     11  C   LIG    1       23.035 -15.437   4.736  0.00  0.00    +0.005 C 
ATOM     12  C   LIG    1       24.402 -15.221   4.092  0.00  0.00    +0.020 C 
ENDBRANCH   1  12
BRANCH   1  13
ATOM     13  C   LIG    1       24.014 -12.927   5.045  0.00  0.00    +0.020 C 
ATOM     14  C   LIG    1       23.851 -11.447   4.716  0.00  0.00    +0.005 C 
ENDBRANCH   1  13
TORSDOF 2
ENDMDL
MODEL 6
REMARK VINA RESULT:      -3.6      1.606      3.816
REMARK  Name = *****
REMARK                            x       y       z     vdW  Elec       q    Type
REMARK                         _______ _______ _______ _____ _____    ______ ____
ROOT
ATOM      1  C   LIG    1       25.704 -14.306   3.788  0.00  0.00    +0.104 C 
ATOM      2  C   LIG    1       24.657 -13.452   4.508  0.00  0.00    +0.152 C 
ATOM      3  O   LIG    1       24.107 -13.855   5.538  0.00  0.00    -0.296 OA
ATOM      4  C   LIG    1       24.390 -12.054   3.977  0.00  0.00    +0.070 C 
ATOM      5  C   LIG    1       23.124 -11.447   4.572  0.00  0.00    +0.017 C 
ATOM      6  C   LIG    1       24.279 -12.159   2.469  0.00  0.00    +0.115 C 
ATOM      7  N   LIG    1       25.489 -12.701   1.912  0.00  0.00    -0.314 N 
ATOM      8  H   LIG    1       25.790 -12.430   0.980  0.00  0.00    +0.149 HD
ATOM      9  C   LIG    1       26.170 -13.758   2.442  0.00  0.00    +0.226 C 
ATOM     10  O   LIG    1       27.110 -14.238   1.812  0.00  0.00    -0.275 OA
ENDROOT
BRANCH   1  12
ATOM     11  C   LIG    1       27.805 -13.202   4.835  0.00  0.00    +0.005 C 
ATOM     12  C   LIG    1       26.940 -14.453   4.720  0.00  0.00    +0.020 C 
ENDBRANCH   1  12
BRANCH   1  13
ATOM     13  C   LIG    1       25.115 -15.725   3.548  0.00  0.00    +0.020 C 
ATOM     14  C   LIG    1       26.150 -16.823   3.318  0.00  0.00    +0.005 C 
ENDBRANCH   1  13
TORSDOF 2
ENDMDL
MODEL 7
REMARK VINA RESULT:      -3.5      6.411      7.461
REMARK  Name = *****
REMARK                            x       y       z     vdW  Elec       q    Type
REMARK                         _______ _______ _______ _____ _____    ______ ____
ROOT
ATOM      1  C   LIG    1       23.752 -20.329   5.206  0.00  0.00    +0.104 C 
ATOM      2  C   LIG    1       25.126 -19.792   4.798  0.00  0.00    +0.152 C 
ATOM      3  O   LIG    1       25.283 -19.195   3.728  0.00  0.00    -0.296 OA
ATOM      4  C   LIG    1       26.267 -19.925   5.791  0.00  0.00    +0.070 C 
ATOM      5  C   LIG    1       27.622 -19.650   5.148  0.00  0.00    +0.017 C 
ATOM      6  C   LIG    1       26.213 -21.331   6.353  0.00  0.00    +0.115 C 
ATOM      7  N   LIG    1       24.945 -21.572   6.988  0.00  0.00    -0.314 N 
ATOM      8  H   LIG    1       24.880 -22.209   7.776  0.00  0.00    +0.149 HD
ATOM      9  C   LIG    1       23.743 -21.191   6.466  0.00  0.00    +0.226 C 
ATOM     10  O   LIG    1       22.709 -21.570   7.011  0.00  0.00    -0.275 OA
ENDROOT
BRANCH   1  12
ATOM     11  C   LIG    1       22.236 -18.510   4.144  0.00  0.00    +0.005 C 
ATOM     12  C   LIG    1       22.800 -19.120   5.424  0.00  0.00    +0.020 C 
ENDBRANCH   1  12
BRANCH   1  13
ATOM     13  C   LIG    1       23.179 -21.183   4.039  0.00  0.00    +0.020 C 
ATOM     14  C   LIG    1       24.180 -21.531   2.942  0.00  0.00    +0.005 C 
ENDBRANCH   1  13
TORSDOF 2
ENDMDL
MODEL 8
REMARK VINA RESULT:      -3.5      1.346      3.288
REMARK  Name = *****
REMARK                            x       y       z     vdW  Elec       q    Type
REMARK                         _______ _______ _______ _____ _____    ______ ____
ROOT
ATOM      1  C   LIG    1       25.944 -13.578   3.847  0.00  0.00    +0.104 C 
ATOM      2  C   LIG    1       26.010 -15.057   3.456  0.00  0.00    +0.152 C 
ATOM      3  O   LIG    1       26.890 -15.476   2.698  0.00  0.00    -0.296 OA
ATOM      4  C   LIG    1       25.023 -16.011   4.107  0.00  0.00    +0.070 C 
ATOM      5  C   LIG    1       24.984 -17.364   3.404  0.00  0.00    +0.017 C 
ATOM      6  C   LIG    1       23.662 -15.346   4.070  0.00  0.00    +0.115 C 
ATOM      7  N   LIG    1       23.698 -14.086   4.764  0.00  0.00    -0.314 N 
ATOM      8  H   LIG    1       22.869 -13.739   5.237  0.00  0.00    +0.149 HD
ATOM      9  C   LIG    1       24.707 -13.176   4.647  0.00  0.00    +0.226 C 
ATOM     10  O   LIG    1       24.576 -12.070   5.166  0.00  0.00    -0.275 OA
ENDROOT
BRANCH   1  12
ATOM     11  C   LIG    1       28.462 -12.954   3.858  0.00  0.00    +0.005 C 
ATOM     12  C   LIG    1       27.210 -13.237   4.682  0.00  0.00    +0.020 C 
ENDBRANCH   1  12
BRANCH   1  13
ATOM     13  C   LIG    1       25.978 -12.715   2.554  0.00  0.00    +0.020 C 
ATOM     14  C   LIG    1       24.649 -12.611   1.812  0.00  0.00    +0.005 C 
ENDBRANCH   1  13
TORSDOF 2
ENDMDL
MODEL 9
REMARK VINA RESULT:      -3.4      1.678      3.205
REMARK  Name = *****
REMARK                            x       y       z     vdW  Elec       q    Type
REMARK                         _______ _______ _______ _____ _____    ______ ____
ROOT
ATOM      1  C   LIG    1       25.111 -14.335   4.010  0.00  0.00    +0.104 C 
ATOM      2  C   LIG    1       25.920 -13.253   4.729  0.00  0.00    +0.152 C 
ATOM      3  O   LIG    1       25.384 -12.211   5.119  0.00  0.00    -0.296 OA
ATOM      4  C   LIG    1       27.380 -13.541   5.038  0.00  0.00    +0.070 C 
ATOM      5  C   LIG    1       28.136 -12.284   5.455  0.00  0.00    +0.017 C 
ATOM      6  C   LIG    1       27.991 -14.150   3.792  0.00  0.00    +0.115 C 
ATOM      7  N   LIG    1       27.293 -15.353   3.425  0.00  0.00    -0.314 N 
ATOM      8  H   LIG    1       27.787 -16.109   2.959  0.00  0.00    +0.149 HD
ATOM      9  C   LIG    1       25.935 -15.484   3.435  0.00  0.00    +0.226 C 
ATOM     10  O   LIG    1       25.430 -16.501   2.965  0.00  0.00    -0.275 OA
ENDROOT
BRANCH   1  12
ATOM     11  C   LIG    1       22.824 -15.507   4.371  0.00  0.00    +0.005 C 
ATOM     12  C   LIG    1       24.077 -14.919   5.014  0.00  0.00    +0.020 C 
ENDBRANCH   1  12
BRANCH   1  13
ATOM     13  C   LIG    1       24.323 -13.679   2.840  0.00  0.00    +0.020 C 
ATOM     14  C   LIG    1       25.159 -12.806   1.909  0.00  0.00    +0.005 C 
ENDBRANCH   1  13
TORSDOF 2
ENDMDL
