MODEL 1
REMARK VINA RESULT:      -8.0      0.000      0.000
REMARK  Name = *****
REMARK                            x       y       z     vdW  Elec       q    Type
REMARK                         _______ _______ _______ _____ _____    ______ ____
ROOT
ATOM      1  C   LIG    1       28.897 -20.198   7.074  0.00  0.00    -0.045 A 
ATOM      2  C   LIG    1       28.334 -19.928   5.829  0.00  0.00    +0.005 A 
ATOM      3  C   LIG    1       26.957 -20.114   5.610  0.00  0.00    +0.023 A 
ATOM      4  C   LIG    1       26.083 -20.588   6.604  0.00  0.00    +0.030 A 
ATOM      5  C   LIG    1       26.679 -20.821   7.854  0.00  0.00    +0.023 A 
ATOM      6  C   LIG    1       28.044 -20.608   8.095  0.00  0.00    +0.005 A 
ENDROOT
BRANCH   1   7
ATOM      7  C   LIG    1       30.380 -20.072   7.333  0.00  0.00    +0.065 C 
BRANCH   7   8
ATOM      8  CA  LIG    1       30.831 -20.256   8.795  0.00  0.00    +0.165 C 
BRANCH   8   9
ATOM      9  N   LIG    1       31.953 -19.363   9.209  0.00  0.00    -0.318 NA
ATOM     10  H1  LIG    1       31.672 -18.402   8.978  0.00  0.00    +0.119 HD
ATOM     11  H2  LIG    1       32.007 -19.367  10.230  0.00  0.00    +0.119 HD
ENDBRANCH   8   9
BRANCH   8  12
ATOM     12  C   LIG    1       31.194 -21.698   9.183  0.00  0.00    +0.322 C 
ATOM     13  O   LIG    1       30.723 -22.343  10.121  0.00  0.00    -0.249 OA
BRANCH  12  14
ATOM     14  OXT LIG    1       32.202 -22.172   8.407  0.00  0.00    -0.479 OA
ATOM     15  HXT LIG    1       32.122 -21.720   7.532  0.00  0.00    +0.295 HD
ENDBRANCH  12  14
ENDBRANCH   8  12
ENDBRANCH   7   8
ENDBRANCH   1   7
BRANCH   4  16
ATOM     16  N   LIG    1       24.724 -20.799   6.375  0.00  0.00    -0.328 N 
BRANCH  16  17
ATOM     17  C   LIG    1       23.877 -21.548   7.334  0.00  0.00    +0.121 C 
BRANCH  17  18
ATOM     18  C   LIG    1       23.616 -22.986   6.871  0.00  0.00    +0.127 C 
ATOM     19 CL   LIG    1       25.096 -23.978   6.948  0.00  0.00    -0.124 Cl
ENDBRANCH  17  18
ENDBRANCH  16  17
BRANCH  16  20
ATOM     20  C   LIG    1       24.073 -20.292   5.141  0.00  0.00    +0.121 C 
BRANCH  20  21
ATOM     21  C   LIG    1       22.640 -19.813   5.392  0.00  0.00    +0.127 C 
ATOM     22 CL   LIG    1       22.291 -18.319   4.484  0.00  0.00    -0.124 Cl
ENDBRANCH  20  21
ENDBRANCH  16  20
ENDBRANCH   4  16
TORSDOF 10
ENDMDL
MODEL 2
REMARK VINA RESULT:      -8.0      0.117      2.589
REMARK  Name = *****
REMARK                            x       y       z     vdW  Elec       q    Type
REMARK                         _______ _______ _______ _____ _____    ______ ____
ROOT
ATOM      1  C   LIG    1       28.905 -20.198   7.050  0.00  0.00    -0.045 A 
ATOM      2  C   LIG    1       28.360 -19.917   5.799  0.00  0.00    +0.005 A 
ATOM      3  C   LIG    1       26.982 -20.077   5.566  0.00  0.00    +0.023 A 
ATOM      4  C   LIG    1       26.089 -20.533   6.551  0.00  0.00    +0.030 A 
ATOM      5  C   LIG    1       26.667 -20.777   7.807  0.00  0.00    +0.023 A 
ATOM      6  C   LIG    1       28.033 -20.591   8.062  0.00  0.00    +0.005 A 
ENDROOT
BRANCH   1   7
ATOM      7  C   LIG    1       30.387 -20.100   7.324  0.00  0.00    +0.065 C 
BRANCH   7   8
ATOM      8  CA  LIG    1       30.817 -20.275   8.794  0.00  0.00    +0.165 C 
BRANCH   8   9
ATOM      9  N   LIG    1       31.921 -19.366   9.223  0.00  0.00    -0.318 NA
ATOM     10  H1  LIG    1       31.727 -19.097  10.195  0.00  0.00    +0.119 HD
ATOM     11  H2  LIG    1       32.783 -19.914   9.283  0.00  0.00    +0.119 HD
ENDBRANCH   8   9
BRANCH   8  12
ATOM     12  C   LIG    1       31.194 -21.711   9.192  0.00  0.00    +0.322 C 
ATOM     13  O   LIG    1       30.736 -22.350  10.140  0.00  0.00    -0.249 OA
BRANCH  12  14
ATOM     14  OXT LIG    1       32.196 -22.187   8.409  0.00  0.00    -0.479 OA
ATOM     15  HXT LIG    1       32.851 -22.611   9.016  0.00  0.00    +0.295 HD
ENDBRANCH  12  14
ENDBRANCH   8  12
ENDBRANCH   7   8
ENDBRANCH   1   7
BRANCH   4  16
ATOM     16  N   LIG    1       24.728 -20.718   6.308  0.00  0.00    -0.328 N 
BRANCH  16  17
ATOM     17  C   LIG    1       24.094 -20.281   5.041  0.00  0.00    +0.121 C 
BRANCH  17  18
ATOM     18  C   LIG    1       22.626 -19.888   5.237  0.00  0.00    +0.127 C 
ATOM     19 CL   LIG    1       22.294 -18.254   4.603  0.00  0.00    -0.124 Cl
ENDBRANCH  17  18
ENDBRANCH  16  17
BRANCH  16  20
ATOM     20  C   LIG    1       23.853 -21.349   7.327  0.00  0.00    +0.121 C 
BRANCH  20  21
ATOM     21  C   LIG    1       23.466 -22.783   6.957  0.00  0.00    +0.127 C 
ATOM     22 CL   LIG    1       24.898 -23.845   6.905  0.00  0.00    -0.124 Cl
ENDBRANCH  20  21
ENDBRANCH  16  20
ENDBRANCH   4  16
TORSDOF 10
ENDMDL
MODEL 3
REMARK VINA RESULT:      -7.6      1.350      3.196
REMARK  Name = *****
REMARK                            x       y       z     vdW  Elec       q    Type
REMARK                         _______ _______ _______ _____ _____    ______ ____
ROOT
ATOM      1  C   LIG    1       27.976 -19.918   7.475  0.00  0.00    -0.045 A 
ATOM      2  C   LIG    1       27.035 -20.359   8.403  0.00  0.00    +0.005 A 
ATOM      3  C   LIG    1       25.784 -20.843   7.980  0.00  0.00    +0.023 A 
ATOM      4  C   LIG    1       25.404 -20.897   6.627  0.00  0.00    +0.030 A 
ATOM      5  C   LIG    1       26.388 -20.472   5.718  0.00  0.00    +0.023 A 
ATOM      6  C   LIG    1       27.651 -20.019   6.125  0.00  0.00    +0.005 A 
ENDROOT
BRANCH   1   7
ATOM      7  C   LIG    1       29.305 -19.333   7.891  0.00  0.00    +0.065 C 
BRANCH   7   8
ATOM      8  CA  LIG    1       30.491 -20.316   7.942  0.00  0.00    +0.165 C 
BRANCH   8   9
ATOM      9  N   LIG    1       30.095 -21.752   8.037  0.00  0.00    -0.318 NA
ATOM     10  H1  LIG    1       29.991 -22.098   7.076  0.00  0.00    +0.119 HD
ATOM     11  H2  LIG    1       30.889 -22.281   8.407  0.00  0.00    +0.119 HD
ENDBRANCH   8   9
BRANCH   8  12
ATOM     12  C   LIG    1       31.524 -20.028   9.043  0.00  0.00    +0.322 C 
ATOM     13  O   LIG    1       31.767 -18.930   9.547  0.00  0.00    -0.249 OA
BRANCH  12  14
ATOM     14  OXT LIG    1       32.237 -21.142   9.347  0.00  0.00    -0.479 OA
ATOM     15  HXT LIG    1       31.677 -21.679   9.960  0.00  0.00    +0.295 HD
ENDBRANCH  12  14
ENDBRANCH   8  12
ENDBRANCH   7   8
ENDBRANCH   1   7
BRANCH   4  16
ATOM     16  N   LIG    1       24.152 -21.350   6.212  0.00  0.00    -0.328 N 
BRANCH  16  17
ATOM     17  C   LIG    1       23.608 -21.025   4.872  0.00  0.00    +0.121 C 
BRANCH  17  18
ATOM     18  C   LIG    1       22.288 -20.251   4.958  0.00  0.00    +0.127 C 
ATOM     19 CL   LIG    1       22.467 -18.580   4.362  0.00  0.00    -0.124 Cl
ENDBRANCH  17  18
ENDBRANCH  16  17
BRANCH  16  20
ATOM     20  C   LIG    1       23.302 -22.166   7.115  0.00  0.00    +0.121 C 
BRANCH  20  21
ATOM     21  C   LIG    1       23.281 -23.644   6.717  0.00  0.00    +0.127 C 
ATOM     22 CL   LIG    1       24.920 -24.346   6.757  0.00  0.00    -0.124 Cl
ENDBRANCH  20  21
ENDBRANCH  16  20
ENDBRANCH   4  16
TORSDOF 10
ENDMDL
MODEL 4
REMARK VINA RESULT:      -7.4      1.847      3.484
REMARK  Name = *****
REMARK                            x       y       z     vdW  Elec       q    Type
REMARK                         _______ _______ _______ _____ _____    ______ ____
ROOT
ATOM      1  C   LIG    1       27.107 -20.313   7.536  0.00  0.00    -0.045 A 
ATOM      2  C   LIG    1       26.860 -20.494   6.177  0.00  0.00    +0.005 A 
ATOM      3  C   LIG    1       25.629 -21.011   5.735  0.00  0.00    +0.023 A 
ATOM      4  C   LIG    1       24.598 -21.385   6.615  0.00  0.00    +0.030 A 
ATOM      5  C   LIG    1       24.870 -21.161   7.975  0.00  0.00    +0.023 A 
ATOM      6  C   LIG    1       26.080 -20.616   8.426  0.00  0.00    +0.005 A 
ENDROOT
BRANCH   1   7
ATOM      7  C   LIG    1       28.437 -19.820   8.056  0.00  0.00    +0.065 C 
BRANCH   7   8
ATOM      8  CA  LIG    1       29.688 -20.365   7.340  0.00  0.00    +0.165 C 
BRANCH   8   9
ATOM      9  N   LIG    1       30.534 -21.263   8.181  0.00  0.00    -0.318 NA
ATOM     10  H1  LIG    1       31.512 -21.007   8.001  0.00  0.00    +0.119 HD
ATOM     11  H2  LIG    1       30.388 -21.015   9.163  0.00  0.00    +0.119 HD
ENDBRANCH   8   9
BRANCH   8  12
ATOM     12  C   LIG    1       30.595 -19.294   6.715  0.00  0.00    +0.322 C 
ATOM     13  O   LIG    1       30.249 -18.412   5.928  0.00  0.00    -0.249 OA
BRANCH  12  14
ATOM     14  OXT LIG    1       31.892 -19.489   7.065  0.00  0.00    -0.479 OA
ATOM     15  HXT LIG    1       32.069 -20.457   6.967  0.00  0.00    +0.295 HD
ENDBRANCH  12  14
ENDBRANCH   8  12
ENDBRANCH   7   8
ENDBRANCH   1   7
BRANCH   4  16
ATOM     16  N   LIG    1       23.389 -21.924   6.175  0.00  0.00    -0.328 N 
BRANCH  16  17
ATOM     17  C   LIG    1       22.493 -21.185   5.254  0.00  0.00    +0.121 C 
BRANCH  17  18
ATOM     18  C   LIG    1       22.596 -19.668   5.443  0.00  0.00    +0.127 C 
ATOM     19 CL   LIG    1       23.174 -18.861   3.961  0.00  0.00    -0.124 Cl
ENDBRANCH  17  18
ENDBRANCH  16  17
BRANCH  16  20
ATOM     20  C   LIG    1       22.944 -23.264   6.632  0.00  0.00    +0.121 C 
BRANCH  20  21
ATOM     21  C   LIG    1       24.084 -24.286   6.644  0.00  0.00    +0.127 C 
ATOM     22 CL   LIG    1       24.802 -24.470   5.023  0.00  0.00    -0.124 Cl
ENDBRANCH  20  21
ENDBRANCH  16  20
ENDBRANCH   4  16
TORSDOF 10
ENDMDL
MODEL 5
REMARK VINA RESULT:      -7.3      4.936      6.948
REMARK  Name = *****
REMARK                            x       y       z     vdW  Elec       q    Type
REMARK                         _______ _______ _______ _____ _____    ______ ____
ROOT
ATOM      1  C   LIG    1       24.761 -25.730   6.203  0.00  0.00    -0.045 A 
ATOM      2  C   LIG    1       25.947 -25.090   6.557  0.00  0.00    +0.005 A 
ATOM      3  C   LIG    1       25.934 -23.760   7.016  0.00  0.00    +0.023 A 
ATOM      4  C   LIG    1       24.754 -23.004   7.131  0.00  0.00    +0.030 A 
ATOM      5  C   LIG    1       23.575 -23.690   6.794  0.00  0.00    +0.023 A 
ATOM      6  C   LIG    1       23.572 -25.025   6.367  0.00  0.00    +0.005 A 
ENDROOT
BRANCH   1   7
ATOM      7  C   LIG    1       24.738 -27.134   5.647  0.00  0.00    +0.065 C 
BRANCH   7   8
ATOM      8  CA  LIG    1       24.668 -28.272   6.684  0.00  0.00    +0.165 C 
BRANCH   8   9
ATOM      9  N   LIG    1       25.916 -28.453   7.483  0.00  0.00    -0.318 NA
ATOM     10  H1  LIG    1       26.675 -27.998   6.961  0.00  0.00    +0.119 HD
ATOM     11  H2  LIG    1       25.834 -27.896   8.337  0.00  0.00    +0.119 HD
ENDBRANCH   8   9
BRANCH   8  12
ATOM     12  C   LIG    1       24.258 -29.641   6.117  0.00  0.00    +0.322 C 
ATOM     13  O   LIG    1       24.889 -30.693   6.220  0.00  0.00    -0.249 OA
BRANCH  12  14
ATOM     14  OXT LIG    1       23.123 -29.541   5.377  0.00  0.00    -0.479 OA
ATOM     15  HXT LIG    1       22.463 -29.061   5.935  0.00  0.00    +0.295 HD
ENDBRANCH  12  14
ENDBRANCH   8  12
ENDBRANCH   7   8
ENDBRANCH   1   7
BRANCH   4  16
ATOM     16  N   LIG    1       24.747 -21.676   7.558  0.00  0.00    -0.328 N 
BRANCH  16  17
ATOM     17  C   LIG    1       25.788 -21.144   8.470  0.00  0.00    +0.121 C 
BRANCH  17  18
ATOM     18  C   LIG    1       26.867 -20.358   7.716  0.00  0.00    +0.127 C 
ATOM     19 CL   LIG    1       28.397 -21.268   7.623  0.00  0.00    -0.124 Cl
ENDBRANCH  17  18
ENDBRANCH  16  17
BRANCH  16  20
ATOM     20  C   LIG    1       23.676 -20.744   7.127  0.00  0.00    +0.121 C 
BRANCH  20  21
ATOM     21  C   LIG    1       23.770 -20.395   5.639  0.00  0.00    +0.127 C 
ATOM     22 CL   LIG    1       22.457 -19.292   5.151  0.00  0.00    -0.124 Cl
ENDBRANCH  20  21
ENDBRANCH  16  20
ENDBRANCH   4  16
TORSDOF 10
ENDMDL
MODEL 6
REMARK VINA RESULT:      -7.3      4.938      7.262
REMARK  Name = *****
REMARK                            x       y       z     vdW  Elec       q    Type
REMARK                         _______ _______ _______ _____ _____    ______ ____
ROOT
ATOM      1  C   LIG    1       24.793 -25.735   6.178  0.00  0.00    -0.045 A 
ATOM      2  C   LIG    1       25.968 -25.077   6.537  0.00  0.00    +0.005 A 
ATOM      3  C   LIG    1       25.932 -23.751   7.004  0.00  0.00    +0.023 A 
ATOM      4  C   LIG    1       24.740 -23.015   7.122  0.00  0.00    +0.030 A 
ATOM      5  C   LIG    1       23.573 -23.719   6.780  0.00  0.00    +0.023 A 
ATOM      6  C   LIG    1       23.592 -25.051   6.345  0.00  0.00    +0.005 A 
ENDROOT
BRANCH   1   7
ATOM      7  C   LIG    1       24.794 -27.136   5.614  0.00  0.00    +0.065 C 
BRANCH   7   8
ATOM      8  CA  LIG    1       24.664 -28.279   6.639  0.00  0.00    +0.165 C 
BRANCH   8   9
ATOM      9  N   LIG    1       25.840 -28.427   7.547  0.00  0.00    -0.318 NA
ATOM     10  H1  LIG    1       25.739 -29.331   8.023  0.00  0.00    +0.119 HD
ATOM     11  H2  LIG    1       26.678 -28.541   6.972  0.00  0.00    +0.119 HD
ENDBRANCH   8   9
BRANCH   8  12
ATOM     12  C   LIG    1       24.346 -29.657   6.035  0.00  0.00    +0.322 C 
ATOM     13  O   LIG    1       25.104 -30.627   5.990  0.00  0.00    -0.249 OA
BRANCH  12  14
ATOM     14  OXT LIG    1       23.122 -29.660   5.448  0.00  0.00    -0.479 OA
ATOM     15  HXT LIG    1       23.183 -29.062   4.663  0.00  0.00    +0.295 HD
ENDBRANCH  12  14
ENDBRANCH   8  12
ENDBRANCH   7   8
ENDBRANCH   1   7
BRANCH   4  16
ATOM     16  N   LIG    1       24.711 -21.690   7.558  0.00  0.00    -0.328 N 
BRANCH  16  17
ATOM     17  C   LIG    1       23.658 -20.745   7.115  0.00  0.00    +0.121 C 
BRANCH  17  18
ATOM     18  C   LIG    1       23.775 -20.408   5.625  0.00  0.00    +0.127 C 
ATOM     19 CL   LIG    1       22.462 -19.326   5.092  0.00  0.00    -0.124 Cl
ENDBRANCH  17  18
ENDBRANCH  16  17
BRANCH  16  20
ATOM     20  C   LIG    1       25.755 -21.169   8.475  0.00  0.00    +0.121 C 
BRANCH  20  21
ATOM     21  C   LIG    1       26.827 -20.361   7.739  0.00  0.00    +0.127 C 
ATOM     22 CL   LIG    1       28.379 -21.239   7.695  0.00  0.00    -0.124 Cl
ENDBRANCH  20  21
ENDBRANCH  16  20
ENDBRANCH   4  16
TORSDOF 10
ENDMDL
MODEL 7
REMARK VINA RESULT:      -7.1      2.028      2.243
REMARK  Name = *****
REMARK                            x       y       z     vdW  Elec       q    Type
REMARK                         _______ _______ _______ _____ _____    ______ ____
ROOT
ATOM      1  C   LIG    1       29.226 -19.650   7.472  0.00  0.00    -0.045 A 
ATOM      2  C   LIG    1       28.958 -19.553   6.108  0.00  0.00    +0.005 A 
ATOM      3  C   LIG    1       27.698 -19.915   5.599  0.00  0.00    +0.023 A 
ATOM      4  C   LIG    1       26.657 -20.401   6.410  0.00  0.00    +0.030 A 
ATOM      5  C   LIG    1       26.953 -20.457   7.782  0.00  0.00    +0.023 A 
ATOM      6  C   LIG    1       28.193 -20.068   8.306  0.00  0.00    +0.005 A 
ENDROOT
BRANCH   1   7
ATOM      7  C   LIG    1       30.584 -19.332   8.051  0.00  0.00    +0.065 C 
BRANCH   7   8
ATOM      8  CA  LIG    1       30.762 -17.910   8.620  0.00  0.00    +0.165 C 
BRANCH   8   9
ATOM      9  N   LIG    1       32.087 -17.291   8.321  0.00  0.00    -0.318 NA
ATOM     10  H1  LIG    1       32.679 -18.028   7.920  0.00  0.00    +0.119 HD
ATOM     11  H2  LIG    1       31.965 -16.625   7.554  0.00  0.00    +0.119 HD
ENDBRANCH   8   9
BRANCH   8  12
ATOM     12  C   LIG    1       30.498 -17.779  10.128  0.00  0.00    +0.322 C 
ATOM     13  O   LIG    1       30.526 -18.690  10.957  0.00  0.00    -0.249 OA
BRANCH  12  14
ATOM     14  OXT LIG    1       30.120 -16.515  10.448  0.00  0.00    -0.479 OA
ATOM     15  HXT LIG    1       29.174 -16.565  10.732  0.00  0.00    +0.295 HD
ENDBRANCH  12  14
ENDBRANCH   8  12
ENDBRANCH   7   8
ENDBRANCH   1   7
BRANCH   4  16
ATOM     16  N   LIG    1       25.418 -20.786   5.898  0.00  0.00    -0.328 N 
BRANCH  16  17
ATOM     17  C   LIG    1       24.389 -21.432   6.746  0.00  0.00    +0.121 C 
BRANCH  17  18
ATOM     18  C   LIG    1       24.274 -22.935   6.470  0.00  0.00    +0.127 C 
ATOM     19 CL   LIG    1       25.625 -23.841   7.200  0.00  0.00    -0.124 Cl
ENDBRANCH  17  18
ENDBRANCH  16  17
BRANCH  16  20
ATOM     20  C   LIG    1       25.091 -20.579   4.465  0.00  0.00    +0.121 C 
BRANCH  20  21
ATOM     21  C   LIG    1       24.309 -19.284   4.227  0.00  0.00    +0.127 C 
ATOM     22 CL   LIG    1       22.582 -19.491   4.622  0.00  0.00    -0.124 Cl
ENDBRANCH  20  21
ENDBRANCH  16  20
ENDBRANCH   4  16
TORSDOF 10
ENDMDL
MODEL 8
REMARK VINA RESULT:      -7.1      2.096      3.155
REMARK  Name = *****
REMARK                            x       y       z     vdW  Elec       q    Type
REMARK                         _______ _______ _______ _____ _____    ______ ____
ROOT
ATOM      1  C   LIG    1       29.293 -19.532   7.360  0.00  0.00    -0.045 A 
ATOM      2  C   LIG    1       28.901 -19.380   6.032  0.00  0.00    +0.005 A 
ATOM      3  C   LIG    1       27.616 -19.770   5.615  0.00  0.00    +0.023 A 
ATOM      4  C   LIG    1       26.671 -20.339   6.487  0.00  0.00    +0.030 A 
ATOM      5  C   LIG    1       27.089 -20.450   7.823  0.00  0.00    +0.023 A 
ATOM      6  C   LIG    1       28.355 -20.035   8.258  0.00  0.00    +0.005 A 
ENDROOT
BRANCH   1   7
ATOM      7  C   LIG    1       30.684 -19.184   7.835  0.00  0.00    +0.065 C 
BRANCH   7   8
ATOM      8  CA  LIG    1       30.834 -17.836   8.566  0.00  0.00    +0.165 C 
BRANCH   8   9
ATOM      9  N   LIG    1       32.147 -17.160   8.346  0.00  0.00    -0.318 NA
ATOM     10  H1  LIG    1       32.753 -17.835   7.864  0.00  0.00    +0.119 HD
ATOM     11  H2  LIG    1       32.013 -16.413   7.661  0.00  0.00    +0.119 HD
ENDBRANCH   8   9
BRANCH   8  12
ATOM     12  C   LIG    1       30.564 -17.885  10.078  0.00  0.00    +0.322 C 
ATOM     13  O   LIG    1       30.654 -18.876  10.804  0.00  0.00    -0.249 OA
BRANCH  12  14
ATOM     14  OXT LIG    1       30.105 -16.690  10.530  0.00  0.00    -0.479 OA
ATOM     15  HXT LIG    1       29.164 -16.832  10.801  0.00  0.00    +0.295 HD
ENDBRANCH  12  14
ENDBRANCH   8  12
ENDBRANCH   7   8
ENDBRANCH   1   7
BRANCH   4  16
ATOM     16  N   LIG    1       25.407 -20.752   6.064  0.00  0.00    -0.328 N 
BRANCH  16  17
ATOM     17  C   LIG    1       25.122 -21.064   4.644  0.00  0.00    +0.121 C 
BRANCH  17  18
ATOM     18  C   LIG    1       23.789 -20.468   4.179  0.00  0.00    +0.127 C 
ATOM     19 CL   LIG    1       23.960 -18.750   3.730  0.00  0.00    -0.124 Cl
ENDBRANCH  17  18
ENDBRANCH  16  17
BRANCH  16  20
ATOM     20  C   LIG    1       24.286 -20.876   7.029  0.00  0.00    +0.121 C 
BRANCH  20  21
ATOM     21  C   LIG    1       24.066 -22.321   7.485  0.00  0.00    +0.127 C 
ATOM     22 CL   LIG    1       22.655 -23.047   6.671  0.00  0.00    -0.124 Cl
ENDBRANCH  20  21
ENDBRANCH  16  20
ENDBRANCH   4  16
TORSDOF 10
ENDMDL
MODEL 9
REMARK VINA RESULT:      -6.9      1.886      2.534
REMARK  Name = *****
REMARK                            x       y       z     vdW  Elec       q    Type
REMARK                         _______ _______ _______ _____ _____    ______ ____
ROOT
ATOM      1  C   LIG    1       27.481 -20.270   7.844  0.00  0.00    -0.045 A 
ATOM      2  C   LIG    1       26.435 -20.537   8.725  0.00  0.00    +0.005 A 
ATOM      3  C   LIG    1       25.172 -20.922   8.241  0.00  0.00    +0.023 A 
ATOM      4  C   LIG    1       24.884 -21.044   6.870  0.00  0.00    +0.030 A 
ATOM      5  C   LIG    1       25.969 -20.797   6.013  0.00  0.00    +0.023 A 
ATOM      6  C   LIG    1       27.242 -20.445   6.484  0.00  0.00    +0.005 A 
ENDROOT
BRANCH   1   7
ATOM      7  C   LIG    1       28.833 -19.794   8.319  0.00  0.00    +0.065 C 
BRANCH   7   8
ATOM      8  CA  LIG    1       30.039 -20.206   7.453  0.00  0.00    +0.165 C 
BRANCH   8   9
ATOM      9  N   LIG    1       31.067 -21.013   8.175  0.00  0.00    -0.318 NA
ATOM     10  H1  LIG    1       31.971 -20.812   7.731  0.00  0.00    +0.119 HD
ATOM     11  H2  LIG    1       31.165 -20.635   9.120  0.00  0.00    +0.119 HD
ENDBRANCH   8   9
BRANCH   8  12
ATOM     12  C   LIG    1       30.751 -19.045   6.740  0.00  0.00    +0.322 C 
ATOM     13  O   LIG    1       30.345 -18.439   5.747  0.00  0.00    -0.249 OA
BRANCH  12  14
ATOM     14  OXT LIG    1       31.971 -18.811   7.287  0.00  0.00    -0.479 OA
ATOM     15  HXT LIG    1       32.638 -18.993   6.581  0.00  0.00    +0.295 HD
ENDBRANCH  12  14
ENDBRANCH   8  12
ENDBRANCH   7   8
ENDBRANCH   1   7
BRANCH   4  16
ATOM     16  N   LIG    1       23.622 -21.398   6.393  0.00  0.00    -0.328 N 
BRANCH  16  17
ATOM     17  C   LIG    1       23.046 -22.743   6.629  0.00  0.00    +0.121 C 
BRANCH  17  18
ATOM     18  C   LIG    1       24.126 -23.826   6.716  0.00  0.00    +0.127 C 
ATOM     19 CL   LIG    1       24.889 -24.119   5.130  0.00  0.00    -0.124 Cl
ENDBRANCH  17  18
ENDBRANCH  16  17
BRANCH  16  20
ATOM     20  C   LIG    1       22.810 -20.436   5.606  0.00  0.00    +0.121 C 
BRANCH  20  21
ATOM     21  C   LIG    1       23.173 -20.447   4.118  0.00  0.00    +0.127 C 
ATOM     22 CL   LIG    1       23.984 -18.932   3.641  0.00  0.00    -0.124 Cl
ENDBRANCH  20  21
ENDBRANCH  16  20
ENDBRANCH   4  16
TORSDOF 10
ENDMDL
