MODEL 1
REMARK VINA RESULT:       6.5      0.000      0.000
REMARK  Name = *****
REMARK                            x       y       z     vdW  Elec       q    Type
REMARK                         _______ _______ _______ _____ _____    ______ ____
ROOT
ATOM      1  C   LIG    1       24.263 -19.120   4.018  0.00  0.00    +0.111 C 
ATOM      2  C   LIG    1       25.785 -19.034   4.107  0.00  0.00    -0.005 C 
ATOM      3  C   LIG    1       26.413 -19.774   5.114  0.00  0.00    +0.009 C 
ATOM      4  C   LIG    1       27.780 -19.731   5.332  0.00  0.00    +0.049 C 
ATOM      5  C   LIG    1       28.610 -18.941   4.530  0.00  0.00    +0.026 C 
ATOM      6  C   LIG    1       27.992 -18.173   3.529  0.00  0.00    +0.002 C 
ATOM      7  N   LIG    1       28.008 -20.550   6.420  0.00  0.00    -0.349 NA
ATOM      8  C   LIG    1       29.292 -20.751   7.052  0.00  0.00    +0.149 C 
ATOM      9  C   LIG    1       26.824 -21.098   6.868  0.00  0.00    +0.090 C 
ATOM     10  C   LIG    1       25.812 -20.616   6.070  0.00  0.00    -0.020 C 
ATOM     11  C   LIG    1       24.330 -20.785   6.093  0.00  0.00    +0.059 C 
ATOM     12  C   LIG    1       26.606 -18.207   3.326  0.00  0.00    +0.007 C 
ATOM     13  C   LIG    1       23.690 -20.460   4.692  0.00  0.00    +0.097 C 
ATOM     14  N   LIG    1       22.212 -20.498   4.877  0.00  0.00    -0.299 NA
ATOM     15  C   LIG    1       21.564 -21.567   4.127  0.00  0.00    +0.105 C 
ATOM     16  C   LIG    1       21.538 -19.223   4.626  0.00  0.00    +0.091 C 
ATOM     17  C   LIG    1       22.268 -18.066   5.298  0.00  0.00    +0.044 C 
ATOM     18  C   LIG    1       23.697 -17.875   4.751  0.00  0.00    +0.049 C 
ENDROOT
BRANCH   1  20
ATOM     19  C   LIG    1       23.949 -20.165   1.836  0.00  0.00    +0.195 C 
ATOM     20  O   LIG    1       23.841 -18.992   2.636  0.00  0.00    -0.370 OA
ENDBRANCH   1  20
BRANCH  17  21
ATOM     21  C   LIG    1       21.439 -16.783   5.181  0.00  0.00    +0.237 C 
BRANCH  21  22
ATOM     22  O   LIG    1       22.164 -15.810   4.417  0.00  0.00    -0.461 OA
BRANCH  22  23
ATOM     23  C   LIG    1       22.810 -14.847   5.119  0.00  0.00    +0.341 C 
ATOM     24  O   LIG    1       22.599 -14.503   6.266  0.00  0.00    -0.245 OA
BRANCH  23  25
ATOM     25  C   LIG    1       23.839 -14.254   4.244  0.00  0.00    +0.078 A 
ATOM     26  C   LIG    1       25.180 -14.160   4.636  0.00  0.00    +0.033 A 
ATOM     27  C   LIG    1       26.100 -13.601   3.761  0.00  0.00    +0.037 A 
ATOM     28 BR   LIG    1       27.916 -13.472   4.250  0.00  0.00    -0.049 Br
ATOM     29  C   LIG    1       25.654 -13.146   2.529  0.00  0.00    +0.126 A 
ATOM     30  N   LIG    1       24.360 -13.210   2.128  0.00  0.00    -0.261 NA
ATOM     31  C   LIG    1       23.476 -13.760   3.002  0.00  0.00    +0.125 A 
ENDBRANCH  23  25
ENDBRANCH  22  23
ENDBRANCH  21  22
ENDBRANCH  17  21
TORSDOF 5
ENDMDL
