MODEL 1
REMARK VINA RESULT:      -4.5      0.000      0.000
REMARK  Name = *****
REMARK                            x       y       z     vdW  Elec       q    Type
REMARK                         _______ _______ _______ _____ _____    ______ ____
ROOT
ATOM      1  C   LIG    1       24.429 -14.049   3.732  0.00  0.00    +0.128 C 
ENDROOT
BRANCH   1   2
ATOM      2  C   LIG    1       24.023 -12.705   3.164  0.00  0.00    +0.305 C 
ATOM      3  O   LIG    1       23.706 -11.749   3.851  0.00  0.00    -0.251 OA
BRANCH   2   4
ATOM      4  O   LIG    1       24.052 -12.661   1.813  0.00  0.00    -0.481 OA
ATOM      5  H   LIG    1       23.623 -11.865   1.425  0.00  0.00    +0.295 HD
ENDBRANCH   2   4
ENDBRANCH   1   2
BRANCH   1   6
ATOM      6  C   LIG    1       25.854 -14.064   4.269  0.00  0.00    +0.085 C 
BRANCH   6   8
ATOM      7  C   LIG    1       28.269 -13.467   3.597  0.00  0.00    +0.086 C 
ATOM      8  C   LIG    1       26.908 -13.981   3.182  0.00  0.00    +0.131 C 
ATOM      9  O   LIG    1       26.652 -14.301   2.019  0.00  0.00    -0.298 OA
ENDBRANCH   6   8
ENDBRANCH   1   6
TORSDOF 4
ENDMDL
MODEL 2
REMARK VINA RESULT:      -4.4      1.145      3.609
REMARK  Name = *****
REMARK                            x       y       z     vdW  Elec       q    Type
REMARK                         _______ _______ _______ _____ _____    ______ ____
ROOT
ATOM      1  C   LIG    1       26.702 -14.364   4.260  0.00  0.00    +0.128 C 
ENDROOT
BRANCH   1   2
ATOM      2  C   LIG    1       27.239 -13.952   2.905  0.00  0.00    +0.305 C 
ATOM      3  O   LIG    1       26.718 -14.265   1.849  0.00  0.00    -0.251 OA
BRANCH   2   4
ATOM      4  O   LIG    1       28.354 -13.191   2.978  0.00  0.00    -0.481 OA
ATOM      5  H   LIG    1       28.222 -12.254   2.709  0.00  0.00    +0.295 HD
ENDBRANCH   2   4
ENDBRANCH   1   2
BRANCH   1   6
ATOM      6  C   LIG    1       25.804 -13.309   4.892  0.00  0.00    +0.085 C 
BRANCH   6   8
ATOM      7  C   LIG    1       23.694 -14.599   4.167  0.00  0.00    +0.086 C 
ATOM      8  C   LIG    1       24.408 -13.272   4.302  0.00  0.00    +0.131 C 
ATOM      9  O   LIG    1       23.898 -12.210   3.937  0.00  0.00    -0.298 OA
ENDBRANCH   6   8
ENDBRANCH   1   6
TORSDOF 4
ENDMDL
MODEL 3
REMARK VINA RESULT:      -4.3      2.288      3.852
REMARK  Name = *****
REMARK                            x       y       z     vdW  Elec       q    Type
REMARK                         _______ _______ _______ _____ _____    ______ ____
ROOT
ATOM      1  C   LIG    1       27.166 -13.333   5.069  0.00  0.00    +0.128 C 
ENDROOT
BRANCH   1   2
ATOM      2  C   LIG    1       28.510 -12.748   4.689  0.00  0.00    +0.305 C 
ATOM      3  O   LIG    1       29.108 -13.038   3.668  0.00  0.00    -0.251 OA
BRANCH   2   4
ATOM      4  O   LIG    1       28.985 -11.860   5.592  0.00  0.00    -0.481 OA
ATOM      5  H   LIG    1       29.602 -12.248   6.254  0.00  0.00    +0.295 HD
ENDBRANCH   2   4
ENDBRANCH   1   2
BRANCH   1   6
ATOM      6  C   LIG    1       26.739 -14.483   4.167  0.00  0.00    +0.085 C 
BRANCH   6   8
ATOM      7  C   LIG    1       24.523 -13.505   3.288  0.00  0.00    +0.086 C 
ATOM      8  C   LIG    1       25.904 -14.041   2.981  0.00  0.00    +0.131 C 
ATOM      9  O   LIG    1       26.333 -14.136   1.828  0.00  0.00    -0.298 OA
ENDBRANCH   6   8
ENDBRANCH   1   6
TORSDOF 4
ENDMDL
MODEL 4
REMARK VINA RESULT:      -4.1      1.697      3.692
REMARK  Name = *****
REMARK                            x       y       z     vdW  Elec       q    Type
REMARK                         _______ _______ _______ _____ _____    ______ ____
ROOT
ATOM      1  C   LIG    1       26.823 -14.281   2.947  0.00  0.00    +0.128 C 
ENDROOT
BRANCH   1   2
ATOM      2  C   LIG    1       27.805 -13.538   3.830  0.00  0.00    +0.305 C 
ATOM      3  O   LIG    1       27.569 -13.220   4.983  0.00  0.00    -0.251 OA
BRANCH   2   4
ATOM      4  O   LIG    1       28.979 -13.265   3.218  0.00  0.00    -0.481 OA
ATOM      5  H   LIG    1       29.702 -13.898   3.430  0.00  0.00    +0.295 HD
ENDBRANCH   2   4
ENDBRANCH   1   2
BRANCH   1   6
ATOM      6  C   LIG    1       25.765 -13.373   2.336  0.00  0.00    +0.085 C 
BRANCH   6   8
ATOM      7  C   LIG    1       24.143 -14.420   4.043  0.00  0.00    +0.086 C 
ATOM      8  C   LIG    1       24.526 -13.225   3.199  0.00  0.00    +0.131 C 
ATOM      9  O   LIG    1       23.864 -12.184   3.190  0.00  0.00    -0.298 OA
ENDBRANCH   6   8
ENDBRANCH   1   6
TORSDOF 4
ENDMDL
MODEL 5
REMARK VINA RESULT:      -4.1      1.258      3.551
REMARK  Name = *****
REMARK                            x       y       z     vdW  Elec       q    Type
REMARK                         _______ _______ _______ _____ _____    ______ ____
ROOT
ATOM      1  C   LIG    1       26.670 -14.297   4.382  0.00  0.00    +0.128 C 
ENDROOT
BRANCH   1   2
ATOM      2  C   LIG    1       27.569 -13.833   3.255  0.00  0.00    +0.305 C 
ATOM      3  O   LIG    1       28.655 -13.308   3.431  0.00  0.00    -0.251 OA
BRANCH   2   4
ATOM      4  O   LIG    1       27.054 -14.064   2.026  0.00  0.00    -0.481 OA
ATOM      5  H   LIG    1       27.334 -14.919   1.625  0.00  0.00    +0.295 HD
ENDBRANCH   2   4
ENDBRANCH   1   2
BRANCH   1   6
ATOM      6  C   LIG    1       25.471 -13.385   4.604  0.00  0.00    +0.085 C 
BRANCH   6   8
ATOM      7  C   LIG    1       23.396 -14.899   4.396  0.00  0.00    +0.086 C 
ATOM      8  C   LIG    1       24.247 -13.795   3.808  0.00  0.00    +0.131 C 
ATOM      9  O   LIG    1       23.979 -13.260   2.729  0.00  0.00    -0.298 OA
ENDBRANCH   6   8
ENDBRANCH   1   6
TORSDOF 4
ENDMDL
MODEL 6
REMARK VINA RESULT:      -4.1      6.727      7.819
REMARK  Name = *****
REMARK                            x       y       z     vdW  Elec       q    Type
REMARK                         _______ _______ _______ _____ _____    ______ ____
ROOT
ATOM      1  C   LIG    1       24.827 -21.285   5.632  0.00  0.00    +0.128 C 
ENDROOT
BRANCH   1   2
ATOM      2  C   LIG    1       26.106 -20.531   5.933  0.00  0.00    +0.305 C 
ATOM      3  O   LIG    1       26.487 -20.272   7.062  0.00  0.00    -0.251 OA
BRANCH   2   4
ATOM      4  O   LIG    1       26.796 -20.178   4.825  0.00  0.00    -0.481 OA
ATOM      5  H   LIG    1       26.376 -19.459   4.300  0.00  0.00    +0.295 HD
ENDBRANCH   2   4
ENDBRANCH   1   2
BRANCH   1   6
ATOM      6  C   LIG    1       23.587 -20.404   5.695  0.00  0.00    +0.085 C 
BRANCH   6   8
ATOM      7  C   LIG    1       22.230 -18.590   4.466  0.00  0.00    +0.086 C 
ATOM      8  C   LIG    1       23.346 -19.609   4.426  0.00  0.00    +0.131 C 
ATOM      9  O   LIG    1       24.023 -19.806   3.413  0.00  0.00    -0.298 OA
ENDBRANCH   6   8
ENDBRANCH   1   6
TORSDOF 4
ENDMDL
MODEL 7
REMARK VINA RESULT:      -4.0      6.913      7.836
REMARK  Name = *****
REMARK                            x       y       z     vdW  Elec       q    Type
REMARK                         _______ _______ _______ _____ _____    ______ ____
ROOT
ATOM      1  C   LIG    1       25.013 -20.841   4.577  0.00  0.00    +0.128 C 
ENDROOT
BRANCH   1   2
ATOM      2  C   LIG    1       26.093 -20.402   5.544  0.00  0.00    +0.305 C 
ATOM      3  O   LIG    1       25.942 -20.368   6.753  0.00  0.00    -0.251 OA
BRANCH   2   4
ATOM      4  O   LIG    1       27.250 -20.056   4.937  0.00  0.00    -0.481 OA
ATOM      5  H   LIG    1       27.134 -19.517   4.122  0.00  0.00    +0.295 HD
ENDBRANCH   2   4
ENDBRANCH   1   2
BRANCH   1   6
ATOM      6  C   LIG    1       24.201 -19.680   4.021  0.00  0.00    +0.085 C 
BRANCH   6   8
ATOM      7  C   LIG    1       22.147 -18.203   4.513  0.00  0.00    +0.086 C 
ATOM      8  C   LIG    1       22.829 -19.546   4.654  0.00  0.00    +0.131 C 
ATOM      9  O   LIG    1       22.315 -20.486   5.265  0.00  0.00    -0.298 OA
ENDBRANCH   6   8
ENDBRANCH   1   6
TORSDOF 4
ENDMDL
MODEL 8
REMARK VINA RESULT:      -4.0      6.465      7.574
REMARK  Name = *****
REMARK                            x       y       z     vdW  Elec       q    Type
REMARK                         _______ _______ _______ _____ _____    ______ ____
ROOT
ATOM      1  C   LIG    1       24.249 -20.178   3.394  0.00  0.00    +0.128 C 
ENDROOT
BRANCH   1   2
ATOM      2  C   LIG    1       25.485 -19.374   3.740  0.00  0.00    +0.305 C 
ATOM      3  O   LIG    1       25.639 -18.206   3.428  0.00  0.00    -0.251 OA
BRANCH   2   4
ATOM      4  O   LIG    1       26.404 -20.076   4.439  0.00  0.00    -0.481 OA
ATOM      5  H   LIG    1       26.033 -20.832   4.949  0.00  0.00    +0.295 HD
ENDBRANCH   2   4
ENDBRANCH   1   2
BRANCH   1   6
ATOM      6  C   LIG    1       23.796 -21.094   4.523  0.00  0.00    +0.085 C 
BRANCH   6   8
ATOM      7  C   LIG    1       23.407 -20.875   7.061  0.00  0.00    +0.086 C 
ATOM      8  C   LIG    1       23.130 -20.355   5.668  0.00  0.00    +0.131 C 
ATOM      9  O   LIG    1       22.389 -19.392   5.459  0.00  0.00    -0.298 OA
ENDBRANCH   6   8
ENDBRANCH   1   6
TORSDOF 4
ENDMDL
MODEL 9
REMARK VINA RESULT:      -4.0      1.424      1.440
REMARK  Name = *****
REMARK                            x       y       z     vdW  Elec       q    Type
REMARK                         _______ _______ _______ _____ _____    ______ ____
ROOT
ATOM      1  C   LIG    1       24.450 -14.268   4.047  0.00  0.00    +0.128 C 
ENDROOT
BRANCH   1   2
ATOM      2  C   LIG    1       24.027 -12.916   3.512  0.00  0.00    +0.305 C 
ATOM      3  O   LIG    1       23.839 -11.940   4.217  0.00  0.00    -0.251 OA
BRANCH   2   4
ATOM      4  O   LIG    1       23.884 -12.890   2.168  0.00  0.00    -0.481 OA
ATOM      5  H   LIG    1       24.405 -12.185   1.719  0.00  0.00    +0.295 HD
ENDBRANCH   2   4
ENDBRANCH   1   2
BRANCH   1   6
ATOM      6  C   LIG    1       25.879 -14.637   3.674  0.00  0.00    +0.085 C 
BRANCH   6   8
ATOM      7  C   LIG    1       28.177 -13.471   3.684  0.00  0.00    +0.086 C 
ATOM      8  C   LIG    1       26.924 -13.851   4.442  0.00  0.00    +0.131 C 
ATOM      9  O   LIG    1       26.757 -13.557   5.628  0.00  0.00    -0.298 OA
ENDBRANCH   6   8
ENDBRANCH   1   6
TORSDOF 4
ENDMDL
