MODEL 1
REMARK VINA RESULT:      -6.3      0.000      0.000
REMARK  Name = *****
REMARK                            x       y       z     vdW  Elec       q    Type
REMARK                         _______ _______ _______ _____ _____    ______ ____
ROOT
ATOM      1  C   LIG    1       29.399 -18.495   5.971  0.00  0.00    +0.086 C 
ATOM      2  C   LIG    1       29.566 -19.719   6.799  0.00  0.00    +0.112 A 
ATOM      3  N   LIG    1       30.589 -19.929   7.717  0.00  0.00    -0.268 N 
ATOM      4  C   LIG    1       30.372 -21.182   8.247  0.00  0.00    +0.368 A 
ATOM      5  C   LIG    1       29.239 -21.666   7.644  0.00  0.00    +0.217 A 
ATOM      6  N   LIG    1       28.749 -20.756   6.754  0.00  0.00    -0.234 NA
ENDROOT
BRANCH   4   7
ATOM      7  N   LIG    1       31.166 -21.846   9.222  0.00  0.00    +0.100 N 
ATOM      8  O   LIG    1       30.740 -21.890  10.384  0.00  0.00    -0.575 OA
ATOM      9  O   LIG    1       32.238 -22.323   8.835  0.00  0.00    +0.043 OA
ENDBRANCH   4   7
BRANCH   3  10
ATOM     10  C   LIG    1       31.626 -18.957   8.052  0.00  0.00    +0.160 C 
BRANCH  10  11
ATOM     11  C   LIG    1       31.210 -17.979   9.161  0.00  0.00    +0.131 C 
ATOM     12  C   LIG    1       32.306 -16.956   9.444  0.00  0.00    +0.039 C 
BRANCH  11  13
ATOM     13  O   LIG    1       30.974 -18.700  10.370  0.00  0.00    -0.390 OA
ATOM     14  H   LIG    1       30.125 -18.394  10.737  0.00  0.00    +0.210 HD
ENDBRANCH  11  13
ENDBRANCH  10  11
ENDBRANCH   3  10
TORSDOF 4
ENDMDL
MODEL 2
REMARK VINA RESULT:      -6.1      1.564      3.362
REMARK  Name = *****
REMARK                            x       y       z     vdW  Elec       q    Type
REMARK                         _______ _______ _______ _____ _____    ______ ____
ROOT
ATOM      1  C   LIG    1       29.288 -18.452   5.978  0.00  0.00    +0.086 C 
ATOM      2  C   LIG    1       30.172 -19.077   6.998  0.00  0.00    +0.112 A 
ATOM      3  N   LIG    1       30.044 -20.376   7.477  0.00  0.00    -0.268 N 
ATOM      4  C   LIG    1       31.050 -20.539   8.405  0.00  0.00    +0.368 A 
ATOM      5  C   LIG    1       31.739 -19.354   8.440  0.00  0.00    +0.217 A 
ATOM      6  N   LIG    1       31.191 -18.459   7.568  0.00  0.00    -0.234 NA
ENDROOT
BRANCH   4   7
ATOM      7  N   LIG    1       31.318 -21.702   9.177  0.00  0.00    +0.100 N 
ATOM      8  O   LIG    1       30.695 -21.848  10.238  0.00  0.00    -0.575 OA
ATOM      9  O   LIG    1       32.167 -22.481   8.734  0.00  0.00    +0.043 OA
ENDBRANCH   4   7
BRANCH   3  10
ATOM     10  C   LIG    1       29.057 -21.346   7.012  0.00  0.00    +0.160 C 
BRANCH  10  11
ATOM     11  C   LIG    1       27.880 -21.532   7.982  0.00  0.00    +0.131 C 
ATOM     12  C   LIG    1       26.684 -22.179   7.292  0.00  0.00    +0.039 C 
BRANCH  11  13
ATOM     13  O   LIG    1       27.456 -20.259   8.469  0.00  0.00    -0.390 OA
ATOM     14  H   LIG    1       26.578 -20.074   8.090  0.00  0.00    +0.210 HD
ENDBRANCH  11  13
ENDBRANCH  10  11
ENDBRANCH   3  10
TORSDOF 4
ENDMDL
MODEL 3
REMARK VINA RESULT:      -6.0      6.457      7.856
REMARK  Name = *****
REMARK                            x       y       z     vdW  Elec       q    Type
REMARK                         _______ _______ _______ _____ _____    ______ ____
ROOT
ATOM      1  C   LIG    1       26.237 -20.370   7.472  0.00  0.00    +0.086 C 
ATOM      2  C   LIG    1       25.794 -21.771   7.244  0.00  0.00    +0.112 A 
ATOM      3  N   LIG    1       24.483 -22.164   7.000  0.00  0.00    -0.268 N 
ATOM      4  C   LIG    1       24.518 -23.534   6.859  0.00  0.00    +0.368 A 
ATOM      5  C   LIG    1       25.830 -23.906   7.012  0.00  0.00    +0.217 A 
ATOM      6  N   LIG    1       26.609 -22.811   7.248  0.00  0.00    -0.234 NA
ENDROOT
BRANCH   4   7
ATOM      7  N   LIG    1       23.414 -24.395   6.610  0.00  0.00    +0.100 N 
ATOM      8  O   LIG    1       22.279 -23.964   6.851  0.00  0.00    -0.575 OA
ATOM      9  O   LIG    1       23.674 -25.523   6.178  0.00  0.00    +0.043 OA
ENDBRANCH   4   7
BRANCH   3  10
ATOM     10  C   LIG    1       23.347 -21.256   6.872  0.00  0.00    +0.160 C 
BRANCH  10  11
ATOM     11  C   LIG    1       22.976 -20.943   5.415  0.00  0.00    +0.131 C 
ATOM     12  C   LIG    1       22.615 -19.472   5.234  0.00  0.00    +0.039 C 
BRANCH  11  13
ATOM     13  O   LIG    1       21.836 -21.714   5.036  0.00  0.00    -0.390 OA
ATOM     14  H   LIG    1       21.950 -22.611   5.401  0.00  0.00    +0.210 HD
ENDBRANCH  11  13
ENDBRANCH  10  11
ENDBRANCH   3  10
TORSDOF 4
ENDMDL
MODEL 4
REMARK VINA RESULT:      -5.8      5.247      6.973
REMARK  Name = *****
REMARK                            x       y       z     vdW  Elec       q    Type
REMARK                         _______ _______ _______ _____ _____    ______ ____
ROOT
ATOM      1  C   LIG    1       24.070 -20.484   4.048  0.00  0.00    +0.086 C 
ATOM      2  C   LIG    1       25.008 -20.547   5.201  0.00  0.00    +0.112 A 
ATOM      3  N   LIG    1       24.697 -21.061   6.455  0.00  0.00    -0.268 N 
ATOM      4  C   LIG    1       25.836 -20.916   7.217  0.00  0.00    +0.368 A 
ATOM      5  C   LIG    1       26.776 -20.338   6.402  0.00  0.00    +0.217 A 
ATOM      6  N   LIG    1       26.255 -20.115   5.160  0.00  0.00    -0.234 NA
ENDROOT
BRANCH   4   7
ATOM      7  N   LIG    1       26.005 -21.286   8.579  0.00  0.00    +0.100 N 
ATOM      8  O   LIG    1       25.887 -20.401   9.438  0.00  0.00    -0.575 OA
ATOM      9  O   LIG    1       26.269 -22.471   8.805  0.00  0.00    +0.043 OA
ENDBRANCH   4   7
BRANCH   3  10
ATOM     10  C   LIG    1       23.421 -21.671   6.817  0.00  0.00    +0.160 C 
BRANCH  10  11
ATOM     11  C   LIG    1       23.487 -23.201   6.933  0.00  0.00    +0.131 C 
ATOM     12  C   LIG    1       24.497 -23.792   5.954  0.00  0.00    +0.039 C 
BRANCH  11  13
ATOM     13  O   LIG    1       22.210 -23.759   6.620  0.00  0.00    -0.390 OA
ATOM     14  H   LIG    1       21.542 -23.278   7.142  0.00  0.00    +0.210 HD
ENDBRANCH  11  13
ENDBRANCH  10  11
ENDBRANCH   3  10
TORSDOF 4
ENDMDL
MODEL 5
REMARK VINA RESULT:      -5.5      5.772      7.261
REMARK  Name = *****
REMARK                            x       y       z     vdW  Elec       q    Type
REMARK                         _______ _______ _______ _____ _____    ______ ____
ROOT
ATOM      1  C   LIG    1       25.799 -25.233   6.668  0.00  0.00    +0.086 C 
ATOM      2  C   LIG    1       24.667 -24.269   6.690  0.00  0.00    +0.112 A 
ATOM      3  N   LIG    1       24.798 -22.886   6.757  0.00  0.00    -0.268 N 
ATOM      4  C   LIG    1       23.515 -22.384   6.766  0.00  0.00    +0.368 A 
ATOM      5  C   LIG    1       22.675 -23.465   6.696  0.00  0.00    +0.217 A 
ATOM      6  N   LIG    1       23.396 -24.623   6.649  0.00  0.00    -0.234 NA
ENDROOT
BRANCH   4   7
ATOM      7  N   LIG    1       23.135 -21.015   6.839  0.00  0.00    +0.100 N 
ATOM      8  O   LIG    1       22.792 -20.454   5.790  0.00  0.00    -0.575 OA
ATOM      9  O   LIG    1       23.188 -20.482   7.952  0.00  0.00    +0.043 OA
ENDBRANCH   4   7
BRANCH   3  10
ATOM     10  C   LIG    1       26.068 -22.165   6.757  0.00  0.00    +0.160 C 
BRANCH  10  11
ATOM     11  C   LIG    1       26.152 -21.077   7.839  0.00  0.00    +0.131 C 
ATOM     12  C   LIG    1       27.560 -20.499   7.941  0.00  0.00    +0.039 C 
BRANCH  11  13
ATOM     13  O   LIG    1       25.827 -21.641   9.109  0.00  0.00    -0.390 OA
ATOM     14  H   LIG    1       24.862 -21.777   9.135  0.00  0.00    +0.210 HD
ENDBRANCH  11  13
ENDBRANCH  10  11
ENDBRANCH   3  10
TORSDOF 4
ENDMDL
MODEL 6
REMARK VINA RESULT:      -5.5      5.643      7.183
REMARK  Name = *****
REMARK                            x       y       z     vdW  Elec       q    Type
REMARK                         _______ _______ _______ _____ _____    ______ ____
ROOT
ATOM      1  C   LIG    1       22.896 -23.873   6.634  0.00  0.00    +0.086 C 
ATOM      2  C   LIG    1       24.246 -23.290   6.856  0.00  0.00    +0.112 A 
ATOM      3  N   LIG    1       24.542 -21.931   6.834  0.00  0.00    -0.268 N 
ATOM      4  C   LIG    1       25.895 -21.835   7.074  0.00  0.00    +0.368 A 
ATOM      5  C   LIG    1       26.352 -23.117   7.237  0.00  0.00    +0.217 A 
ATOM      6  N   LIG    1       25.327 -24.007   7.102  0.00  0.00    -0.234 NA
ENDROOT
BRANCH   4   7
ATOM      7  N   LIG    1       26.668 -20.643   7.135  0.00  0.00    +0.100 N 
ATOM      8  O   LIG    1       26.950 -20.193   8.254  0.00  0.00    -0.575 OA
ATOM      9  O   LIG    1       26.993 -20.134   6.057  0.00  0.00    +0.043 OA
ENDBRANCH   4   7
BRANCH   3  10
ATOM     10  C   LIG    1       23.563 -20.865   6.647  0.00  0.00    +0.160 C 
BRANCH  10  11
ATOM     11  C   LIG    1       23.561 -20.280   5.227  0.00  0.00    +0.131 C 
ATOM     12  C   LIG    1       22.449 -19.252   5.048  0.00  0.00    +0.039 C 
BRANCH  11  13
ATOM     13  O   LIG    1       23.334 -21.326   4.281  0.00  0.00    -0.390 OA
ATOM     14  H   LIG    1       22.655 -21.016   3.654  0.00  0.00    +0.210 HD
ENDBRANCH  11  13
ENDBRANCH  10  11
ENDBRANCH   3  10
TORSDOF 4
ENDMDL
MODEL 7
REMARK VINA RESULT:      -5.5      4.878      6.325
REMARK  Name = *****
REMARK                            x       y       z     vdW  Elec       q    Type
REMARK                         _______ _______ _______ _____ _____    ______ ____
ROOT
ATOM      1  C   LIG    1       23.276 -21.160   7.036  0.00  0.00    +0.086 C 
ATOM      2  C   LIG    1       24.719 -20.872   7.250  0.00  0.00    +0.112 A 
ATOM      3  N   LIG    1       25.655 -20.691   6.238  0.00  0.00    -0.268 N 
ATOM      4  C   LIG    1       26.857 -20.459   6.870  0.00  0.00    +0.368 A 
ATOM      5  C   LIG    1       26.600 -20.499   8.217  0.00  0.00    +0.217 A 
ATOM      6  N   LIG    1       25.278 -20.753   8.440  0.00  0.00    -0.234 NA
ENDROOT
BRANCH   4   7
ATOM      7  N   LIG    1       28.117 -20.230   6.252  0.00  0.00    +0.100 N 
ATOM      8  O   LIG    1       28.208 -19.281   5.460  0.00  0.00    -0.575 OA
ATOM      9  O   LIG    1       29.030 -21.007   6.544  0.00  0.00    +0.043 OA
ENDBRANCH   4   7
BRANCH   3  10
ATOM     10  C   LIG    1       25.356 -20.701   4.809  0.00  0.00    +0.160 C 
BRANCH  10  11
ATOM     11  C   LIG    1       24.968 -19.320   4.258  0.00  0.00    +0.131 C 
ATOM     12  C   LIG    1       23.638 -19.370   3.511  0.00  0.00    +0.039 C 
BRANCH  11  13
ATOM     13  O   LIG    1       25.962 -18.879   3.333  0.00  0.00    -0.390 OA
ATOM     14  H   LIG    1       26.738 -18.592   3.848  0.00  0.00    +0.210 HD
ENDBRANCH  11  13
ENDBRANCH  10  11
ENDBRANCH   3  10
TORSDOF 4
ENDMDL
MODEL 8
REMARK VINA RESULT:      -5.4      5.799      6.938
REMARK  Name = *****
REMARK                            x       y       z     vdW  Elec       q    Type
REMARK                         _______ _______ _______ _____ _____    ______ ____
ROOT
ATOM      1  C   LIG    1       25.560 -19.449   3.892  0.00  0.00    +0.086 C 
ATOM      2  C   LIG    1       24.441 -20.123   4.603  0.00  0.00    +0.112 A 
ATOM      3  N   LIG    1       24.586 -20.983   5.686  0.00  0.00    -0.268 N 
ATOM      4  C   LIG    1       23.313 -21.384   6.024  0.00  0.00    +0.368 A 
ATOM      5  C   LIG    1       22.463 -20.752   5.152  0.00  0.00    +0.217 A 
ATOM      6  N   LIG    1       23.169 -19.976   4.280  0.00  0.00    -0.234 NA
ENDROOT
BRANCH   4   7
ATOM      7  N   LIG    1       22.949 -22.280   7.067  0.00  0.00    +0.100 N 
ATOM      8  O   LIG    1       22.651 -23.441   6.754  0.00  0.00    -0.575 OA
ATOM      9  O   LIG    1       22.947 -21.826   8.215  0.00  0.00    +0.043 OA
ENDBRANCH   4   7
BRANCH   3  10
ATOM     10  C   LIG    1       25.855 -21.313   6.328  0.00  0.00    +0.160 C 
BRANCH  10  11
ATOM     11  C   LIG    1       26.197 -20.396   7.512  0.00  0.00    +0.131 C 
ATOM     12  C   LIG    1       27.703 -20.314   7.739  0.00  0.00    +0.039 C 
BRANCH  11  13
ATOM     13  O   LIG    1       25.612 -20.918   8.705  0.00  0.00    -0.390 OA
ATOM     14  H   LIG    1       24.995 -20.246   9.051  0.00  0.00    +0.210 HD
ENDBRANCH  11  13
ENDBRANCH  10  11
ENDBRANCH   3  10
TORSDOF 4
ENDMDL
MODEL 9
REMARK VINA RESULT:      -5.2      5.496      6.718
REMARK  Name = *****
REMARK                            x       y       z     vdW  Elec       q    Type
REMARK                         _______ _______ _______ _____ _____    ______ ____
ROOT
ATOM      1  C   LIG    1       23.214 -20.682   6.940  0.00  0.00    +0.086 C 
ATOM      2  C   LIG    1       23.487 -22.135   6.776  0.00  0.00    +0.112 A 
ATOM      3  N   LIG    1       24.740 -22.690   6.535  0.00  0.00    -0.268 N 
ATOM      4  C   LIG    1       24.540 -24.049   6.442  0.00  0.00    +0.368 A 
ATOM      5  C   LIG    1       23.199 -24.258   6.636  0.00  0.00    +0.217 A 
ATOM      6  N   LIG    1       22.559 -23.071   6.842  0.00  0.00    -0.234 NA
ENDROOT
BRANCH   4   7
ATOM      7  N   LIG    1       25.527 -25.041   6.188  0.00  0.00    +0.100 N 
ATOM      8  O   LIG    1       25.751 -25.346   5.009  0.00  0.00    -0.575 OA
ATOM      9  O   LIG    1       26.084 -25.537   7.173  0.00  0.00    +0.043 OA
ENDBRANCH   4   7
BRANCH   3  10
ATOM     10  C   LIG    1       25.989 -21.937   6.463  0.00  0.00    +0.160 C 
BRANCH  10  11
ATOM     11  C   LIG    1       26.724 -21.844   7.809  0.00  0.00    +0.131 C 
ATOM     12  C   LIG    1       26.301 -20.607   8.593  0.00  0.00    +0.039 C 
BRANCH  11  13
ATOM     13  O   LIG    1       28.130 -21.746   7.579  0.00  0.00    -0.390 OA
ATOM     14  H   LIG    1       28.565 -21.643   8.444  0.00  0.00    +0.210 HD
ENDBRANCH  11  13
ENDBRANCH  10  11
ENDBRANCH   3  10
TORSDOF 4
ENDMDL
