MODEL 1
REMARK VINA RESULT:      -3.0      0.000      0.000
REMARK  Name = *****
REMARK                            x       y       z     vdW  Elec       q    Type
REMARK                         _______ _______ _______ _____ _____    ______ ____
ROOT
ATOM      1  N   LIG    1       25.438 -19.959   5.298  0.00  0.00    -0.292 NA
ATOM      2  C   LIG    1       25.172 -19.592   3.878  0.00  0.00    +0.113 C 
ATOM      3  C   LIG    1       23.837 -20.139   3.309  0.00  0.00    +0.165 C 
ATOM      4  C   LIG    1       22.626 -19.793   4.190  0.00  0.00    +0.174 C 
ATOM      5  C   LIG    1       22.889 -20.161   5.660  0.00  0.00    +0.159 C 
ATOM      6  C   LIG    1       24.266 -19.663   6.157  0.00  0.00    +0.118 C 
ENDROOT
BRANCH   3   7
ATOM      7  O   LIG    1       23.898 -21.572   3.180  0.00  0.00    -0.388 OA
ATOM      8  H   LIG    1       24.460 -21.899   3.909  0.00  0.00    +0.210 HD
ENDBRANCH   3   7
BRANCH   4   9
ATOM      9  O   LIG    1       22.285 -18.413   4.055  0.00  0.00    -0.387 OA
ATOM     10  H   LIG    1       23.003 -17.899   4.459  0.00  0.00    +0.210 HD
ENDBRANCH   4   9
BRANCH   5  11
ATOM     11  O   LIG    1       22.759 -21.572   5.857  0.00  0.00    -0.388 OA
ATOM     12  H   LIG    1       22.364 -21.697   6.745  0.00  0.00    +0.210 HD
ENDBRANCH   5  11
BRANCH   1  13
ATOM     13  C   LIG    1       25.928 -21.334   5.514  0.00  0.00    +0.085 C 
BRANCH  13  14
ATOM     14  C   LIG    1       26.832 -21.552   6.739  0.00  0.00    +0.015 C 
BRANCH  14  16
ATOM     15  C   LIG    1       29.246 -20.888   6.996  0.00  0.00    +0.004 C 
ATOM     16  C   LIG    1       27.805 -20.401   6.991  0.00  0.00    -0.002 C 
ENDBRANCH  14  16
ENDBRANCH  13  14
ENDBRANCH   1  13
BRANCH   2  17
ATOM     17  C   LIG    1       25.288 -18.056   3.693  0.00  0.00    +0.177 C 
BRANCH  17  18
ATOM     18  O   LIG    1       26.523 -17.728   3.051  0.00  0.00    -0.393 OA
ATOM     19  H   LIG    1       26.497 -18.219   2.205  0.00  0.00    +0.209 HD
ENDBRANCH  17  18
ENDBRANCH   2  17
TORSDOF 8
ENDMDL
MODEL 2
REMARK VINA RESULT:      -2.9      4.296      6.751
REMARK  Name = *****
REMARK                            x       y       z     vdW  Elec       q    Type
REMARK                         _______ _______ _______ _____ _____    ______ ____
ROOT
ATOM      1  N   LIG    1       25.564 -15.174   3.291  0.00  0.00    -0.292 NA
ATOM      2  C   LIG    1       24.783 -14.598   4.422  0.00  0.00    +0.113 C 
ATOM      3  C   LIG    1       25.232 -13.181   4.863  0.00  0.00    +0.165 C 
ATOM      4  C   LIG    1       25.297 -12.186   3.694  0.00  0.00    +0.174 C 
ATOM      5  C   LIG    1       26.095 -12.769   2.515  0.00  0.00    +0.159 C 
ATOM      6  C   LIG    1       25.666 -14.212   2.166  0.00  0.00    +0.118 C 
ENDROOT
BRANCH   3   7
ATOM      7  O   LIG    1       26.535 -13.236   5.473  0.00  0.00    -0.388 OA
ATOM      8  H   LIG    1       26.764 -14.180   5.569  0.00  0.00    +0.210 HD
ENDBRANCH   3   7
BRANCH   4   9
ATOM      9  O   LIG    1       23.983 -11.801   3.288  0.00  0.00    -0.387 OA
ATOM     10  H   LIG    1       23.356 -12.306   3.830  0.00  0.00    +0.210 HD
ENDBRANCH   4   9
BRANCH   5  11
ATOM     11  O   LIG    1       27.500 -12.707   2.779  0.00  0.00    -0.388 OA
ATOM     12  H   LIG    1       27.937 -12.477   1.933  0.00  0.00    +0.210 HD
ENDBRANCH   5  11
BRANCH   1  13
ATOM     13  C   LIG    1       26.887 -15.721   3.650  0.00  0.00    +0.085 C 
BRANCH  13  14
ATOM     14  C   LIG    1       27.007 -17.254   3.676  0.00  0.00    +0.015 C 
BRANCH  14  16
ATOM     15  C   LIG    1       25.587 -19.311   3.972  0.00  0.00    +0.004 C 
ATOM     16  C   LIG    1       25.724 -17.973   3.262  0.00  0.00    -0.002 C 
ENDBRANCH  14  16
ENDBRANCH  13  14
ENDBRANCH   1  13
BRANCH   2  17
ATOM     17  C   LIG    1       23.266 -14.647   4.102  0.00  0.00    +0.177 C 
BRANCH  17  18
ATOM     18  O   LIG    1       22.631 -15.672   4.872  0.00  0.00    -0.393 OA
ATOM     19  H   LIG    1       22.460 -15.255   5.741  0.00  0.00    +0.209 HD
ENDBRANCH  17  18
ENDBRANCH   2  17
TORSDOF 8
ENDMDL
MODEL 3
REMARK VINA RESULT:      -2.7      5.091      7.323
REMARK  Name = *****
REMARK                            x       y       z     vdW  Elec       q    Type
REMARK                         _______ _______ _______ _____ _____    ______ ____
ROOT
ATOM      1  N   LIG    1       25.029 -14.338   3.214  0.00  0.00    -0.292 NA
ATOM      2  C   LIG    1       25.191 -13.005   3.863  0.00  0.00    +0.113 C 
ATOM      3  C   LIG    1       26.451 -12.872   4.757  0.00  0.00    +0.165 C 
ATOM      4  C   LIG    1       27.744 -13.276   4.031  0.00  0.00    +0.174 C 
ATOM      5  C   LIG    1       27.590 -14.646   3.350  0.00  0.00    +0.159 C 
ATOM      6  C   LIG    1       26.280 -14.759   2.536  0.00  0.00    +0.118 C 
ENDROOT
BRANCH   3   7
ATOM      7  O   LIG    1       26.323 -13.696   5.929  0.00  0.00    -0.388 OA
ATOM      8  H   LIG    1       25.839 -14.501   5.659  0.00  0.00    +0.210 HD
ENDBRANCH   3   7
BRANCH   4   9
ATOM      9  O   LIG    1       28.126 -12.271   3.090  0.00  0.00    -0.387 OA
ATOM     10  H   LIG    1       27.769 -12.535   2.227  0.00  0.00    +0.210 HD
ENDBRANCH   4   9
BRANCH   5  11
ATOM     11  O   LIG    1       27.681 -15.700   4.313  0.00  0.00    -0.388 OA
ATOM     12  H   LIG    1       28.110 -16.457   3.863  0.00  0.00    +0.210 HD
ENDBRANCH   5  11
BRANCH   1  13
ATOM     13  C   LIG    1       24.506 -15.407   4.086  0.00  0.00    +0.085 C 
BRANCH  13  14
ATOM     14  C   LIG    1       23.078 -15.211   4.623  0.00  0.00    +0.015 C 
BRANCH  14  16
ATOM     15  C   LIG    1       23.006 -17.679   4.133  0.00  0.00    +0.004 C 
ATOM     16  C   LIG    1       22.328 -16.522   4.851  0.00  0.00    -0.002 C 
ENDBRANCH  14  16
ENDBRANCH  13  14
ENDBRANCH   1  13
BRANCH   2  17
ATOM     17  C   LIG    1       25.120 -11.881   2.797  0.00  0.00    +0.177 C 
BRANCH  17  18
ATOM     18  O   LIG    1       23.837 -11.880   2.165  0.00  0.00    -0.393 OA
ATOM     19  H   LIG    1       23.513 -12.798   2.267  0.00  0.00    +0.209 HD
ENDBRANCH  17  18
ENDBRANCH   2  17
TORSDOF 8
ENDMDL
MODEL 4
REMARK VINA RESULT:      -2.5      5.391      7.492
REMARK  Name = *****
REMARK                            x       y       z     vdW  Elec       q    Type
REMARK                         _______ _______ _______ _____ _____    ______ ____
ROOT
ATOM      1  N   LIG    1       25.475 -13.628   4.798  0.00  0.00    -0.292 NA
ATOM      2  C   LIG    1       26.874 -13.730   5.303  0.00  0.00    +0.113 C 
ATOM      3  C   LIG    1       27.899 -14.251   4.264  0.00  0.00    +0.165 C 
ATOM      4  C   LIG    1       27.862 -13.467   2.943  0.00  0.00    +0.174 C 
ATOM      5  C   LIG    1       26.423 -13.347   2.412  0.00  0.00    +0.159 C 
ATOM      6  C   LIG    1       25.424 -12.903   3.505  0.00  0.00    +0.118 C 
ENDROOT
BRANCH   3   7
ATOM      7  O   LIG    1       27.650 -15.637   3.965  0.00  0.00    -0.388 OA
ATOM      8  H   LIG    1       26.904 -15.919   4.529  0.00  0.00    +0.210 HD
ENDBRANCH   3   7
BRANCH   4   9
ATOM      9  O   LIG    1       28.461 -12.180   3.105  0.00  0.00    -0.387 OA
ATOM     10  H   LIG    1       28.939 -11.981   2.284  0.00  0.00    +0.210 HD
ENDBRANCH   4   9
BRANCH   5  11
ATOM     11  O   LIG    1       26.005 -14.577   1.812  0.00  0.00    -0.388 OA
ATOM     12  H   LIG    1       25.026 -14.548   1.763  0.00  0.00    +0.210 HD
ENDBRANCH   5  11
BRANCH   1  13
ATOM     13  C   LIG    1       24.734 -14.902   4.727  0.00  0.00    +0.085 C 
BRANCH  13  14
ATOM     14  C   LIG    1       23.240 -14.804   4.373  0.00  0.00    +0.015 C 
BRANCH  14  16
ATOM     15  C   LIG    1       22.318 -17.132   4.622  0.00  0.00    +0.004 C 
ATOM     16  C   LIG    1       22.354 -15.728   5.206  0.00  0.00    -0.002 C 
ENDBRANCH  14  16
ENDBRANCH  13  14
ENDBRANCH   1  13
BRANCH   2  17
ATOM     17  C   LIG    1       27.317 -12.378   5.921  0.00  0.00    +0.177 C 
BRANCH  17  18
ATOM     18  O   LIG    1       28.739 -12.244   5.847  0.00  0.00    -0.393 OA
ATOM     19  H   LIG    1       29.027 -12.166   6.779  0.00  0.00    +0.209 HD
ENDBRANCH  17  18
ENDBRANCH   2  17
TORSDOF 8
ENDMDL
MODEL 5
REMARK VINA RESULT:      -2.4      4.476      6.510
REMARK  Name = *****
REMARK                            x       y       z     vdW  Elec       q    Type
REMARK                         _______ _______ _______ _____ _____    ______ ____
ROOT
ATOM      1  N   LIG    1       25.533 -15.202   4.168  0.00  0.00    -0.292 NA
ATOM      2  C   LIG    1       26.582 -14.143   4.172  0.00  0.00    +0.113 C 
ATOM      3  C   LIG    1       26.287 -12.939   3.239  0.00  0.00    +0.165 C 
ATOM      4  C   LIG    1       24.900 -12.323   3.480  0.00  0.00    +0.174 C 
ATOM      5  C   LIG    1       23.808 -13.405   3.486  0.00  0.00    +0.159 C 
ATOM      6  C   LIG    1       24.183 -14.620   4.366  0.00  0.00    +0.118 C 
ENDROOT
BRANCH   3   7
ATOM      7  O   LIG    1       26.360 -13.345   1.860  0.00  0.00    -0.388 OA
ATOM      8  H   LIG    1       27.076 -14.006   1.797  0.00  0.00    +0.210 HD
ENDBRANCH   3   7
BRANCH   4   9
ATOM      9  O   LIG    1       24.889 -11.570   4.695  0.00  0.00    -0.387 OA
ATOM     10  H   LIG    1       25.008 -10.637   4.455  0.00  0.00    +0.210 HD
ENDBRANCH   4   9
BRANCH   5  11
ATOM     11  O   LIG    1       23.504 -13.820   2.151  0.00  0.00    -0.388 OA
ATOM     12  H   LIG    1       23.852 -13.126   1.554  0.00  0.00    +0.210 HD
ENDBRANCH   5  11
BRANCH   1  13
ATOM     13  C   LIG    1       25.559 -16.113   3.009  0.00  0.00    +0.085 C 
BRANCH  13  14
ATOM     14  C   LIG    1       25.899 -17.584   3.304  0.00  0.00    +0.015 C 
BRANCH  14  16
ATOM     15  C   LIG    1       25.032 -19.919   3.668  0.00  0.00    +0.004 C 
ATOM     16  C   LIG    1       24.673 -18.442   3.615  0.00  0.00    -0.002 C 
ENDBRANCH  14  16
ENDBRANCH  13  14
ENDBRANCH   1  13
BRANCH   2  17
ATOM     17  C   LIG    1       26.873 -13.686   5.625  0.00  0.00    +0.177 C 
BRANCH  17  18
ATOM     18  O   LIG    1       27.776 -12.576   5.623  0.00  0.00    -0.393 OA
ATOM     19  H   LIG    1       27.363 -11.926   5.019  0.00  0.00    +0.209 HD
ENDBRANCH  17  18
ENDBRANCH   2  17
TORSDOF 8
ENDMDL
MODEL 6
REMARK VINA RESULT:      -2.3      4.976      7.083
REMARK  Name = *****
REMARK                            x       y       z     vdW  Elec       q    Type
REMARK                         _______ _______ _______ _____ _____    ______ ____
ROOT
ATOM      1  N   LIG    1       26.253 -14.242   2.469  0.00  0.00    -0.292 NA
ATOM      2  C   LIG    1       26.072 -15.105   3.670  0.00  0.00    +0.113 C 
ATOM      3  C   LIG    1       25.186 -14.486   4.782  0.00  0.00    +0.165 C 
ATOM      4  C   LIG    1       23.825 -14.001   4.259  0.00  0.00    +0.174 C 
ATOM      5  C   LIG    1       23.995 -13.114   3.015  0.00  0.00    +0.159 C 
ATOM      6  C   LIG    1       24.951 -13.737   1.971  0.00  0.00    +0.118 C 
ENDROOT
BRANCH   3   7
ATOM      7  O   LIG    1       25.854 -13.365   5.390  0.00  0.00    -0.388 OA
ATOM      8  H   LIG    1       26.082 -12.746   4.669  0.00  0.00    +0.210 HD
ENDBRANCH   3   7
BRANCH   4   9
ATOM      9  O   LIG    1       22.966 -15.111   3.990  0.00  0.00    -0.387 OA
ATOM     10  H   LIG    1       23.522 -15.825   3.641  0.00  0.00    +0.210 HD
ENDBRANCH   4   9
BRANCH   5  11
ATOM     11  O   LIG    1       24.434 -11.804   3.386  0.00  0.00    -0.388 OA
ATOM     12  H   LIG    1       24.338 -11.239   2.592  0.00  0.00    +0.210 HD
ENDBRANCH   5  11
BRANCH   1  13
ATOM     13  C   LIG    1       27.231 -13.147   2.618  0.00  0.00    +0.085 C 
BRANCH  13  14
ATOM     14  C   LIG    1       28.518 -13.482   3.391  0.00  0.00    +0.015 C 
BRANCH  14  16
ATOM     15  C   LIG    1       28.832 -12.077   5.454  0.00  0.00    +0.004 C 
ATOM     16  C   LIG    1       29.205 -12.257   3.991  0.00  0.00    -0.002 C 
ENDBRANCH  14  16
ENDBRANCH  13  14
ENDBRANCH   1  13
BRANCH   2  17
ATOM     17  C   LIG    1       25.567 -16.509   3.247  0.00  0.00    +0.177 C 
BRANCH  17  18
ATOM     18  O   LIG    1       26.650 -17.443   3.244  0.00  0.00    -0.393 OA
ATOM     19  H   LIG    1       26.226 -18.310   3.409  0.00  0.00    +0.209 HD
ENDBRANCH  17  18
ENDBRANCH   2  17
TORSDOF 8
ENDMDL
MODEL 7
REMARK VINA RESULT:      -1.9      4.407      6.872
REMARK  Name = *****
REMARK                            x       y       z     vdW  Elec       q    Type
REMARK                         _______ _______ _______ _____ _____    ______ ____
ROOT
ATOM      1  N   LIG    1       24.762 -14.870   4.423  0.00  0.00    -0.292 NA
ATOM      2  C   LIG    1       25.440 -15.037   3.106  0.00  0.00    +0.113 C 
ATOM      3  C   LIG    1       25.539 -13.739   2.263  0.00  0.00    +0.165 C 
ATOM      4  C   LIG    1       26.158 -12.567   3.041  0.00  0.00    +0.174 C 
ATOM      5  C   LIG    1       25.473 -12.388   4.406  0.00  0.00    +0.159 C 
ATOM      6  C   LIG    1       25.324 -13.721   5.174  0.00  0.00    +0.118 C 
ENDROOT
BRANCH   3   7
ATOM      7  O   LIG    1       24.234 -13.334   1.812  0.00  0.00    -0.388 OA
ATOM      8  H   LIG    1       24.185 -12.364   1.919  0.00  0.00    +0.210 HD
ENDBRANCH   3   7
BRANCH   4   9
ATOM      9  O   LIG    1       27.567 -12.751   3.190  0.00  0.00    -0.387 OA
ATOM     10  H   LIG    1       27.947 -12.783   2.298  0.00  0.00    +0.210 HD
ENDBRANCH   4   9
BRANCH   5  11
ATOM     11  O   LIG    1       24.203 -11.748   4.251  0.00  0.00    -0.388 OA
ATOM     12  H   LIG    1       23.533 -12.460   4.188  0.00  0.00    +0.210 HD
ENDBRANCH   5  11
BRANCH   1  13
ATOM     13  C   LIG    1       23.289 -14.808   4.373  0.00  0.00    +0.085 C 
BRANCH  13  14
ATOM     14  C   LIG    1       22.536 -16.071   4.827  0.00  0.00    +0.015 C 
BRANCH  14  16
ATOM     15  C   LIG    1       22.325 -18.575   4.695  0.00  0.00    +0.004 C 
ATOM     16  C   LIG    1       22.974 -17.337   4.094  0.00  0.00    -0.002 C 
ENDBRANCH  14  16
ENDBRANCH  13  14
ENDBRANCH   1  13
BRANCH   2  17
ATOM     17  C   LIG    1       26.826 -15.704   3.300  0.00  0.00    +0.177 C 
BRANCH  17  18
ATOM     18  O   LIG    1       26.693 -17.128   3.304  0.00  0.00    -0.393 OA
ATOM     19  H   LIG    1       27.366 -17.438   2.664  0.00  0.00    +0.209 HD
ENDBRANCH  17  18
ENDBRANCH   2  17
TORSDOF 8
ENDMDL
MODEL 8
REMARK VINA RESULT:      -1.8      2.125      3.664
REMARK  Name = *****
REMARK                            x       y       z     vdW  Elec       q    Type
REMARK                         _______ _______ _______ _____ _____    ______ ____
ROOT
ATOM      1  N   LIG    1       24.447 -18.833   4.302  0.00  0.00    -0.292 NA
ATOM      2  C   LIG    1       23.172 -19.457   3.847  0.00  0.00    +0.113 C 
ATOM      3  C   LIG    1       23.161 -21.007   3.891  0.00  0.00    +0.165 C 
ATOM      4  C   LIG    1       23.575 -21.569   5.260  0.00  0.00    +0.174 C 
ATOM      5  C   LIG    1       24.887 -20.929   5.745  0.00  0.00    +0.159 C 
ATOM      6  C   LIG    1       24.881 -19.389   5.606  0.00  0.00    +0.118 C 
ENDROOT
BRANCH   3   7
ATOM      7  O   LIG    1       24.056 -21.543   2.900  0.00  0.00    -0.388 OA
ATOM      8  H   LIG    1       24.502 -20.782   2.480  0.00  0.00    +0.210 HD
ENDBRANCH   3   7
BRANCH   4   9
ATOM      9  O   LIG    1       22.528 -21.389   6.215  0.00  0.00    -0.387 OA
ATOM     10  H   LIG    1       22.513 -20.448   6.450  0.00  0.00    +0.210 HD
ENDBRANCH   4   9
BRANCH   5  11
ATOM     11  O   LIG    1       26.007 -21.495   5.059  0.00  0.00    -0.388 OA
ATOM     12  H   LIG    1       25.918 -22.468   5.129  0.00  0.00    +0.210 HD
ENDBRANCH   5  11
BRANCH   1  13
ATOM     13  C   LIG    1       25.547 -18.855   3.318  0.00  0.00    +0.085 C 
BRANCH  13  14
ATOM     14  C   LIG    1       26.530 -17.672   3.367  0.00  0.00    +0.015 C 
BRANCH  14  16
ATOM     15  C   LIG    1       26.857 -15.177   3.434  0.00  0.00    +0.004 C 
ATOM     16  C   LIG    1       25.841 -16.309   3.401  0.00  0.00    -0.002 C 
ENDBRANCH  14  16
ENDBRANCH  13  14
ENDBRANCH   1  13
BRANCH   2  17
ATOM     17  C   LIG    1       21.975 -18.851   4.625  0.00  0.00    +0.177 C 
BRANCH  17  18
ATOM     18  O   LIG    1       22.055 -17.423   4.620  0.00  0.00    -0.393 OA
ATOM     19  H   LIG    1       21.289 -17.137   4.081  0.00  0.00    +0.209 HD
ENDBRANCH  17  18
ENDBRANCH   2  17
TORSDOF 8
ENDMDL
MODEL 9
REMARK VINA RESULT:      -1.7      5.670      7.488
REMARK  Name = *****
REMARK                            x       y       z     vdW  Elec       q    Type
REMARK                         _______ _______ _______ _____ _____    ______ ____
ROOT
ATOM      1  N   LIG    1       25.814 -14.634   4.051  0.00  0.00    -0.292 NA
ATOM      2  C   LIG    1       24.479 -14.191   4.544  0.00  0.00    +0.113 C 
ATOM      3  C   LIG    1       24.073 -12.759   4.107  0.00  0.00    +0.165 C 
ATOM      4  C   LIG    1       24.184 -12.544   2.590  0.00  0.00    +0.174 C 
ATOM      5  C   LIG    1       25.554 -13.004   2.065  0.00  0.00    +0.159 C 
ATOM      6  C   LIG    1       25.951 -14.402   2.593  0.00  0.00    +0.118 C 
ENDROOT
BRANCH   3   7
ATOM      7  O   LIG    1       24.906 -11.782   4.757  0.00  0.00    -0.388 OA
ATOM      8  H   LIG    1       25.322 -12.227   5.521  0.00  0.00    +0.210 HD
ENDBRANCH   3   7
BRANCH   4   9
ATOM      9  O   LIG    1       23.119 -13.210   1.909  0.00  0.00    -0.387 OA
ATOM     10  H   LIG    1       22.813 -13.927   2.487  0.00  0.00    +0.210 HD
ENDBRANCH   4   9
BRANCH   5  11
ATOM     11  O   LIG    1       26.563 -12.039   2.379  0.00  0.00    -0.388 OA
ATOM     12  H   LIG    1       26.935 -12.292   3.249  0.00  0.00    +0.210 HD
ENDBRANCH   5  11
BRANCH   1  13
ATOM     13  C   LIG    1       26.972 -14.096   4.790  0.00  0.00    +0.085 C 
BRANCH  13  14
ATOM     14  C   LIG    1       28.345 -14.245   4.111  0.00  0.00    +0.015 C 
BRANCH  14  16
ATOM     15  C   LIG    1       28.866 -11.990   5.098  0.00  0.00    +0.004 C 
ATOM     16  C   LIG    1       29.073 -12.918   3.910  0.00  0.00    -0.002 C 
ENDBRANCH  14  16
ENDBRANCH  13  14
ENDBRANCH   1  13
BRANCH   2  17
ATOM     17  C   LIG    1       23.397 -15.236   4.167  0.00  0.00    +0.177 C 
BRANCH  17  18
ATOM     18  O   LIG    1       22.504 -15.441   5.265  0.00  0.00    -0.393 OA
ATOM     19  H   LIG    1       23.066 -15.335   6.060  0.00  0.00    +0.209 HD
ENDBRANCH  17  18
ENDBRANCH   2  17
TORSDOF 8
ENDMDL
