MODEL 1
REMARK VINA RESULT:       2.5      0.000      0.000
REMARK  Name = *****
REMARK                            x       y       z     vdW  Elec       q    Type
REMARK                         _______ _______ _______ _____ _____    ______ ____
ROOT
ATOM      1  C   LIG    1       23.959 -15.206   4.205  0.00  0.00    -0.028 A 
ATOM      2  C   LIG    1       22.728 -15.632   4.670  0.00  0.00    +0.006 A 
ATOM      3  C   LIG    1       22.309 -16.878   5.070  0.00  0.00    +0.009 A 
ATOM      4  C   LIG    1       22.790 -17.914   4.376  0.00  0.00    -0.017 A 
ATOM      5  C   LIG    1       23.971 -17.605   3.627  0.00  0.00    +0.009 A 
ATOM      6  C   LIG    1       24.579 -16.290   3.594  0.00  0.00    +0.006 A 
ENDROOT
BRANCH   4   7
ATOM      7  C   LIG    1       22.098 -19.208   4.469  0.00  0.00    -0.007 A 
ATOM      8  C   LIG    1       22.552 -20.481   5.025  0.00  0.00    +0.030 A 
ATOM      9  C   LIG    1       21.638 -21.572   5.012  0.00  0.00    +0.012 A 
ATOM     10  C   LIG    1       20.336 -21.464   4.465  0.00  0.00    +0.001 A 
ATOM     11  C   LIG    1       19.956 -20.282   3.898  0.00  0.00    +0.001 A 
ATOM     12  C   LIG    1       20.806 -19.204   3.876  0.00  0.00    +0.009 A 
BRANCH   8  13
ATOM     13  C   LIG    1       23.859 -20.831   5.670  0.00  0.00    +0.205 A 
ATOM     14  N   LIG    1       24.131 -20.584   6.977  0.00  0.00    -0.133 NA
ATOM     15  N   LIG    1       25.411 -20.978   7.062  0.00  0.00    -0.176 N 
ATOM     16  H   LIG    1       25.977 -20.833   7.892  0.00  0.00    +0.214 HD
ATOM     17  N   LIG    1       25.912 -21.533   5.960  0.00  0.00    -0.049 NA
ATOM     18  N   LIG    1       24.950 -21.404   5.058  0.00  0.00    -0.108 NA
ENDBRANCH   8  13
ENDBRANCH   4   7
BRANCH   1  19
ATOM     19  C   LIG    1       24.648 -13.807   4.445  0.00  0.00    +0.158 C 
BRANCH  19  21
ATOM     20  C   LIG    1       27.230 -14.342   4.108  0.00  0.00    +0.112 A 
ATOM     21  N   LIG    1       26.150 -13.552   4.579  0.00  0.00    -0.324 N 
ATOM     22  C   LIG    1       26.812 -12.489   5.178  0.00  0.00    +0.083 A 
ATOM     23  C   LIG    1       28.150 -12.603   4.952  0.00  0.00    +0.153 A 
ATOM     24 CL   LIG    1       29.317 -11.484   5.500  0.00  0.00    -0.060 Cl
ATOM     25  N   LIG    1       28.403 -13.713   4.268  0.00  0.00    -0.221 NA
BRANCH  20  26
ATOM     26  C   LIG    1       27.248 -15.754   3.624  0.00  0.00    +0.074 C 
BRANCH  26  27
ATOM     27  C   LIG    1       28.322 -16.621   4.290  0.00  0.00    +0.007 C 
BRANCH  27  29
ATOM     28  C   LIG    1       28.694 -18.834   5.489  0.00  0.00    +0.004 C 
ATOM     29  C   LIG    1       27.802 -18.044   4.542  0.00  0.00    -0.003 C 
ENDBRANCH  27  29
ENDBRANCH  26  27
ENDBRANCH  20  26
BRANCH  22  30
ATOM     30  C   LIG    1       26.248 -11.447   5.923  0.00  0.00    +0.212 C 
BRANCH  30  31
ATOM     31  O   LIG    1       24.861 -11.490   5.596  0.00  0.00    -0.389 OA
ATOM     32  H   LIG    1       24.369 -11.888   6.326  0.00  0.00    +0.210 HD
ENDBRANCH  30  31
ENDBRANCH  22  30
ENDBRANCH  19  21
ENDBRANCH   1  19
TORSDOF 9
ENDMDL
