MODEL 1
REMARK VINA RESULT:      -5.9      0.000      0.000
REMARK  Name = *****
REMARK                            x       y       z     vdW  Elec       q    Type
REMARK                         _______ _______ _______ _____ _____    ______ ____
ROOT
ATOM      1  C   LIG    1       25.230 -16.613   3.593  0.00  0.00    +0.124 A 
ATOM      2  C   LIG    1       25.787 -15.313   3.707  0.00  0.00    +0.000 A 
ATOM      3  C   LIG    1       27.237 -15.045   3.340  0.00  0.00    +0.073 C 
ATOM      4  C   LIG    1       27.610 -13.549   3.293  0.00  0.00    +0.148 C 
ATOM      5  C   LIG    1       27.011 -12.788   4.477  0.00  0.00    +0.147 C 
ATOM      6  C   LIG    1       25.493 -12.875   4.441  0.00  0.00    +0.069 C 
ATOM      7  C   LIG    1       24.973 -14.279   4.198  0.00  0.00    -0.038 A 
ATOM      8  C   LIG    1       23.613 -14.513   4.470  0.00  0.00    +0.004 A 
ATOM      9  C   LIG    1       23.060 -15.773   4.272  0.00  0.00    +0.004 A 
ATOM     10  C   LIG    1       23.861 -16.801   3.843  0.00  0.00    +0.046 A 
ENDROOT
BRANCH   5  11
ATOM     11  O   LIG    1       27.540 -13.303   5.710  0.00  0.00    -0.389 OA
ATOM     12  H   LIG    1       28.330 -13.835   5.498  0.00  0.00    +0.210 HD
ENDBRANCH   5  11
BRANCH   4  13
ATOM     13  O   LIG    1       29.035 -13.406   3.316  0.00  0.00    -0.389 OA
ATOM     14  H   LIG    1       29.210 -12.480   3.577  0.00  0.00    +0.210 HD
ENDBRANCH   4  13
BRANCH   1  15
ATOM     15  O   LIG    1       26.067 -17.649   3.267  0.00  0.00    -0.489 OA
BRANCH  15  16
ATOM     16  C   LIG    1       25.463 -18.959   3.324  0.00  0.00    +0.261 C 
BRANCH  16  17
ATOM     17  C   LIG    1       25.809 -19.707   4.608  0.00  0.00    +0.166 C 
BRANCH  17  18
ATOM     18  O   LIG    1       27.222 -19.869   4.736  0.00  0.00    -0.387 OA
ATOM     19  H   LIG    1       27.594 -18.991   4.518  0.00  0.00    +0.210 HD
ENDBRANCH  17  18
BRANCH  17  20
ATOM     20  C   LIG    1       25.104 -21.066   4.705  0.00  0.00    +0.116 C 
BRANCH  20  21
ATOM     21  N   LIG    1       23.724 -21.058   4.188  0.00  0.00    -0.309 NA
ATOM     22  H   LIG    1       23.654 -20.350   3.448  0.00  0.00    +0.122 HD
BRANCH  21  24
ATOM     23  C   LIG    1       22.368 -19.302   5.246  0.00  0.00    +0.027 C 
ATOM     24  C   LIG    1       22.696 -20.809   5.219  0.00  0.00    +0.011 C 
ATOM     25  C   LIG    1       21.411 -21.571   4.857  0.00  0.00    +0.027 C 
ATOM     26  C   LIG    1       23.176 -21.218   6.622  0.00  0.00    +0.027 C 
ENDBRANCH  21  24
ENDBRANCH  20  21
ENDBRANCH  17  20
ENDBRANCH  16  17
ENDBRANCH  15  16
ENDBRANCH   1  15
TORSDOF 9
ENDMDL
MODEL 2
REMARK VINA RESULT:      -5.6      2.693      6.952
REMARK  Name = *****
REMARK                            x       y       z     vdW  Elec       q    Type
REMARK                         _______ _______ _______ _____ _____    ______ ____
ROOT
ATOM      1  C   LIG    1       26.752 -19.073   4.412  0.00  0.00    +0.124 A 
ATOM      2  C   LIG    1       25.820 -19.981   4.979  0.00  0.00    +0.000 A 
ATOM      3  C   LIG    1       24.457 -20.206   4.347  0.00  0.00    +0.073 C 
ATOM      4  C   LIG    1       23.670 -21.390   4.947  0.00  0.00    +0.148 C 
ATOM      5  C   LIG    1       23.771 -21.409   6.472  0.00  0.00    +0.147 C 
ATOM      6  C   LIG    1       25.222 -21.572   6.899  0.00  0.00    +0.069 C 
ATOM      7  C   LIG    1       26.176 -20.648   6.163  0.00  0.00    -0.038 A 
ATOM      8  C   LIG    1       27.463 -20.493   6.709  0.00  0.00    +0.004 A 
ATOM      9  C   LIG    1       28.394 -19.665   6.093  0.00  0.00    +0.004 A 
ATOM     10  C   LIG    1       28.038 -18.969   4.966  0.00  0.00    +0.046 A 
ENDROOT
BRANCH   5  11
ATOM     11  O   LIG    1       23.191 -20.214   7.018  0.00  0.00    -0.389 OA
ATOM     12  H   LIG    1       22.374 -20.022   6.520  0.00  0.00    +0.210 HD
ENDBRANCH   5  11
BRANCH   4  13
ATOM     13  O   LIG    1       22.292 -21.293   4.569  0.00  0.00    -0.389 OA
ATOM     14  H   LIG    1       22.227 -21.692   3.678  0.00  0.00    +0.210 HD
ENDBRANCH   4  13
BRANCH   1  15
ATOM     15  O   LIG    1       26.343 -18.307   3.351  0.00  0.00    -0.489 OA
BRANCH  15  16
ATOM     16  C   LIG    1       25.950 -16.960   3.690  0.00  0.00    +0.261 C 
BRANCH  16  17
ATOM     17  C   LIG    1       26.976 -15.922   3.245  0.00  0.00    +0.166 C 
BRANCH  17  18
ATOM     18  O   LIG    1       27.965 -15.722   4.255  0.00  0.00    -0.387 OA
ATOM     19  H   LIG    1       28.018 -16.578   4.725  0.00  0.00    +0.210 HD
ENDBRANCH  17  18
BRANCH  17  20
ATOM     20  C   LIG    1       26.330 -14.586   2.856  0.00  0.00    +0.116 C 
BRANCH  20  21
ATOM     21  N   LIG    1       25.848 -13.802   4.006  0.00  0.00    -0.309 NA
ATOM     22  H   LIG    1       25.994 -14.349   4.863  0.00  0.00    +0.122 HD
BRANCH  21  24
ATOM     23  C   LIG    1       24.189 -12.188   4.836  0.00  0.00    +0.027 C 
ATOM     24  C   LIG    1       24.431 -13.396   3.907  0.00  0.00    +0.011 C 
ATOM     25  C   LIG    1       24.122 -12.959   2.466  0.00  0.00    +0.027 C 
ATOM     26  C   LIG    1       23.476 -14.524   4.334  0.00  0.00    +0.027 C 
ENDBRANCH  21  24
ENDBRANCH  20  21
ENDBRANCH  17  20
ENDBRANCH  16  17
ENDBRANCH  15  16
ENDBRANCH   1  15
TORSDOF 9
ENDMDL
MODEL 3
REMARK VINA RESULT:      -4.3      1.906      2.984
REMARK  Name = *****
REMARK                            x       y       z     vdW  Elec       q    Type
REMARK                         _______ _______ _______ _____ _____    ______ ____
ROOT
ATOM      1  C   LIG    1       24.540 -17.324   3.783  0.00  0.00    +0.124 A 
ATOM      2  C   LIG    1       25.039 -15.997   3.717  0.00  0.00    +0.000 A 
ATOM      3  C   LIG    1       26.461 -15.714   3.262  0.00  0.00    +0.073 C 
ATOM      4  C   LIG    1       26.761 -14.220   3.020  0.00  0.00    +0.148 C 
ATOM      5  C   LIG    1       26.170 -13.347   4.128  0.00  0.00    +0.147 C 
ATOM      6  C   LIG    1       24.657 -13.502   4.165  0.00  0.00    +0.069 C 
ATOM      7  C   LIG    1       24.195 -14.946   4.113  0.00  0.00    -0.038 A 
ATOM      8  C   LIG    1       22.858 -15.202   4.467  0.00  0.00    +0.004 A 
ATOM      9  C   LIG    1       22.359 -16.500   4.445  0.00  0.00    +0.004 A 
ATOM     10  C   LIG    1       23.191 -17.538   4.110  0.00  0.00    +0.046 A 
ENDROOT
BRANCH   5  11
ATOM     11  O   LIG    1       26.765 -13.685   5.391  0.00  0.00    -0.389 OA
ATOM     12  H   LIG    1       27.674 -13.328   5.399  0.00  0.00    +0.210 HD
ENDBRANCH   5  11
BRANCH   4  13
ATOM     13  O   LIG    1       28.178 -14.015   2.968  0.00  0.00    -0.389 OA
ATOM     14  H   LIG    1       28.549 -14.805   2.527  0.00  0.00    +0.210 HD
ENDBRANCH   4  13
BRANCH   1  15
ATOM     15  O   LIG    1       25.413 -18.355   3.549  0.00  0.00    -0.489 OA
BRANCH  15  16
ATOM     16  C   LIG    1       24.838 -19.497   2.880  0.00  0.00    +0.261 C 
BRANCH  16  17
ATOM     17  C   LIG    1       24.815 -20.742   3.762  0.00  0.00    +0.166 C 
BRANCH  17  18
ATOM     18  O   LIG    1       23.477 -21.082   4.125  0.00  0.00    -0.387 OA
ATOM     19  H   LIG    1       22.915 -20.548   3.530  0.00  0.00    +0.210 HD
ENDBRANCH  17  18
BRANCH  17  20
ATOM     20  C   LIG    1       25.688 -20.590   5.015  0.00  0.00    +0.116 C 
BRANCH  20  21
ATOM     21  N   LIG    1       27.125 -20.435   4.724  0.00  0.00    -0.309 NA
ATOM     22  H   LIG    1       27.485 -21.325   4.362  0.00  0.00    +0.122 HD
BRANCH  21  24
ATOM     23  C   LIG    1       26.985 -19.690   7.062  0.00  0.00    +0.027 C 
ATOM     24  C   LIG    1       27.931 -20.002   5.883  0.00  0.00    +0.011 C 
ATOM     25  C   LIG    1       28.869 -21.141   6.311  0.00  0.00    +0.027 C 
ATOM     26  C   LIG    1       28.745 -18.732   5.577  0.00  0.00    +0.027 C 
ENDBRANCH  21  24
ENDBRANCH  20  21
ENDBRANCH  17  20
ENDBRANCH  16  17
ENDBRANCH  15  16
ENDBRANCH   1  15
TORSDOF 9
ENDMDL
MODEL 4
REMARK VINA RESULT:      -3.3      2.737      7.302
REMARK  Name = *****
REMARK                            x       y       z     vdW  Elec       q    Type
REMARK                         _______ _______ _______ _____ _____    ______ ____
ROOT
ATOM      1  C   LIG    1       25.582 -18.359   3.935  0.00  0.00    +0.124 A 
ATOM      2  C   LIG    1       24.956 -19.509   4.485  0.00  0.00    +0.000 A 
ATOM      3  C   LIG    1       23.484 -19.794   4.241  0.00  0.00    +0.073 C 
ATOM      4  C   LIG    1       23.027 -21.193   4.704  0.00  0.00    +0.148 C 
ATOM      5  C   LIG    1       23.616 -21.547   6.071  0.00  0.00    +0.147 C 
ATOM      6  C   LIG    1       25.135 -21.572   5.995  0.00  0.00    +0.069 C 
ATOM      7  C   LIG    1       25.726 -20.366   5.289  0.00  0.00    -0.038 A 
ATOM      8  C   LIG    1       27.104 -20.139   5.456  0.00  0.00    +0.004 A 
ATOM      9  C   LIG    1       27.720 -19.055   4.841  0.00  0.00    +0.004 A 
ATOM     10  C   LIG    1       26.966 -18.183   4.096  0.00  0.00    +0.046 A 
ENDROOT
BRANCH   5  11
ATOM     11  O   LIG    1       23.152 -20.616   7.062  0.00  0.00    -0.389 OA
ATOM     12  H   LIG    1       23.338 -19.715   6.738  0.00  0.00    +0.210 HD
ENDBRANCH   5  11
BRANCH   4  13
ATOM     13  O   LIG    1       21.598 -21.231   4.785  0.00  0.00    -0.389 OA
ATOM     14  H   LIG    1       21.280 -21.401   3.876  0.00  0.00    +0.210 HD
ENDBRANCH   4  13
BRANCH   1  15
ATOM     15  O   LIG    1       24.794 -17.444   3.285  0.00  0.00    -0.489 OA
BRANCH  15  16
ATOM     16  C   LIG    1       25.322 -16.100   3.257  0.00  0.00    +0.261 C 
BRANCH  16  17
ATOM     17  C   LIG    1       24.589 -15.165   4.215  0.00  0.00    +0.166 C 
BRANCH  17  18
ATOM     18  O   LIG    1       23.176 -15.337   4.110  0.00  0.00    -0.387 OA
ATOM     19  H   LIG    1       22.807 -14.827   4.859  0.00  0.00    +0.210 HD
ENDBRANCH  17  18
BRANCH  17  20
ATOM     20  C   LIG    1       24.967 -13.693   4.002  0.00  0.00    +0.116 C 
BRANCH  20  21
ATOM     21  N   LIG    1       26.071 -13.232   4.863  0.00  0.00    -0.309 NA
ATOM     22  H   LIG    1       25.905 -12.250   5.113  0.00  0.00    +0.122 HD
BRANCH  21  24
ATOM     23  C   LIG    1       27.316 -13.036   2.753  0.00  0.00    +0.027 C 
ATOM     24  C   LIG    1       27.409 -13.375   4.255  0.00  0.00    +0.011 C 
ATOM     25  C   LIG    1       28.380 -12.380   4.910  0.00  0.00    +0.027 C 
ATOM     26  C   LIG    1       27.952 -14.809   4.387  0.00  0.00    +0.027 C 
ENDBRANCH  21  24
ENDBRANCH  20  21
ENDBRANCH  17  20
ENDBRANCH  16  17
ENDBRANCH  15  16
ENDBRANCH   1  15
TORSDOF 9
ENDMDL
MODEL 5
REMARK VINA RESULT:      -2.9      2.698      6.768
REMARK  Name = *****
REMARK                            x       y       z     vdW  Elec       q    Type
REMARK                         _______ _______ _______ _____ _____    ______ ____
ROOT
ATOM      1  C   LIG    1       23.416 -17.000   4.099  0.00  0.00    +0.124 A 
ATOM      2  C   LIG    1       23.962 -18.301   4.258  0.00  0.00    +0.000 A 
ATOM      3  C   LIG    1       25.462 -18.516   4.360  0.00  0.00    +0.073 C 
ATOM      4  C   LIG    1       25.868 -19.948   4.768  0.00  0.00    +0.148 C 
ATOM      5  C   LIG    1       25.036 -20.995   4.026  0.00  0.00    +0.147 C 
ATOM      6  C   LIG    1       23.563 -20.831   4.368  0.00  0.00    +0.069 C 
ATOM      7  C   LIG    1       23.080 -19.394   4.290  0.00  0.00    -0.038 A 
ATOM      8  C   LIG    1       21.689 -19.188   4.266  0.00  0.00    +0.004 A 
ATOM      9  C   LIG    1       21.168 -17.901   4.195  0.00  0.00    +0.004 A 
ATOM     10  C   LIG    1       22.022 -16.831   4.112  0.00  0.00    +0.046 A 
ENDROOT
BRANCH   5  11
ATOM     11  O   LIG    1       25.265 -20.892   2.612  0.00  0.00    -0.389 OA
ATOM     12  H   LIG    1       25.884 -20.154   2.461  0.00  0.00    +0.210 HD
ENDBRANCH   5  11
BRANCH   4  13
ATOM     13  O   LIG    1       27.255 -20.157   4.476  0.00  0.00    -0.389 OA
ATOM     14  H   LIG    1       27.354 -20.007   3.515  0.00  0.00    +0.210 HD
ENDBRANCH   4  13
BRANCH   1  15
ATOM     15  O   LIG    1       24.282 -15.955   3.910  0.00  0.00    -0.489 OA
BRANCH  15  16
ATOM     16  C   LIG    1       23.722 -14.648   4.161  0.00  0.00    +0.261 C 
BRANCH  16  17
ATOM     17  C   LIG    1       24.409 -13.551   3.354  0.00  0.00    +0.166 C 
BRANCH  17  18
ATOM     18  O   LIG    1       23.491 -12.935   2.451  0.00  0.00    -0.387 OA
ATOM     19  H   LIG    1       23.524 -11.984   2.674  0.00  0.00    +0.210 HD
ENDBRANCH  17  18
BRANCH  17  20
ATOM     20  C   LIG    1       25.642 -14.063   2.597  0.00  0.00    +0.116 C 
BRANCH  20  21
ATOM     21  N   LIG    1       26.851 -13.247   2.809  0.00  0.00    -0.309 NA
ATOM     22  H   LIG    1       27.422 -13.277   1.956  0.00  0.00    +0.122 HD
BRANCH  21  24
ATOM     23  C   LIG    1       27.766 -15.203   3.983  0.00  0.00    +0.027 C 
ATOM     24  C   LIG    1       27.663 -13.664   3.970  0.00  0.00    +0.011 C 
ATOM     25  C   LIG    1       29.083 -13.091   3.836  0.00  0.00    +0.027 C 
ATOM     26  C   LIG    1       27.036 -13.218   5.302  0.00  0.00    +0.027 C 
ENDBRANCH  21  24
ENDBRANCH  20  21
ENDBRANCH  17  20
ENDBRANCH  16  17
ENDBRANCH  15  16
ENDBRANCH   1  15
TORSDOF 9
ENDMDL
