MODEL 1
REMARK VINA RESULT:      -8.7      0.000      0.000
REMARK  Name = *****
REMARK                            x       y       z     vdW  Elec       q    Type
REMARK                         _______ _______ _______ _____ _____    ______ ____
ROOT
ATOM      1  N   LIG    1       26.244 -21.781   6.392  0.00  0.00    -0.297 NA
ATOM      2  C   LIG    1       25.879 -20.485   6.992  0.00  0.00    +0.100 C 
ATOM      3  C   LIG    1       26.727 -20.118   8.250  0.00  0.00    +0.100 C 
ATOM      4  N   LIG    1       28.034 -20.830   8.343  0.00  0.00    -0.299 NA
ATOM      5  C   LIG    1       27.680 -22.268   8.421  0.00  0.00    +0.100 C 
ATOM      6  C   LIG    1       26.551 -22.756   7.451  0.00  0.00    +0.100 C 
ENDROOT
BRANCH   1   7
ATOM      7  C   LIG    1       25.340 -22.284   5.346  0.00  0.00    +0.120 C 
BRANCH   7   8
ATOM      8  C   LIG    1       23.807 -21.884   5.373  0.00  0.00    +0.162 C 
BRANCH   8   9
ATOM      9  C   LIG    1       23.487 -20.480   4.835  0.00  0.00    -0.018 A 
ATOM     10  C   LIG    1       22.325 -19.777   5.195  0.00  0.00    +0.006 A 
ATOM     11  C   LIG    1       22.074 -18.483   4.712  0.00  0.00    +0.000 A 
ATOM     12  C   LIG    1       23.000 -17.844   3.895  0.00  0.00    +0.000 A 
ATOM     13  C   LIG    1       24.147 -18.527   3.502  0.00  0.00    +0.000 A 
ATOM     14  C   LIG    1       24.365 -19.845   3.932  0.00  0.00    +0.006 A 
ENDBRANCH   8   9
BRANCH   8  15
ATOM     15  O   LIG    1       23.196 -22.112   6.667  0.00  0.00    -0.371 OA
BRANCH  15  17
ATOM     16  C   LIG    1       23.439 -24.524   6.613  0.00  0.00    +0.034 C 
ATOM     17  C   LIG    1       22.488 -23.352   6.743  0.00  0.00    +0.157 C 
ENDBRANCH  15  17
ENDBRANCH   8  15
ENDBRANCH   7   8
ENDBRANCH   1   7
BRANCH   4  18
ATOM     18  C   LIG    1       28.872 -20.505   7.154  0.00  0.00    +0.095 C 
BRANCH  18  19
ATOM     19  C   LIG    1       29.364 -19.044   7.006  0.00  0.00    +0.071 C 
ATOM     20  C   LIG    1       29.436 -18.503   5.586  0.00  0.00    +0.017 C 
BRANCH  19  21
ATOM     21  C   LIG    1       30.829 -18.983   7.571  0.00  0.00    +0.167 C 
ATOM     22  O   LIG    1       31.767 -19.541   7.044  0.00  0.00    -0.292 OA
BRANCH  21  23
ATOM     23  C   LIG    1       31.091 -18.102   8.751  0.00  0.00    +0.018 A 
ATOM     24  C   LIG    1       30.115 -18.011   9.754  0.00  0.00    +0.011 A 
ATOM     25  C   LIG    1       30.321 -17.214  10.877  0.00  0.00    +0.001 A 
ATOM     26  C   LIG    1       31.501 -16.480  11.008  0.00  0.00    +0.000 A 
ATOM     27  C   LIG    1       32.475 -16.555  10.015  0.00  0.00    +0.001 A 
ATOM     28  C   LIG    1       32.281 -17.356   8.893  0.00  0.00    +0.011 A 
ENDBRANCH  21  23
ENDBRANCH  19  21
ENDBRANCH  18  19
ENDBRANCH   4  18
TORSDOF 9
ENDMDL
MODEL 2
REMARK VINA RESULT:      -8.7      4.463      8.728
REMARK  Name = *****
REMARK                            x       y       z     vdW  Elec       q    Type
REMARK                         _______ _______ _______ _____ _____    ______ ____
ROOT
ATOM      1  N   LIG    1       25.420 -26.639   6.188  0.00  0.00    -0.297 NA
ATOM      2  C   LIG    1       25.711 -26.114   4.840  0.00  0.00    +0.100 C 
ATOM      3  C   LIG    1       25.002 -24.758   4.532  0.00  0.00    +0.100 C 
ATOM      4  N   LIG    1       24.588 -23.988   5.740  0.00  0.00    -0.299 NA
ATOM      5  C   LIG    1       23.624 -24.871   6.442  0.00  0.00    +0.100 C 
ATOM      6  C   LIG    1       24.011 -26.385   6.531  0.00  0.00    +0.100 C 
ENDROOT
BRANCH   1   7
ATOM      7  C   LIG    1       25.874 -28.012   6.455  0.00  0.00    +0.120 C 
BRANCH   7   8
ATOM      8  C   LIG    1       24.991 -28.972   7.355  0.00  0.00    +0.162 C 
BRANCH   8   9
ATOM      9  C   LIG    1       25.591 -29.317   8.728  0.00  0.00    -0.018 A 
ATOM     10  C   LIG    1       26.579 -28.530   9.342  0.00  0.00    +0.006 A 
ATOM     11  C   LIG    1       27.088 -28.853  10.610  0.00  0.00    +0.000 A 
ATOM     12  C   LIG    1       26.587 -29.944  11.313  0.00  0.00    +0.000 A 
ATOM     13  C   LIG    1       25.626 -30.755  10.717  0.00  0.00    +0.000 A 
ATOM     14  C   LIG    1       25.168 -30.469   9.422  0.00  0.00    +0.006 A 
ENDBRANCH   8   9
BRANCH   8  15
ATOM     15  O   LIG    1       24.564 -30.160   6.645  0.00  0.00    -0.371 OA
BRANCH  15  17
ATOM     16  C   LIG    1       26.157 -31.737   5.723  0.00  0.00    +0.034 C 
ATOM     17  C   LIG    1       25.376 -30.457   5.506  0.00  0.00    +0.157 C 
ENDBRANCH  15  17
ENDBRANCH   8  15
ENDBRANCH   7   8
ENDBRANCH   1   7
BRANCH   4  18
ATOM     18  C   LIG    1       25.784 -23.666   6.569  0.00  0.00    +0.095 C 
BRANCH  18  19
ATOM     19  C   LIG    1       26.058 -22.173   6.875  0.00  0.00    +0.071 C 
ATOM     20  C   LIG    1       26.825 -21.883   8.157  0.00  0.00    +0.017 C 
BRANCH  19  21
ATOM     21  C   LIG    1       24.666 -21.461   7.029  0.00  0.00    +0.167 C 
ATOM     22  O   LIG    1       24.003 -21.513   8.043  0.00  0.00    -0.292 OA
BRANCH  21  23
ATOM     23  C   LIG    1       24.194 -20.591   5.909  0.00  0.00    +0.018 A 
ATOM     24  C   LIG    1       25.081 -20.297   4.864  0.00  0.00    +0.011 A 
ATOM     25  C   LIG    1       24.680 -19.501   3.793  0.00  0.00    +0.001 A 
ATOM     26  C   LIG    1       23.389 -18.972   3.758  0.00  0.00    +0.000 A 
ATOM     27  C   LIG    1       22.500 -19.250   4.794  0.00  0.00    +0.001 A 
ATOM     28  C   LIG    1       22.890 -20.051   5.865  0.00  0.00    +0.011 A 
ENDBRANCH  21  23
ENDBRANCH  19  21
ENDBRANCH  18  19
ENDBRANCH   4  18
TORSDOF 9
ENDMDL
MODEL 3
REMARK VINA RESULT:      -8.5      6.111     10.230
REMARK  Name = *****
REMARK                            x       y       z     vdW  Elec       q    Type
REMARK                         _______ _______ _______ _____ _____    ______ ____
ROOT
ATOM      1  N   LIG    1       25.087 -30.206  10.207  0.00  0.00    -0.297 NA
ATOM      2  C   LIG    1       26.405 -30.596   9.670  0.00  0.00    +0.100 C 
ATOM      3  C   LIG    1       26.405 -30.836   8.129  0.00  0.00    +0.100 C 
ATOM      4  N   LIG    1       25.282 -30.177   7.400  0.00  0.00    -0.299 NA
ATOM      5  C   LIG    1       24.053 -30.782   7.967  0.00  0.00    +0.100 C 
ATOM      6  C   LIG    1       24.025 -30.961   9.523  0.00  0.00    +0.100 C 
ENDROOT
BRANCH   1   7
ATOM      7  C   LIG    1       24.971 -30.183  11.673  0.00  0.00    +0.120 C 
BRANCH   7   8
ATOM      8  C   LIG    1       24.943 -28.796  12.439  0.00  0.00    +0.162 C 
BRANCH   8   9
ATOM      9  C   LIG    1       23.542 -28.225  12.707  0.00  0.00    -0.018 A 
ATOM     10  C   LIG    1       23.337 -26.953  13.267  0.00  0.00    +0.006 A 
ATOM     11  C   LIG    1       22.044 -26.444  13.474  0.00  0.00    +0.000 A 
ATOM     12  C   LIG    1       20.928 -27.176  13.083  0.00  0.00    +0.000 A 
ATOM     13  C   LIG    1       21.102 -28.450  12.549  0.00  0.00    +0.000 A 
ATOM     14  C   LIG    1       22.392 -28.984  12.406  0.00  0.00    +0.006 A 
ENDBRANCH   8   9
BRANCH   8  15
ATOM     15  O   LIG    1       25.815 -27.810  11.833  0.00  0.00    -0.371 OA
BRANCH  15  17
ATOM     16  C   LIG    1       26.881 -25.962  12.982  0.00  0.00    +0.034 C 
ATOM     17  C   LIG    1       26.915 -27.443  12.669  0.00  0.00    +0.157 C 
ENDBRANCH  15  17
ENDBRANCH   8  15
ENDBRANCH   7   8
ENDBRANCH   1   7
BRANCH   4  18
ATOM     18  C   LIG    1       25.346 -28.702   7.602  0.00  0.00    +0.095 C 
BRANCH  18  19
ATOM     19  C   LIG    1       24.762 -27.803   6.484  0.00  0.00    +0.071 C 
ATOM     20  C   LIG    1       24.676 -28.428   5.100  0.00  0.00    +0.017 C 
BRANCH  19  21
ATOM     21  C   LIG    1       25.707 -26.556   6.342  0.00  0.00    +0.167 C 
ATOM     22  O   LIG    1       26.848 -26.631   5.939  0.00  0.00    -0.292 OA
BRANCH  21  23
ATOM     23  C   LIG    1       25.131 -25.203   6.614  0.00  0.00    +0.018 A 
ATOM     24  C   LIG    1       23.753 -25.009   6.440  0.00  0.00    +0.011 A 
ATOM     25  C   LIG    1       23.171 -23.770   6.694  0.00  0.00    +0.001 A 
ATOM     26  C   LIG    1       23.961 -22.698   7.111  0.00  0.00    +0.000 A 
ATOM     27  C   LIG    1       25.332 -22.874   7.280  0.00  0.00    +0.001 A 
ATOM     28  C   LIG    1       25.922 -24.112   7.036  0.00  0.00    +0.011 A 
ENDBRANCH  21  23
ENDBRANCH  19  21
ENDBRANCH  18  19
ENDBRANCH   4  18
TORSDOF 9
ENDMDL
MODEL 4
REMARK VINA RESULT:      -8.4      4.413      8.667
REMARK  Name = *****
REMARK                            x       y       z     vdW  Elec       q    Type
REMARK                         _______ _______ _______ _____ _____    ______ ____
ROOT
ATOM      1  N   LIG    1       24.372 -25.085   6.413  0.00  0.00    -0.297 NA
ATOM      2  C   LIG    1       24.331 -25.456   4.986  0.00  0.00    +0.100 C 
ATOM      3  C   LIG    1       25.412 -26.506   4.582  0.00  0.00    +0.100 C 
ATOM      4  N   LIG    1       25.947 -27.311   5.719  0.00  0.00    -0.299 NA
ATOM      5  C   LIG    1       26.573 -26.319   6.626  0.00  0.00    +0.100 C 
ATOM      6  C   LIG    1       25.769 -24.998   6.868  0.00  0.00    +0.100 C 
ENDROOT
BRANCH   1   7
ATOM      7  C   LIG    1       23.531 -23.943   6.805  0.00  0.00    +0.120 C 
BRANCH   7   8
ATOM      8  C   LIG    1       23.773 -22.524   6.144  0.00  0.00    +0.162 C 
BRANCH   8   9
ATOM      9  C   LIG    1       24.922 -21.705   6.754  0.00  0.00    -0.018 A 
ATOM     10  C   LIG    1       25.013 -21.437   8.130  0.00  0.00    +0.006 A 
ATOM     11  C   LIG    1       26.090 -20.711   8.665  0.00  0.00    +0.000 A 
ATOM     12  C   LIG    1       27.124 -20.276   7.841  0.00  0.00    +0.000 A 
ATOM     13  C   LIG    1       27.046 -20.506   6.472  0.00  0.00    +0.000 A 
ATOM     14  C   LIG    1       25.935 -21.173   5.931  0.00  0.00    +0.006 A 
ENDBRANCH   8   9
BRANCH   8  15
ATOM     15  O   LIG    1       22.556 -21.744   6.043  0.00  0.00    -0.371 OA
BRANCH  15  17
ATOM     16  C   LIG    1       22.521 -19.465   5.218  0.00  0.00    +0.034 C 
ATOM     17  C   LIG    1       22.503 -20.937   4.863  0.00  0.00    +0.157 C 
ENDBRANCH  15  17
ENDBRANCH   8  15
ENDBRANCH   7   8
ENDBRANCH   1   7
BRANCH   4  18
ATOM     18  C   LIG    1       24.838 -28.067   6.367  0.00  0.00    +0.095 C 
BRANCH  18  19
ATOM     19  C   LIG    1       25.132 -29.521   6.812  0.00  0.00    +0.071 C 
ATOM     20  C   LIG    1       24.625 -30.619   5.889  0.00  0.00    +0.017 C 
BRANCH  19  21
ATOM     21  C   LIG    1       24.412 -29.745   8.191  0.00  0.00    +0.167 C 
ATOM     22  O   LIG    1       23.313 -30.247   8.292  0.00  0.00    -0.292 OA
BRANCH  21  23
ATOM     23  C   LIG    1       25.169 -29.423   9.439  0.00  0.00    +0.018 A 
ATOM     24  C   LIG    1       24.624 -29.799  10.675  0.00  0.00    +0.011 A 
ATOM     25  C   LIG    1       25.300 -29.531  11.863  0.00  0.00    +0.001 A 
ATOM     26  C   LIG    1       26.527 -28.868  11.836  0.00  0.00    +0.000 A 
ATOM     27  C   LIG    1       27.077 -28.481  10.616  0.00  0.00    +0.001 A 
ATOM     28  C   LIG    1       26.411 -28.751   9.423  0.00  0.00    +0.011 A 
ENDBRANCH  21  23
ENDBRANCH  19  21
ENDBRANCH  18  19
ENDBRANCH   4  18
TORSDOF 9
ENDMDL
MODEL 5
REMARK VINA RESULT:      -8.4      5.253      9.392
REMARK  Name = *****
REMARK                            x       y       z     vdW  Elec       q    Type
REMARK                         _______ _______ _______ _____ _____    ______ ____
ROOT
ATOM      1  N   LIG    1       25.754 -27.529   7.393  0.00  0.00    -0.297 NA
ATOM      2  C   LIG    1       26.706 -26.848   6.496  0.00  0.00    +0.100 C 
ATOM      3  C   LIG    1       26.055 -26.320   5.180  0.00  0.00    +0.100 C 
ATOM      4  N   LIG    1       24.577 -26.131   5.253  0.00  0.00    -0.299 NA
ATOM      5  C   LIG    1       24.034 -27.482   5.534  0.00  0.00    +0.100 C 
ATOM      6  C   LIG    1       24.805 -28.329   6.603  0.00  0.00    +0.100 C 
ENDROOT
BRANCH   1   7
ATOM      7  C   LIG    1       26.344 -28.240   8.538  0.00  0.00    +0.120 C 
BRANCH   7   8
ATOM      8  C   LIG    1       25.867 -29.711   8.881  0.00  0.00    +0.162 C 
BRANCH   8   9
ATOM      9  C   LIG    1       24.734 -29.807   9.916  0.00  0.00    -0.018 A 
ATOM     10  C   LIG    1       24.889 -29.388  11.248  0.00  0.00    +0.006 A 
ATOM     11  C   LIG    1       23.827 -29.459  12.165  0.00  0.00    +0.000 A 
ATOM     12  C   LIG    1       22.575 -29.908  11.759  0.00  0.00    +0.000 A 
ATOM     13  C   LIG    1       22.401 -30.352  10.452  0.00  0.00    +0.000 A 
ATOM     14  C   LIG    1       23.482 -30.343   9.555  0.00  0.00    +0.006 A 
ENDBRANCH   8   9
BRANCH   8  15
ATOM     15  O   LIG    1       26.970 -30.589   9.214  0.00  0.00    -0.371 OA
BRANCH  15  17
ATOM     16  C   LIG    1       26.267 -31.836   7.258  0.00  0.00    +0.034 C 
ATOM     17  C   LIG    1       26.831 -31.901   8.662  0.00  0.00    +0.157 C 
ENDBRANCH  15  17
ENDBRANCH   8  15
ENDBRANCH   7   8
ENDBRANCH   1   7
BRANCH   4  18
ATOM     18  C   LIG    1       24.247 -25.144   6.320  0.00  0.00    +0.095 C 
BRANCH  18  19
ATOM     19  C   LIG    1       24.842 -23.720   6.183  0.00  0.00    +0.071 C 
ATOM     20  C   LIG    1       25.886 -23.330   7.218  0.00  0.00    +0.017 C 
BRANCH  19  21
ATOM     21  C   LIG    1       23.660 -22.698   6.348  0.00  0.00    +0.167 C 
ATOM     22  O   LIG    1       22.807 -22.804   7.202  0.00  0.00    -0.292 OA
BRANCH  21  23
ATOM     23  C   LIG    1       23.657 -21.482   5.480  0.00  0.00    +0.018 A 
ATOM     24  C   LIG    1       22.645 -20.528   5.659  0.00  0.00    +0.011 A 
ATOM     25  C   LIG    1       22.610 -19.373   4.882  0.00  0.00    +0.001 A 
ATOM     26  C   LIG    1       23.577 -19.160   3.899  0.00  0.00    +0.000 A 
ATOM     27  C   LIG    1       24.583 -20.104   3.704  0.00  0.00    +0.001 A 
ATOM     28  C   LIG    1       24.631 -21.258   4.482  0.00  0.00    +0.011 A 
ENDBRANCH  21  23
ENDBRANCH  19  21
ENDBRANCH  18  19
ENDBRANCH   4  18
TORSDOF 9
ENDMDL
MODEL 6
REMARK VINA RESULT:      -8.3      5.255      9.521
REMARK  Name = *****
REMARK                            x       y       z     vdW  Elec       q    Type
REMARK                         _______ _______ _______ _____ _____    ______ ____
ROOT
ATOM      1  N   LIG    1       24.709 -27.814   6.443  0.00  0.00    -0.297 NA
ATOM      2  C   LIG    1       25.969 -27.402   7.089  0.00  0.00    +0.100 C 
ATOM      3  C   LIG    1       26.774 -26.346   6.270  0.00  0.00    +0.100 C 
ATOM      4  N   LIG    1       25.961 -25.577   5.283  0.00  0.00    -0.299 NA
ATOM      5  C   LIG    1       25.438 -26.598   4.344  0.00  0.00    +0.100 C 
ATOM      6  C   LIG    1       24.903 -27.921   4.988  0.00  0.00    +0.100 C 
ENDROOT
BRANCH   1   7
ATOM      7  C   LIG    1       24.019 -28.962   7.051  0.00  0.00    +0.120 C 
BRANCH   7   8
ATOM      8  C   LIG    1       24.821 -30.297   7.344  0.00  0.00    +0.162 C 
BRANCH   8   9
ATOM      9  C   LIG    1       24.758 -31.355   6.231  0.00  0.00    -0.018 A 
ATOM     10  C   LIG    1       25.787 -31.526   5.290  0.00  0.00    +0.006 A 
ATOM     11  C   LIG    1       25.718 -32.522   4.302  0.00  0.00    +0.000 A 
ATOM     12  C   LIG    1       24.638 -33.398   4.260  0.00  0.00    +0.000 A 
ATOM     13  C   LIG    1       23.593 -33.235   5.164  0.00  0.00    +0.000 A 
ATOM     14  C   LIG    1       23.634 -32.197   6.109  0.00  0.00    +0.006 A 
ENDBRANCH   8   9
BRANCH   8  15
ATOM     15  O   LIG    1       24.500 -30.864   8.638  0.00  0.00    -0.371 OA
BRANCH  15  17
ATOM     16  C   LIG    1       26.830 -30.845   9.307  0.00  0.00    +0.034 C 
ATOM     17  C   LIG    1       25.409 -30.464   9.667  0.00  0.00    +0.157 C 
ENDBRANCH  15  17
ENDBRANCH   8  15
ENDBRANCH   7   8
ENDBRANCH   1   7
BRANCH   4  18
ATOM     18  C   LIG    1       24.880 -24.834   5.990  0.00  0.00    +0.095 C 
BRANCH  18  19
ATOM     19  C   LIG    1       25.140 -23.344   6.327  0.00  0.00    +0.071 C 
ATOM     20  C   LIG    1       25.720 -23.061   7.704  0.00  0.00    +0.017 C 
BRANCH  19  21
ATOM     21  C   LIG    1       23.756 -22.603   6.275  0.00  0.00    +0.167 C 
ATOM     22  O   LIG    1       22.803 -22.929   6.949  0.00  0.00    -0.292 OA
BRANCH  21  23
ATOM     23  C   LIG    1       23.650 -21.370   5.436  0.00  0.00    +0.018 A 
ATOM     24  C   LIG    1       22.671 -20.419   5.755  0.00  0.00    +0.011 A 
ATOM     25  C   LIG    1       22.545 -19.249   5.009  0.00  0.00    +0.001 A 
ATOM     26  C   LIG    1       23.385 -19.019   3.919  0.00  0.00    +0.000 A 
ATOM     27  C   LIG    1       24.357 -19.960   3.586  0.00  0.00    +0.001 A 
ATOM     28  C   LIG    1       24.496 -21.128   4.331  0.00  0.00    +0.011 A 
ENDBRANCH  21  23
ENDBRANCH  19  21
ENDBRANCH  18  19
ENDBRANCH   4  18
TORSDOF 9
ENDMDL
MODEL 7
REMARK VINA RESULT:      -8.2      3.962      7.102
REMARK  Name = *****
REMARK                            x       y       z     vdW  Elec       q    Type
REMARK                         _______ _______ _______ _____ _____    ______ ____
ROOT
ATOM      1  N   LIG    1       25.124 -25.747   5.839  0.00  0.00    -0.297 NA
ATOM      2  C   LIG    1       25.243 -24.952   4.603  0.00  0.00    +0.100 C 
ATOM      3  C   LIG    1       24.624 -23.524   4.716  0.00  0.00    +0.100 C 
ATOM      4  N   LIG    1       24.481 -23.021   6.113  0.00  0.00    -0.299 NA
ATOM      5  C   LIG    1       23.564 -23.982   6.772  0.00  0.00    +0.100 C 
ATOM      6  C   LIG    1       23.818 -25.498   6.471  0.00  0.00    +0.100 C 
ENDROOT
BRANCH   1   7
ATOM      7  C   LIG    1       25.485 -27.169   5.728  0.00  0.00    +0.120 C 
BRANCH   7   8
ATOM      8  C   LIG    1       24.590 -28.266   6.438  0.00  0.00    +0.162 C 
BRANCH   8   9
ATOM      9  C   LIG    1       25.082 -28.716   7.823  0.00  0.00    -0.018 A 
ATOM     10  C   LIG    1       26.248 -28.202   8.416  0.00  0.00    +0.006 A 
ATOM     11  C   LIG    1       26.657 -28.609   9.696  0.00  0.00    +0.000 A 
ATOM     12  C   LIG    1       25.887 -29.504  10.431  0.00  0.00    +0.000 A 
ATOM     13  C   LIG    1       24.741 -30.047   9.857  0.00  0.00    +0.000 A 
ATOM     14  C   LIG    1       24.370 -29.690   8.552  0.00  0.00    +0.006 A 
ENDBRANCH   8   9
BRANCH   8  15
ATOM     15  O   LIG    1       24.312 -29.397   5.577  0.00  0.00    -0.371 OA
BRANCH  15  17
ATOM     16  C   LIG    1       25.210 -31.645   5.448  0.00  0.00    +0.034 C 
ATOM     17  C   LIG    1       25.477 -30.166   5.265  0.00  0.00    +0.157 C 
ENDBRANCH  15  17
ENDBRANCH   8  15
ENDBRANCH   7   8
ENDBRANCH   1   7
BRANCH   4  18
ATOM     18  C   LIG    1       25.820 -22.960   6.767  0.00  0.00    +0.095 C 
BRANCH  18  19
ATOM     19  C   LIG    1       26.199 -21.645   7.493  0.00  0.00    +0.071 C 
ATOM     20  C   LIG    1       25.038 -20.804   8.003  0.00  0.00    +0.017 C 
BRANCH  19  21
ATOM     21  C   LIG    1       26.970 -20.744   6.462  0.00  0.00    +0.167 C 
ATOM     22  O   LIG    1       26.453 -20.280   5.470  0.00  0.00    -0.292 OA
BRANCH  21  23
ATOM     23  C   LIG    1       28.377 -20.355   6.785  0.00  0.00    +0.018 A 
ATOM     24  C   LIG    1       28.949 -19.269   6.106  0.00  0.00    +0.011 A 
ATOM     25  C   LIG    1       30.252 -18.863   6.383  0.00  0.00    +0.001 A 
ATOM     26  C   LIG    1       31.012 -19.547   7.333  0.00  0.00    +0.000 A 
ATOM     27  C   LIG    1       30.459 -20.633   8.008  0.00  0.00    +0.001 A 
ATOM     28  C   LIG    1       29.155 -21.041   7.744  0.00  0.00    +0.011 A 
ENDBRANCH  21  23
ENDBRANCH  19  21
ENDBRANCH  18  19
ENDBRANCH   4  18
TORSDOF 9
ENDMDL
MODEL 8
REMARK VINA RESULT:      -8.2      6.558     10.444
REMARK  Name = *****
REMARK                            x       y       z     vdW  Elec       q    Type
REMARK                         _______ _______ _______ _____ _____    ______ ____
ROOT
ATOM      1  N   LIG    1       25.433 -29.582  10.392  0.00  0.00    -0.297 NA
ATOM      2  C   LIG    1       26.555 -30.327   9.790  0.00  0.00    +0.100 C 
ATOM      3  C   LIG    1       26.270 -30.818   8.337  0.00  0.00    +0.100 C 
ATOM      4  N   LIG    1       25.191 -30.068   7.631  0.00  0.00    -0.299 NA
ATOM      5  C   LIG    1       23.973 -30.294   8.448  0.00  0.00    +0.100 C 
ATOM      6  C   LIG    1       24.155 -30.198  10.000  0.00  0.00    +0.100 C 
ENDROOT
BRANCH   1   7
ATOM      7  C   LIG    1       25.552 -29.289  11.829  0.00  0.00    +0.120 C 
BRANCH   7   8
ATOM      8  C   LIG    1       24.364 -29.660  12.809  0.00  0.00    +0.162 C 
BRANCH   8   9
ATOM      9  C   LIG    1       23.284 -28.577  12.966  0.00  0.00    -0.018 A 
ATOM     10  C   LIG    1       23.588 -27.245  13.293  0.00  0.00    +0.006 A 
ATOM     11  C   LIG    1       22.584 -26.270  13.400  0.00  0.00    +0.000 A 
ATOM     12  C   LIG    1       21.257 -26.594  13.140  0.00  0.00    +0.000 A 
ATOM     13  C   LIG    1       20.924 -27.911  12.839  0.00  0.00    +0.000 A 
ATOM     14  C   LIG    1       21.921 -28.898  12.798  0.00  0.00    +0.006 A 
ENDBRANCH   8   9
BRANCH   8  15
ATOM     15  O   LIG    1       24.832 -30.137  14.094  0.00  0.00    -0.371 OA
BRANCH  15  17
ATOM     16  C   LIG    1       26.772 -29.227  15.227  0.00  0.00    +0.034 C 
ATOM     17  C   LIG    1       26.258 -30.198  14.185  0.00  0.00    +0.157 C 
ENDBRANCH  15  17
ENDBRANCH   8  15
ENDBRANCH   7   8
ENDBRANCH   1   7
BRANCH   4  18
ATOM     18  C   LIG    1       25.559 -28.627   7.531  0.00  0.00    +0.095 C 
BRANCH  18  19
ATOM     19  C   LIG    1       24.852 -27.784   6.441  0.00  0.00    +0.071 C 
ATOM     20  C   LIG    1       24.677 -28.453   5.087  0.00  0.00    +0.017 C 
BRANCH  19  21
ATOM     21  C   LIG    1       25.734 -26.509   6.188  0.00  0.00    +0.167 C 
ATOM     22  O   LIG    1       26.819 -26.549   5.650  0.00  0.00    -0.292 OA
BRANCH  21  23
ATOM     23  C   LIG    1       25.153 -25.174   6.528  0.00  0.00    +0.018 A 
ATOM     24  C   LIG    1       23.772 -24.982   6.382  0.00  0.00    +0.011 A 
ATOM     25  C   LIG    1       23.185 -23.759   6.700  0.00  0.00    +0.001 A 
ATOM     26  C   LIG    1       23.973 -22.701   7.154  0.00  0.00    +0.000 A 
ATOM     27  C   LIG    1       25.348 -22.875   7.296  0.00  0.00    +0.001 A 
ATOM     28  C   LIG    1       25.942 -24.097   6.988  0.00  0.00    +0.011 A 
ENDBRANCH  21  23
ENDBRANCH  19  21
ENDBRANCH  18  19
ENDBRANCH   4  18
TORSDOF 9
ENDMDL
MODEL 9
REMARK VINA RESULT:      -8.2      6.440     10.402
REMARK  Name = *****
REMARK                            x       y       z     vdW  Elec       q    Type
REMARK                         _______ _______ _______ _____ _____    ______ ____
ROOT
ATOM      1  N   LIG    1       24.564 -30.436   9.872  0.00  0.00    -0.297 NA
ATOM      2  C   LIG    1       25.991 -30.698   9.609  0.00  0.00    +0.100 C 
ATOM      3  C   LIG    1       26.333 -30.825   8.091  0.00  0.00    +0.100 C 
ATOM      4  N   LIG    1       25.339 -30.189   7.178  0.00  0.00    -0.299 NA
ATOM      5  C   LIG    1       24.070 -30.913   7.434  0.00  0.00    +0.100 C 
ATOM      6  C   LIG    1       23.731 -31.206   8.935  0.00  0.00    +0.100 C 
ENDROOT
BRANCH   1   7
ATOM      7  C   LIG    1       24.142 -30.528  11.278  0.00  0.00    +0.120 C 
BRANCH   7   8
ATOM      8  C   LIG    1       22.715 -29.991  11.708  0.00  0.00    +0.162 C 
BRANCH   8   9
ATOM      9  C   LIG    1       22.720 -28.651  12.463  0.00  0.00    -0.018 A 
ATOM     10  C   LIG    1       23.903 -28.032  12.898  0.00  0.00    +0.006 A 
ATOM     11  C   LIG    1       23.880 -26.793  13.559  0.00  0.00    +0.000 A 
ATOM     12  C   LIG    1       22.677 -26.123  13.758  0.00  0.00    +0.000 A 
ATOM     13  C   LIG    1       21.488 -26.726  13.359  0.00  0.00    +0.000 A 
ATOM     14  C   LIG    1       21.508 -27.995  12.759  0.00  0.00    +0.006 A 
ENDBRANCH   8   9
BRANCH   8  15
ATOM     15  O   LIG    1       21.931 -30.992  12.403  0.00  0.00    -0.371 OA
BRANCH  15  17
ATOM     16  C   LIG    1       20.275 -30.810  10.643  0.00  0.00    +0.034 C 
ATOM     17  C   LIG    1       21.074 -31.737  11.535  0.00  0.00    +0.157 C 
ENDBRANCH  15  17
ENDBRANCH   8  15
ENDBRANCH   7   8
ENDBRANCH   1   7
BRANCH   4  18
ATOM     18  C   LIG    1       25.241 -28.732   7.474  0.00  0.00    +0.095 C 
BRANCH  18  19
ATOM     19  C   LIG    1       24.708 -27.810   6.350  0.00  0.00    +0.071 C 
ATOM     20  C   LIG    1       24.660 -28.415   4.955  0.00  0.00    +0.017 C 
BRANCH  19  21
ATOM     21  C   LIG    1       25.675 -26.575   6.256  0.00  0.00    +0.167 C 
ATOM     22  O   LIG    1       26.816 -26.655   5.855  0.00  0.00    -0.292 OA
BRANCH  21  23
ATOM     23  C   LIG    1       25.121 -25.223   6.574  0.00  0.00    +0.018 A 
ATOM     24  C   LIG    1       23.748 -24.999   6.401  0.00  0.00    +0.011 A 
ATOM     25  C   LIG    1       23.186 -23.760   6.698  0.00  0.00    +0.001 A 
ATOM     26  C   LIG    1       23.992 -22.717   7.156  0.00  0.00    +0.000 A 
ATOM     27  C   LIG    1       25.359 -22.923   7.324  0.00  0.00    +0.001 A 
ATOM     28  C   LIG    1       25.929 -24.161   7.038  0.00  0.00    +0.011 A 
ENDBRANCH  21  23
ENDBRANCH  19  21
ENDBRANCH  18  19
ENDBRANCH   4  18
TORSDOF 9
ENDMDL
