MODEL 1
REMARK VINA RESULT:      -8.2      0.000      0.000
REMARK  Name = *****
REMARK                            x       y       z     vdW  Elec       q    Type
REMARK                         _______ _______ _______ _____ _____    ______ ____
ROOT
ATOM      1  C   LIG    1       25.660 -27.466   6.789  0.00  0.00    +0.165 C 
ENDROOT
BRANCH   1   3
ATOM      2  C   LIG    1       26.057 -28.588   9.003  0.00  0.00    +0.219 C 
ATOM      3  N   LIG    1       25.196 -28.228   7.987  0.00  0.00    -0.303 N 
ATOM      4  H   LIG    1       24.196 -28.292   8.144  0.00  0.00    +0.149 HD
ATOM      5  O   LIG    1       27.273 -28.437   8.897  0.00  0.00    -0.275 OA
BRANCH   2   6
ATOM      6  C   LIG    1       25.426 -29.246  10.258  0.00  0.00    +0.100 C 
BRANCH   6   7
ATOM      7  C   LIG    1       26.303 -28.839  11.496  0.00  0.00    +0.049 C 
BRANCH   7   8
ATOM      8  C   LIG    1       25.895 -27.707  12.442  0.00  0.00    -0.047 A 
ATOM      9  C   LIG    1       26.663 -26.562  12.684  0.00  0.00    +0.003 A 
ATOM     10  C   LIG    1       26.156 -25.437  13.335  0.00  0.00    +0.000 A 
ATOM     11  C   LIG    1       24.854 -25.435  13.800  0.00  0.00    +0.000 A 
ATOM     12  C   LIG    1       24.081 -26.581  13.646  0.00  0.00    +0.000 A 
ATOM     13  C   LIG    1       24.592 -27.702  12.972  0.00  0.00    +0.003 A 
ENDBRANCH   7   8
ENDBRANCH   6   7
BRANCH   6  14
ATOM     14  C   LIG    1       25.350 -30.777  10.103  0.00  0.00    +0.179 C 
BRANCH  14  15
ATOM     15  S   LIG    1       23.785 -31.485   9.681  0.00  0.00    -0.025 S 
ATOM     16  O   LIG    1       23.140 -30.580   8.718  0.00  0.00    -0.174 OA
ATOM     17  O   LIG    1       24.072 -32.837   9.348  0.00  0.00    -0.174 OA
BRANCH  15  19
ATOM     18  C   LIG    1       23.665 -31.711  12.458  0.00  0.00    +0.035 C 
ATOM     19  C   LIG    1       22.771 -31.528  11.224  0.00  0.00    +0.080 C 
ATOM     20  C   LIG    1       22.018 -30.193  11.399  0.00  0.00    +0.035 C 
ATOM     21  C   LIG    1       21.709 -32.633  11.080  0.00  0.00    +0.035 C 
ENDBRANCH  15  19
ENDBRANCH  14  15
ENDBRANCH   6  14
ENDBRANCH   2   6
ENDBRANCH   1   3
BRANCH   1  22
ATOM     22  C   LIG    1       24.985 -26.026   6.701  0.00  0.00    +0.234 C 
ATOM     23  N   LIG    1       25.842 -24.935   6.827  0.00  0.00    -0.308 N 
ATOM     24  H   LIG    1       26.796 -25.084   7.137  0.00  0.00    +0.149 HD
ATOM     25  O   LIG    1       23.780 -25.875   6.493  0.00  0.00    -0.274 OA
BRANCH  23  26
ATOM     26  C   LIG    1       25.417 -23.503   6.770  0.00  0.00    +0.104 C 
BRANCH  26  27
ATOM     27  C   LIG    1       24.796 -23.142   5.377  0.00  0.00    +0.163 C 
BRANCH  27  28
ATOM     28  O   LIG    1       24.871 -24.264   4.472  0.00  0.00    -0.387 OA
ATOM     29  H   LIG    1       25.815 -24.312   4.214  0.00  0.00    +0.210 HD
ENDBRANCH  27  28
BRANCH  27  30
ATOM     30  C   LIG    1       23.333 -22.606   5.402  0.00  0.00    +0.148 C 
BRANCH  30  31
ATOM     31  C   LIG    1       23.209 -21.141   5.708  0.00  0.00    +0.020 C 
ATOM     32  C   LIG    1       23.637 -20.062   4.746  0.00  0.00    +0.006 C 
ATOM     33  C   LIG    1       22.184 -20.327   4.945  0.00  0.00    +0.006 C 
ENDBRANCH  30  31
BRANCH  30  34
ATOM     34  O   LIG    1       22.642 -23.328   6.444  0.00  0.00    -0.389 OA
ATOM     35  H   LIG    1       22.019 -23.947   6.019  0.00  0.00    +0.210 HD
ENDBRANCH  30  34
ENDBRANCH  27  30
ENDBRANCH  26  27
BRANCH  26  36
ATOM     36  C   LIG    1       26.645 -22.612   7.165  0.00  0.00    +0.028 C 
BRANCH  36  37
ATOM     37  C   LIG    1       26.454 -21.068   7.227  0.00  0.00    -0.009 C 
ATOM     38  C   LIG    1       27.161 -20.379   8.404  0.00  0.00    +0.003 C 
ATOM     39  C   LIG    1       28.671 -20.273   8.217  0.00  0.00    +0.000 C 
ATOM     40  C   LIG    1       28.999 -19.473   6.963  0.00  0.00    +0.000 C 
ATOM     41  C   LIG    1       28.353 -20.089   5.727  0.00  0.00    +0.000 C 
ATOM     42  C   LIG    1       26.854 -20.357   5.906  0.00  0.00    +0.003 C 
ENDBRANCH  36  37
ENDBRANCH  26  36
ENDBRANCH  23  26
ENDBRANCH   1  22
BRANCH   1  43
ATOM     43  C   LIG    1       25.325 -28.227   5.495  0.00  0.00    +0.086 C 
BRANCH  43  44
ATOM     44  C   LIG    1       25.024 -29.681   5.491  0.00  0.00    +0.037 A 
ATOM     45  N   LIG    1       23.804 -30.227   5.737  0.00  0.00    -0.348 N 
ATOM     46  H   LIG    1       22.926 -29.726   5.838  0.00  0.00    +0.167 HD
ATOM     47  C   LIG    1       23.898 -31.579   5.566  0.00  0.00    +0.196 A 
ATOM     48  N   LIG    1       25.120 -31.942   5.260  0.00  0.00    -0.244 NA
ATOM     49  C   LIG    1       25.827 -30.770   5.202  0.00  0.00    +0.133 A 
ENDBRANCH  43  44
ENDBRANCH   1  43
TORSDOF 18
ENDMDL
MODEL 2
REMARK VINA RESULT:      -7.6      2.321      9.153
REMARK  Name = *****
REMARK                            x       y       z     vdW  Elec       q    Type
REMARK                         _______ _______ _______ _____ _____    ______ ____
ROOT
ATOM      1  C   LIG    1       24.792 -26.886   6.723  0.00  0.00    +0.165 C 
ENDROOT
BRANCH   1   3
ATOM      2  C   LIG    1       24.122 -24.468   6.562  0.00  0.00    +0.219 C 
ATOM      3  N   LIG    1       25.097 -25.442   6.495  0.00  0.00    -0.303 N 
ATOM      4  H   LIG    1       26.072 -25.163   6.499  0.00  0.00    +0.149 HD
ATOM      5  O   LIG    1       22.931 -24.759   6.658  0.00  0.00    -0.275 OA
BRANCH   2   6
ATOM      6  C   LIG    1       24.593 -22.995   6.453  0.00  0.00    +0.100 C 
BRANCH   6   7
ATOM      7  C   LIG    1       24.478 -22.573   4.944  0.00  0.00    +0.049 C 
BRANCH   7   8
ATOM      8  C   LIG    1       23.880 -21.230   4.520  0.00  0.00    -0.047 A 
ATOM      9  C   LIG    1       22.660 -20.724   4.988  0.00  0.00    +0.003 A 
ATOM     10  C   LIG    1       22.270 -19.398   4.795  0.00  0.00    +0.000 A 
ATOM     11  C   LIG    1       23.085 -18.534   4.088  0.00  0.00    +0.000 A 
ATOM     12  C   LIG    1       24.269 -19.017   3.542  0.00  0.00    +0.000 A 
ATOM     13  C   LIG    1       24.666 -20.347   3.758  0.00  0.00    +0.003 A 
ENDBRANCH   7   8
ENDBRANCH   6   7
BRANCH   6  14
ATOM     14  C   LIG    1       26.034 -22.832   6.973  0.00  0.00    +0.179 C 
BRANCH  14  15
ATOM     15  S   LIG    1       26.430 -21.348   7.851  0.00  0.00    -0.025 S 
ATOM     16  O   LIG    1       25.322 -20.405   7.640  0.00  0.00    -0.174 OA
ATOM     17  O   LIG    1       26.795 -21.781   9.155  0.00  0.00    -0.174 OA
BRANCH  15  19
ATOM     18  C   LIG    1       27.647 -20.052   5.704  0.00  0.00    +0.035 C 
ATOM     19  C   LIG    1       27.957 -20.650   7.083  0.00  0.00    +0.080 C 
ATOM     20  C   LIG    1       28.516 -19.510   7.959  0.00  0.00    +0.035 C 
ATOM     21  C   LIG    1       29.029 -21.754   7.034  0.00  0.00    +0.035 C 
ENDBRANCH  15  19
ENDBRANCH  14  15
ENDBRANCH   6  14
ENDBRANCH   2   6
ENDBRANCH   1   3
BRANCH   1  22
ATOM     22  C   LIG    1       25.839 -27.568   7.710  0.00  0.00    +0.234 C 
ATOM     23  N   LIG    1       25.369 -28.644   8.460  0.00  0.00    -0.308 N 
ATOM     24  H   LIG    1       24.374 -28.836   8.486  0.00  0.00    +0.149 HD
ATOM     25  O   LIG    1       27.011 -27.197   7.785  0.00  0.00    -0.274 OA
BRANCH  23  26
ATOM     26  C   LIG    1       26.184 -29.425   9.439  0.00  0.00    +0.104 C 
BRANCH  26  27
ATOM     27  C   LIG    1       25.810 -30.946   9.416  0.00  0.00    +0.163 C 
BRANCH  27  28
ATOM     28  O   LIG    1       26.184 -31.590  10.653  0.00  0.00    -0.387 OA
ATOM     29  H   LIG    1       25.879 -30.976  11.353  0.00  0.00    +0.210 HD
ENDBRANCH  27  28
BRANCH  27  30
ATOM     30  C   LIG    1       24.319 -31.276   9.103  0.00  0.00    +0.148 C 
BRANCH  30  31
ATOM     31  C   LIG    1       23.444 -31.425  10.315  0.00  0.00    +0.020 C 
ATOM     32  C   LIG    1       22.946 -30.249  11.118  0.00  0.00    +0.006 C 
ATOM     33  C   LIG    1       22.000 -30.975  10.225  0.00  0.00    +0.006 C 
ENDBRANCH  30  31
BRANCH  30  34
ATOM     34  O   LIG    1       24.309 -32.538   8.402  0.00  0.00    -0.389 OA
ATOM     35  H   LIG    1       23.546 -32.539   7.795  0.00  0.00    +0.210 HD
ENDBRANCH  30  34
ENDBRANCH  27  30
ENDBRANCH  26  27
BRANCH  26  36
ATOM     36  C   LIG    1       26.028 -28.756  10.849  0.00  0.00    +0.028 C 
BRANCH  36  37
ATOM     37  C   LIG    1       27.279 -28.095  11.501  0.00  0.00    -0.009 C 
ATOM     38  C   LIG    1       26.964 -27.052  12.583  0.00  0.00    +0.003 C 
ATOM     39  C   LIG    1       26.498 -27.674  13.896  0.00  0.00    +0.000 C 
ATOM     40  C   LIG    1       27.570 -28.598  14.459  0.00  0.00    +0.000 C 
ATOM     41  C   LIG    1       27.943 -29.688  13.460  0.00  0.00    +0.000 C 
ATOM     42  C   LIG    1       28.282 -29.134  12.070  0.00  0.00    +0.003 C 
ENDBRANCH  36  37
ENDBRANCH  26  36
ENDBRANCH  23  26
ENDBRANCH   1  22
BRANCH   1  43
ATOM     43  C   LIG    1       24.814 -27.664   5.396  0.00  0.00    +0.086 C 
BRANCH  43  44
ATOM     44  C   LIG    1       24.883 -29.147   5.353  0.00  0.00    +0.037 A 
ATOM     45  N   LIG    1       25.990 -29.868   5.038  0.00  0.00    -0.348 N 
ATOM     46  H   LIG    1       26.932 -29.508   4.909  0.00  0.00    +0.167 HD
ATOM     47  C   LIG    1       25.693 -31.194   5.182  0.00  0.00    +0.196 A 
ATOM     48  N   LIG    1       24.442 -31.371   5.534  0.00  0.00    -0.244 NA
ATOM     49  C   LIG    1       23.931 -30.106   5.652  0.00  0.00    +0.133 A 
ENDBRANCH  43  44
ENDBRANCH   1  43
TORSDOF 18
ENDMDL
MODEL 3
REMARK VINA RESULT:      -7.0      1.727      3.159
REMARK  Name = *****
REMARK                            x       y       z     vdW  Elec       q    Type
REMARK                         _______ _______ _______ _____ _____    ______ ____
ROOT
ATOM      1  C   LIG    1       25.735 -27.536   6.870  0.00  0.00    +0.165 C 
ENDROOT
BRANCH   1   3
ATOM      2  C   LIG    1       26.124 -28.799   9.009  0.00  0.00    +0.219 C 
ATOM      3  N   LIG    1       25.258 -28.329   8.042  0.00  0.00    -0.303 N 
ATOM      4  H   LIG    1       24.261 -28.336   8.229  0.00  0.00    +0.149 HD
ATOM      5  O   LIG    1       27.343 -28.722   8.870  0.00  0.00    -0.275 OA
BRANCH   2   6
ATOM      6  C   LIG    1       25.489 -29.480  10.248  0.00  0.00    +0.100 C 
BRANCH   6   7
ATOM      7  C   LIG    1       23.978 -29.755   9.914  0.00  0.00    +0.049 C 
BRANCH   7   8
ATOM      8  C   LIG    1       23.063 -30.522  10.870  0.00  0.00    -0.047 A 
ATOM      9  C   LIG    1       23.316 -31.816  11.343  0.00  0.00    +0.003 A 
ATOM     10  C   LIG    1       22.613 -32.382  12.406  0.00  0.00    +0.000 A 
ATOM     11  C   LIG    1       21.596 -31.674  13.018  0.00  0.00    +0.000 A 
ATOM     12  C   LIG    1       21.262 -30.415  12.530  0.00  0.00    +0.000 A 
ATOM     13  C   LIG    1       21.988 -29.843  11.473  0.00  0.00    +0.003 A 
ENDBRANCH   7   8
ENDBRANCH   6   7
BRANCH   6  14
ATOM     14  C   LIG    1       25.634 -28.598  11.503  0.00  0.00    +0.179 C 
BRANCH  14  15
ATOM     15  S   LIG    1       26.864 -29.051  12.691  0.00  0.00    -0.025 S 
ATOM     16  O   LIG    1       27.764 -30.017  12.043  0.00  0.00    -0.174 OA
ATOM     17  O   LIG    1       27.348 -27.817  13.205  0.00  0.00    -0.174 OA
BRANCH  15  19
ATOM     18  C   LIG    1       24.530 -29.440  14.166  0.00  0.00    +0.035 C 
ATOM     19  C   LIG    1       25.993 -29.894  14.084  0.00  0.00    +0.080 C 
ATOM     20  C   LIG    1       25.986 -31.420  13.856  0.00  0.00    +0.035 C 
ATOM     21  C   LIG    1       26.779 -29.632  15.382  0.00  0.00    +0.035 C 
ENDBRANCH  15  19
ENDBRANCH  14  15
ENDBRANCH   6  14
ENDBRANCH   2   6
ENDBRANCH   1   3
BRANCH   1  22
ATOM     22  C   LIG    1       25.030 -26.110   6.790  0.00  0.00    +0.234 C 
ATOM     23  N   LIG    1       25.869 -25.001   6.885  0.00  0.00    -0.308 N 
ATOM     24  H   LIG    1       26.833 -25.130   7.171  0.00  0.00    +0.149 HD
ATOM     25  O   LIG    1       23.818 -25.984   6.613  0.00  0.00    -0.274 OA
BRANCH  23  26
ATOM     26  C   LIG    1       25.415 -23.579   6.829  0.00  0.00    +0.104 C 
BRANCH  26  27
ATOM     27  C   LIG    1       24.792 -23.228   5.435  0.00  0.00    +0.163 C 
BRANCH  27  28
ATOM     28  O   LIG    1       24.901 -24.344   4.525  0.00  0.00    -0.387 OA
ATOM     29  H   LIG    1       25.360 -23.978   3.740  0.00  0.00    +0.210 HD
ENDBRANCH  27  28
BRANCH  27  30
ATOM     30  C   LIG    1       23.315 -22.732   5.455  0.00  0.00    +0.148 C 
BRANCH  30  31
ATOM     31  C   LIG    1       23.151 -21.268   5.752  0.00  0.00    +0.020 C 
ATOM     32  C   LIG    1       23.602 -20.183   4.808  0.00  0.00    +0.006 C 
ATOM     33  C   LIG    1       22.146 -20.473   4.943  0.00  0.00    +0.006 C 
ENDBRANCH  30  31
BRANCH  30  34
ATOM     34  O   LIG    1       22.643 -23.466   6.500  0.00  0.00    -0.389 OA
ATOM     35  H   LIG    1       22.393 -24.339   6.143  0.00  0.00    +0.210 HD
ENDBRANCH  30  34
ENDBRANCH  27  30
ENDBRANCH  26  27
BRANCH  26  36
ATOM     36  C   LIG    1       26.624 -22.664   7.230  0.00  0.00    +0.028 C 
BRANCH  36  37
ATOM     37  C   LIG    1       26.410 -21.121   7.262  0.00  0.00    -0.009 C 
ATOM     38  C   LIG    1       27.106 -20.399   8.426  0.00  0.00    +0.003 C 
ATOM     39  C   LIG    1       28.615 -20.275   8.237  0.00  0.00    +0.000 C 
ATOM     40  C   LIG    1       28.931 -19.494   6.968  0.00  0.00    +0.000 C 
ATOM     41  C   LIG    1       28.295 -20.144   5.744  0.00  0.00    +0.000 C 
ATOM     42  C   LIG    1       26.800 -20.430   5.927  0.00  0.00    +0.003 C 
ENDBRANCH  36  37
ENDBRANCH  26  36
ENDBRANCH  23  26
ENDBRANCH   1  22
BRANCH   1  43
ATOM     43  C   LIG    1       25.450 -28.281   5.555  0.00  0.00    +0.086 C 
BRANCH  43  44
ATOM     44  C   LIG    1       25.087 -29.720   5.527  0.00  0.00    +0.037 A 
ATOM     45  N   LIG    1       23.851 -30.219   5.789  0.00  0.00    -0.348 N 
ATOM     46  H   LIG    1       22.997 -29.684   5.921  0.00  0.00    +0.167 HD
ATOM     47  C   LIG    1       23.882 -31.569   5.587  0.00  0.00    +0.196 A 
ATOM     48  N   LIG    1       25.081 -31.977   5.246  0.00  0.00    -0.244 NA
ATOM     49  C   LIG    1       25.836 -30.836   5.197  0.00  0.00    +0.133 A 
ENDBRANCH  43  44
ENDBRANCH   1  43
TORSDOF 18
ENDMDL
MODEL 4
REMARK VINA RESULT:      -7.0      3.458     10.262
REMARK  Name = *****
REMARK                            x       y       z     vdW  Elec       q    Type
REMARK                         _______ _______ _______ _____ _____    ______ ____
ROOT
ATOM      1  C   LIG    1       25.378 -23.665   7.173  0.00  0.00    +0.165 C 
ENDROOT
BRANCH   1   3
ATOM      2  C   LIG    1       26.778 -21.721   7.935  0.00  0.00    +0.219 C 
ATOM      3  N   LIG    1       26.355 -22.564   6.927  0.00  0.00    -0.303 N 
ATOM      4  H   LIG    1       26.866 -22.578   6.051  0.00  0.00    +0.149 HD
ATOM      5  O   LIG    1       26.253 -21.738   9.046  0.00  0.00    -0.275 OA
BRANCH   2   6
ATOM      6  C   LIG    1       27.904 -20.715   7.582  0.00  0.00    +0.100 C 
BRANCH   6   7
ATOM      7  C   LIG    1       27.999 -20.642   6.016  0.00  0.00    +0.049 C 
BRANCH   7   8
ATOM      8  C   LIG    1       27.281 -19.558   5.209  0.00  0.00    -0.047 A 
ATOM      9  C   LIG    1       27.856 -18.337   4.837  0.00  0.00    +0.003 A 
ATOM     10  C   LIG    1       27.281 -17.490   3.889  0.00  0.00    +0.000 A 
ATOM     11  C   LIG    1       26.077 -17.828   3.300  0.00  0.00    +0.000 A 
ATOM     12  C   LIG    1       25.435 -18.995   3.697  0.00  0.00    +0.000 A 
ATOM     13  C   LIG    1       26.030 -19.853   4.637  0.00  0.00    +0.003 A 
ENDBRANCH   7   8
ENDBRANCH   6   7
BRANCH   6  14
ATOM     14  C   LIG    1       29.246 -21.141   8.207  0.00  0.00    +0.179 C 
BRANCH  14  15
ATOM     15  S   LIG    1       30.674 -20.163   7.838  0.00  0.00    -0.025 S 
ATOM     16  O   LIG    1       31.848 -20.902   8.326  0.00  0.00    -0.174 OA
ATOM     17  O   LIG    1       30.536 -19.816   6.467  0.00  0.00    -0.174 OA
BRANCH  15  19
ATOM     18  C   LIG    1       30.001 -18.867  10.213  0.00  0.00    +0.035 C 
ATOM     19  C   LIG    1       30.522 -18.592   8.796  0.00  0.00    +0.080 C 
ATOM     20  C   LIG    1       31.905 -17.924   8.939  0.00  0.00    +0.035 C 
ATOM     21  C   LIG    1       29.627 -17.621   8.003  0.00  0.00    +0.035 C 
ENDBRANCH  15  19
ENDBRANCH  14  15
ENDBRANCH   6  14
ENDBRANCH   2   6
ENDBRANCH   1   3
BRANCH   1  22
ATOM     22  C   LIG    1       25.946 -25.080   6.713  0.00  0.00    +0.234 C 
ATOM     23  N   LIG    1       25.551 -26.180   7.472  0.00  0.00    -0.308 N 
ATOM     24  H   LIG    1       25.083 -26.031   8.359  0.00  0.00    +0.149 HD
ATOM     25  O   LIG    1       26.662 -25.210   5.720  0.00  0.00    -0.274 OA
BRANCH  23  26
ATOM     26  C   LIG    1       25.965 -27.592   7.211  0.00  0.00    +0.104 C 
BRANCH  26  27
ATOM     27  C   LIG    1       25.305 -28.152   5.904  0.00  0.00    +0.163 C 
BRANCH  27  28
ATOM     28  O   LIG    1       26.281 -28.289   4.850  0.00  0.00    -0.387 OA
ATOM     29  H   LIG    1       26.804 -29.080   5.098  0.00  0.00    +0.210 HD
ENDBRANCH  27  28
BRANCH  27  30
ATOM     30  C   LIG    1       24.530 -29.495   6.055  0.00  0.00    +0.148 C 
BRANCH  30  31
ATOM     31  C   LIG    1       25.226 -30.690   5.469  0.00  0.00    +0.020 C 
ATOM     32  C   LIG    1       26.150 -31.575   6.267  0.00  0.00    +0.006 C 
ATOM     33  C   LIG    1       24.791 -32.072   5.912  0.00  0.00    +0.006 C 
ENDBRANCH  30  31
BRANCH  30  34
ATOM     34  O   LIG    1       23.277 -29.335   5.355  0.00  0.00    -0.389 OA
ATOM     35  H   LIG    1       22.823 -28.554   5.723  0.00  0.00    +0.210 HD
ENDBRANCH  30  34
ENDBRANCH  27  30
ENDBRANCH  26  27
BRANCH  26  36
ATOM     36  C   LIG    1       25.650 -28.439   8.492  0.00  0.00    +0.028 C 
BRANCH  36  37
ATOM     37  C   LIG    1       26.821 -28.795   9.454  0.00  0.00    -0.009 C 
ATOM     38  C   LIG    1       26.761 -28.105  10.825  0.00  0.00    +0.003 C 
ATOM     39  C   LIG    1       25.704 -28.701  11.749  0.00  0.00    +0.000 C 
ATOM     40  C   LIG    1       25.985 -30.178  11.999  0.00  0.00    +0.000 C 
ATOM     41  C   LIG    1       26.048 -30.960  10.692  0.00  0.00    +0.000 C 
ATOM     42  C   LIG    1       26.989 -30.325   9.660  0.00  0.00    +0.003 C 
ENDBRANCH  36  37
ENDBRANCH  26  36
ENDBRANCH  23  26
ENDBRANCH   1  22
BRANCH   1  43
ATOM     43  C   LIG    1       24.065 -23.411   6.413  0.00  0.00    +0.086 C 
BRANCH  43  44
ATOM     44  C   LIG    1       23.537 -22.041   6.188  0.00  0.00    +0.037 A 
ATOM     45  N   LIG    1       22.972 -21.602   5.034  0.00  0.00    -0.348 N 
ATOM     46  H   LIG    1       22.729 -22.167   4.224  0.00  0.00    +0.167 HD
ATOM     47  C   LIG    1       22.536 -20.322   5.230  0.00  0.00    +0.196 A 
ATOM     48  N   LIG    1       22.823 -19.896   6.436  0.00  0.00    -0.244 NA
ATOM     49  C   LIG    1       23.437 -20.958   7.044  0.00  0.00    +0.133 A 
ENDBRANCH  43  44
ENDBRANCH   1  43
TORSDOF 18
ENDMDL
MODEL 5
REMARK VINA RESULT:      -6.9      2.371      8.935
REMARK  Name = *****
REMARK                            x       y       z     vdW  Elec       q    Type
REMARK                         _______ _______ _______ _____ _____    ______ ____
ROOT
ATOM      1  C   LIG    1       24.615 -27.911   6.045  0.00  0.00    +0.165 C 
ENDROOT
BRANCH   1   3
ATOM      2  C   LIG    1       24.424 -25.405   5.973  0.00  0.00    +0.219 C 
ATOM      3  N   LIG    1       25.142 -26.554   5.710  0.00  0.00    -0.303 N 
ATOM      4  H   LIG    1       26.127 -26.477   5.481  0.00  0.00    +0.149 HD
ATOM      5  O   LIG    1       23.254 -25.452   6.349  0.00  0.00    -0.275 OA
BRANCH   2   6
ATOM      6  C   LIG    1       25.140 -24.055   5.714  0.00  0.00    +0.100 C 
BRANCH   6   7
ATOM      7  C   LIG    1       26.320 -23.941   6.746  0.00  0.00    +0.049 C 
BRANCH   7   8
ATOM      8  C   LIG    1       26.659 -22.624   7.448  0.00  0.00    -0.047 A 
ATOM      9  C   LIG    1       27.772 -21.830   7.145  0.00  0.00    +0.003 A 
ATOM     10  C   LIG    1       27.912 -20.521   7.608  0.00  0.00    +0.000 A 
ATOM     11  C   LIG    1       26.945 -19.970   8.427  0.00  0.00    +0.000 A 
ATOM     12  C   LIG    1       25.862 -20.751   8.813  0.00  0.00    +0.000 A 
ATOM     13  C   LIG    1       25.716 -22.061   8.327  0.00  0.00    +0.003 A 
ENDBRANCH   7   8
ENDBRANCH   6   7
BRANCH   6  14
ATOM     14  C   LIG    1       24.162 -22.872   5.848  0.00  0.00    +0.179 C 
BRANCH  14  15
ATOM     15  S   LIG    1       24.303 -21.551   4.679  0.00  0.00    -0.025 S 
ATOM     16  O   LIG    1       25.597 -20.894   4.914  0.00  0.00    -0.174 OA
ATOM     17  O   LIG    1       23.987 -22.137   3.424  0.00  0.00    -0.174 OA
BRANCH  15  19
ATOM     18  C   LIG    1       22.996 -19.919   6.524  0.00  0.00    +0.035 C 
ATOM     19  C   LIG    1       22.952 -20.347   5.051  0.00  0.00    +0.080 C 
ATOM     20  C   LIG    1       23.130 -19.073   4.200  0.00  0.00    +0.035 C 
ATOM     21  C   LIG    1       21.608 -20.980   4.647  0.00  0.00    +0.035 C 
ENDBRANCH  15  19
ENDBRANCH  14  15
ENDBRANCH   6  14
ENDBRANCH   2   6
ENDBRANCH   1   3
BRANCH   1  22
ATOM     22  C   LIG    1       25.017 -28.358   7.520  0.00  0.00    +0.234 C 
ATOM     23  N   LIG    1       24.144 -29.238   8.156  0.00  0.00    -0.308 N 
ATOM     24  H   LIG    1       23.232 -29.415   7.750  0.00  0.00    +0.149 HD
ATOM     25  O   LIG    1       26.059 -27.985   8.060  0.00  0.00    -0.274 OA
BRANCH  23  26
ATOM     26  C   LIG    1       24.334 -29.783   9.534  0.00  0.00    +0.104 C 
BRANCH  26  27
ATOM     27  C   LIG    1       25.524 -30.802   9.591  0.00  0.00    +0.163 C 
BRANCH  27  28
ATOM     28  O   LIG    1       25.959 -31.162   8.263  0.00  0.00    -0.387 OA
ATOM     29  H   LIG    1       25.218 -31.686   7.893  0.00  0.00    +0.210 HD
ENDBRANCH  27  28
BRANCH  27  30
ATOM     30  C   LIG    1       26.761 -30.358  10.428  0.00  0.00    +0.148 C 
BRANCH  30  31
ATOM     31  C   LIG    1       26.450 -29.406  11.547  0.00  0.00    +0.020 C 
ATOM     32  C   LIG    1       27.506 -28.849  12.469  0.00  0.00    +0.006 C 
ATOM     33  C   LIG    1       26.912 -27.968  11.424  0.00  0.00    +0.006 C 
ENDBRANCH  30  31
BRANCH  30  34
ATOM     34  O   LIG    1       27.659 -29.684   9.520  0.00  0.00    -0.389 OA
ATOM     35  H   LIG    1       28.570 -29.825   9.838  0.00  0.00    +0.210 HD
ENDBRANCH  30  34
ENDBRANCH  27  30
ENDBRANCH  26  27
BRANCH  26  36
ATOM     36  C   LIG    1       22.967 -30.380  10.018  0.00  0.00    +0.028 C 
BRANCH  36  37
ATOM     37  C   LIG    1       22.804 -30.742  11.523  0.00  0.00    -0.009 C 
ATOM     38  C   LIG    1       23.068 -29.583  12.496  0.00  0.00    +0.003 C 
ATOM     39  C   LIG    1       21.936 -28.560  12.529  0.00  0.00    +0.000 C 
ATOM     40  C   LIG    1       20.632 -29.221  12.957  0.00  0.00    +0.000 C 
ATOM     41  C   LIG    1       20.270 -30.382  12.038  0.00  0.00    +0.000 C 
ATOM     42  C   LIG    1       21.423 -31.375  11.846  0.00  0.00    +0.003 C 
ENDBRANCH  36  37
ENDBRANCH  26  36
ENDBRANCH  23  26
ENDBRANCH   1  22
BRANCH   1  43
ATOM     43  C   LIG    1       25.159 -28.964   5.064  0.00  0.00    +0.086 C 
BRANCH  43  44
ATOM     44  C   LIG    1       25.002 -30.421   5.305  0.00  0.00    +0.037 A 
ATOM     45  N   LIG    1       23.835 -31.038   5.622  0.00  0.00    -0.348 N 
ATOM     46  H   LIG    1       22.909 -30.621   5.623  0.00  0.00    +0.167 HD
ATOM     47  C   LIG    1       24.066 -32.383   5.686  0.00  0.00    +0.196 A 
ATOM     48  N   LIG    1       25.327 -32.666   5.466  0.00  0.00    -0.244 NA
ATOM     49  C   LIG    1       25.918 -31.455   5.218  0.00  0.00    +0.133 A 
ENDBRANCH  43  44
ENDBRANCH   1  43
TORSDOF 18
ENDMDL
MODEL 6
REMARK VINA RESULT:      -6.8      2.250      8.574
REMARK  Name = *****
REMARK                            x       y       z     vdW  Elec       q    Type
REMARK                         _______ _______ _______ _____ _____    ______ ____
ROOT
ATOM      1  C   LIG    1       24.728 -27.989   6.338  0.00  0.00    +0.165 C 
ENDROOT
BRANCH   1   3
ATOM      2  C   LIG    1       24.483 -25.538   5.835  0.00  0.00    +0.219 C 
ATOM      3  N   LIG    1       25.277 -26.607   6.196  0.00  0.00    -0.303 N 
ATOM      4  H   LIG    1       26.200 -26.428   6.577  0.00  0.00    +0.149 HD
ATOM      5  O   LIG    1       23.323 -25.699   5.461  0.00  0.00    -0.275 OA
BRANCH   2   6
ATOM      6  C   LIG    1       25.139 -24.134   5.866  0.00  0.00    +0.100 C 
BRANCH   6   7
ATOM      7  C   LIG    1       25.981 -24.036   7.189  0.00  0.00    +0.049 C 
BRANCH   7   8
ATOM      8  C   LIG    1       26.516 -22.701   7.713  0.00  0.00    -0.047 A 
ATOM      9  C   LIG    1       27.735 -22.131   7.326  0.00  0.00    +0.003 A 
ATOM     10  C   LIG    1       28.072 -20.807   7.611  0.00  0.00    +0.000 A 
ATOM     11  C   LIG    1       27.201 -20.011   8.329  0.00  0.00    +0.000 A 
ATOM     12  C   LIG    1       26.012 -20.561   8.796  0.00  0.00    +0.000 A 
ATOM     13  C   LIG    1       25.670 -21.888   8.489  0.00  0.00    +0.003 A 
ENDBRANCH   7   8
ENDBRANCH   6   7
BRANCH   6  14
ATOM     14  C   LIG    1       24.076 -23.022   5.794  0.00  0.00    +0.179 C 
BRANCH  14  15
ATOM     15  S   LIG    1       24.363 -21.679   4.677  0.00  0.00    -0.025 S 
ATOM     16  O   LIG    1       25.662 -21.087   5.029  0.00  0.00    -0.174 OA
ATOM     17  O   LIG    1       24.121 -22.220   3.385  0.00  0.00    -0.174 OA
BRANCH  15  19
ATOM     18  C   LIG    1       21.652 -21.025   4.707  0.00  0.00    +0.035 C 
ATOM     19  C   LIG    1       23.039 -20.427   4.978  0.00  0.00    +0.080 C 
ATOM     20  C   LIG    1       23.062 -19.978   6.454  0.00  0.00    +0.035 C 
ATOM     21  C   LIG    1       23.338 -19.184   4.120  0.00  0.00    +0.035 C 
ENDBRANCH  15  19
ENDBRANCH  14  15
ENDBRANCH   6  14
ENDBRANCH   2   6
ENDBRANCH   1   3
BRANCH   1  22
ATOM     22  C   LIG    1       25.014 -28.599   7.781  0.00  0.00    +0.234 C 
ATOM     23  N   LIG    1       26.246 -28.283   8.350  0.00  0.00    -0.308 N 
ATOM     24  H   LIG    1       26.961 -27.846   7.780  0.00  0.00    +0.149 HD
ATOM     25  O   LIG    1       24.184 -29.278   8.385  0.00  0.00    -0.274 OA
BRANCH  23  26
ATOM     26  C   LIG    1       26.711 -28.746   9.693  0.00  0.00    +0.104 C 
BRANCH  26  27
ATOM     27  C   LIG    1       27.270 -30.210   9.635  0.00  0.00    +0.163 C 
BRANCH  27  28
ATOM     28  O   LIG    1       27.937 -30.557  10.867  0.00  0.00    -0.387 OA
ATOM     29  H   LIG    1       27.384 -30.154  11.570  0.00  0.00    +0.210 HD
ENDBRANCH  27  28
BRANCH  27  30
ATOM     30  C   LIG    1       26.234 -31.320   9.288  0.00  0.00    +0.148 C 
BRANCH  30  31
ATOM     31  C   LIG    1       25.912 -32.253  10.420  0.00  0.00    +0.020 C 
ATOM     32  C   LIG    1       24.807 -31.989  11.413  0.00  0.00    +0.006 C 
ATOM     33  C   LIG    1       24.616 -33.036  10.368  0.00  0.00    +0.006 C 
ENDBRANCH  30  31
BRANCH  30  34
ATOM     34  O   LIG    1       26.809 -32.110   8.225  0.00  0.00    -0.389 OA
ATOM     35  H   LIG    1       27.662 -32.463   8.540  0.00  0.00    +0.210 HD
ENDBRANCH  30  34
ENDBRANCH  27  30
ENDBRANCH  26  27
BRANCH  26  36
ATOM     36  C   LIG    1       25.533 -28.558  10.710  0.00  0.00    +0.028 C 
BRANCH  36  37
ATOM     37  C   LIG    1       25.858 -28.558  12.233  0.00  0.00    -0.009 C 
ATOM     38  C   LIG    1       26.922 -27.537  12.664  0.00  0.00    +0.003 C 
ATOM     39  C   LIG    1       26.401 -26.104  12.685  0.00  0.00    +0.000 C 
ATOM     40  C   LIG    1       25.233 -25.974  13.654  0.00  0.00    +0.000 C 
ATOM     41  C   LIG    1       24.109 -26.941  13.300  0.00  0.00    +0.000 C 
ATOM     42  C   LIG    1       24.596 -28.384  13.120  0.00  0.00    +0.003 C 
ENDBRANCH  36  37
ENDBRANCH  26  36
ENDBRANCH  23  26
ENDBRANCH   1  22
BRANCH   1  43
ATOM     43  C   LIG    1       25.348 -28.932   5.293  0.00  0.00    +0.086 C 
BRANCH  43  44
ATOM     44  C   LIG    1       25.203 -30.408   5.376  0.00  0.00    +0.037 A 
ATOM     45  N   LIG    1       24.067 -31.061   5.734  0.00  0.00    -0.348 N 
ATOM     46  H   LIG    1       23.149 -30.648   5.876  0.00  0.00    +0.167 HD
ATOM     47  C   LIG    1       24.291 -32.404   5.619  0.00  0.00    +0.196 A 
ATOM     48  N   LIG    1       25.521 -32.655   5.243  0.00  0.00    -0.244 NA
ATOM     49  C   LIG    1       26.095 -31.423   5.080  0.00  0.00    +0.133 A 
ENDBRANCH  43  44
ENDBRANCH   1  43
TORSDOF 18
ENDMDL
MODEL 7
REMARK VINA RESULT:      -6.8      1.691      2.242
REMARK  Name = *****
REMARK                            x       y       z     vdW  Elec       q    Type
REMARK                         _______ _______ _______ _____ _____    ______ ____
ROOT
ATOM      1  C   LIG    1       26.168 -27.707   7.226  0.00  0.00    +0.165 C 
ENDROOT
BRANCH   1   3
ATOM      2  C   LIG    1       26.534 -28.594   9.550  0.00  0.00    +0.219 C 
ATOM      3  N   LIG    1       25.872 -27.742   8.689  0.00  0.00    -0.303 N 
ATOM      4  H   LIG    1       25.327 -26.979   9.075  0.00  0.00    +0.149 HD
ATOM      5  O   LIG    1       27.285 -29.472   9.131  0.00  0.00    -0.275 OA
BRANCH   2   6
ATOM      6  C   LIG    1       26.241 -28.430  11.064  0.00  0.00    +0.100 C 
BRANCH   6   7
ATOM      7  C   LIG    1       26.955 -27.115  11.543  0.00  0.00    +0.049 C 
BRANCH   7   8
ATOM      8  C   LIG    1       26.401 -26.261  12.685  0.00  0.00    -0.047 A 
ATOM      9  C   LIG    1       25.109 -26.386  13.212  0.00  0.00    +0.003 A 
ATOM     10  C   LIG    1       24.722 -25.787  14.411  0.00  0.00    +0.000 A 
ATOM     11  C   LIG    1       25.620 -25.006  15.115  0.00  0.00    +0.000 A 
ATOM     12  C   LIG    1       26.889 -24.795  14.588  0.00  0.00    +0.000 A 
ATOM     13  C   LIG    1       27.278 -25.418  13.390  0.00  0.00    +0.003 A 
ENDBRANCH   7   8
ENDBRANCH   6   7
BRANCH   6  14
ATOM     14  C   LIG    1       26.728 -29.655  11.860  0.00  0.00    +0.179 C 
BRANCH  14  15
ATOM     15  S   LIG    1       25.509 -30.642  12.680  0.00  0.00    -0.025 S 
ATOM     16  O   LIG    1       26.225 -31.596  13.540  0.00  0.00    -0.174 OA
ATOM     17  O   LIG    1       24.584 -29.708  13.220  0.00  0.00    -0.174 OA
BRANCH  15  19
ATOM     18  C   LIG    1       23.665 -30.661  10.588  0.00  0.00    +0.035 C 
ATOM     19  C   LIG    1       24.603 -31.585  11.376  0.00  0.00    +0.080 C 
ATOM     20  C   LIG    1       25.604 -32.188  10.368  0.00  0.00    +0.035 C 
ATOM     21  C   LIG    1       23.869 -32.761  12.045  0.00  0.00    +0.035 C 
ENDBRANCH  15  19
ENDBRANCH  14  15
ENDBRANCH   6  14
ENDBRANCH   2   6
ENDBRANCH   1   3
BRANCH   1  22
ATOM     22  C   LIG    1       26.108 -26.227   6.641  0.00  0.00    +0.234 C 
ATOM     23  N   LIG    1       25.519 -25.264   7.459  0.00  0.00    -0.308 N 
ATOM     24  H   LIG    1       25.009 -25.557   8.284  0.00  0.00    +0.149 HD
ATOM     25  O   LIG    1       26.589 -25.932   5.546  0.00  0.00    -0.274 OA
BRANCH  23  26
ATOM     26  C   LIG    1       25.366 -23.821   7.105  0.00  0.00    +0.104 C 
BRANCH  26  27
ATOM     27  C   LIG    1       24.577 -23.638   5.763  0.00  0.00    +0.163 C 
BRANCH  27  28
ATOM     28  O   LIG    1       23.329 -24.362   5.795  0.00  0.00    -0.387 OA
ATOM     29  H   LIG    1       23.093 -24.407   6.745  0.00  0.00    +0.210 HD
ENDBRANCH  27  28
BRANCH  27  30
ATOM     30  C   LIG    1       24.300 -22.167   5.332  0.00  0.00    +0.148 C 
BRANCH  30  31
ATOM     31  C   LIG    1       23.096 -21.541   5.978  0.00  0.00    +0.020 C 
ATOM     32  C   LIG    1       23.179 -20.690   7.220  0.00  0.00    +0.006 C 
ATOM     33  C   LIG    1       22.933 -20.037   5.902  0.00  0.00    +0.006 C 
ENDBRANCH  30  31
BRANCH  30  34
ATOM     34  O   LIG    1       24.068 -22.186   3.907  0.00  0.00    -0.389 OA
ATOM     35  H   LIG    1       24.923 -22.038   3.461  0.00  0.00    +0.210 HD
ENDBRANCH  30  34
ENDBRANCH  27  30
ENDBRANCH  26  27
BRANCH  26  36
ATOM     36  C   LIG    1       26.790 -23.165   7.096  0.00  0.00    +0.028 C 
BRANCH  36  37
ATOM     37  C   LIG    1       26.985 -21.799   7.817  0.00  0.00    -0.009 C 
ATOM     38  C   LIG    1       28.419 -21.519   8.290  0.00  0.00    +0.003 C 
ATOM     39  C   LIG    1       29.364 -21.152   7.150  0.00  0.00    +0.000 C 
ATOM     40  C   LIG    1       28.874 -19.901   6.431  0.00  0.00    +0.000 C 
ATOM     41  C   LIG    1       27.455 -20.085   5.905  0.00  0.00    +0.000 C 
ATOM     42  C   LIG    1       26.482 -20.595   6.974  0.00  0.00    +0.003 C 
ENDBRANCH  36  37
ENDBRANCH  26  36
ENDBRANCH  23  26
ENDBRANCH   1  22
BRANCH   1  43
ATOM     43  C   LIG    1       25.160 -28.568   6.445  0.00  0.00    +0.086 C 
BRANCH  43  44
ATOM     44  C   LIG    1       25.128 -30.048   6.563  0.00  0.00    +0.037 A 
ATOM     45  N   LIG    1       26.210 -30.863   6.456  0.00  0.00    -0.348 N 
ATOM     46  H   LIG    1       27.183 -30.575   6.401  0.00  0.00    +0.167 HD
ATOM     47  C   LIG    1       25.805 -32.144   6.700  0.00  0.00    +0.196 A 
ATOM     48  N   LIG    1       24.515 -32.208   6.920  0.00  0.00    -0.244 NA
ATOM     49  C   LIG    1       24.084 -30.910   6.847  0.00  0.00    +0.133 A 
ENDBRANCH  43  44
ENDBRANCH   1  43
TORSDOF 18
ENDMDL
MODEL 8
REMARK VINA RESULT:      -6.8      2.084      8.756
REMARK  Name = *****
REMARK                            x       y       z     vdW  Elec       q    Type
REMARK                         _______ _______ _______ _____ _____    ______ ____
ROOT
ATOM      1  C   LIG    1       24.895 -28.030   6.700  0.00  0.00    +0.165 C 
ENDROOT
BRANCH   1   3
ATOM      2  C   LIG    1       24.638 -25.652   5.922  0.00  0.00    +0.219 C 
ATOM      3  N   LIG    1       25.390 -26.629   6.543  0.00  0.00    -0.303 N 
ATOM      4  H   LIG    1       26.199 -26.354   7.089  0.00  0.00    +0.149 HD
ATOM      5  O   LIG    1       23.595 -25.926   5.332  0.00  0.00    -0.275 OA
BRANCH   2   6
ATOM      6  C   LIG    1       25.200 -24.208   5.954  0.00  0.00    +0.100 C 
BRANCH   6   7
ATOM      7  C   LIG    1       25.964 -24.028   7.315  0.00  0.00    +0.049 C 
BRANCH   7   8
ATOM      8  C   LIG    1       26.544 -22.680   7.748  0.00  0.00    -0.047 A 
ATOM      9  C   LIG    1       27.753 -22.152   7.280  0.00  0.00    +0.003 A 
ATOM     10  C   LIG    1       28.125 -20.822   7.483  0.00  0.00    +0.000 A 
ATOM     11  C   LIG    1       27.299 -19.976   8.200  0.00  0.00    +0.000 A 
ATOM     12  C   LIG    1       26.125 -20.481   8.746  0.00  0.00    +0.000 A 
ATOM     13  C   LIG    1       25.747 -21.815   8.520  0.00  0.00    +0.003 A 
ENDBRANCH   7   8
ENDBRANCH   6   7
BRANCH   6  14
ATOM     14  C   LIG    1       24.072 -23.170   5.802  0.00  0.00    +0.179 C 
BRANCH  14  15
ATOM     15  S   LIG    1       24.352 -21.801   4.717  0.00  0.00    -0.025 S 
ATOM     16  O   LIG    1       25.649 -21.211   5.082  0.00  0.00    -0.174 OA
ATOM     17  O   LIG    1       24.114 -22.313   3.413  0.00  0.00    -0.174 OA
BRANCH  15  19
ATOM     18  C   LIG    1       21.639 -21.162   4.769  0.00  0.00    +0.035 C 
ATOM     19  C   LIG    1       23.023 -20.562   5.046  0.00  0.00    +0.080 C 
ATOM     20  C   LIG    1       23.050 -20.140   6.530  0.00  0.00    +0.035 C 
ATOM     21  C   LIG    1       23.312 -19.302   4.209  0.00  0.00    +0.035 C 
ENDBRANCH  15  19
ENDBRANCH  14  15
ENDBRANCH   6  14
ENDBRANCH   2   6
ENDBRANCH   1   3
BRANCH   1  22
ATOM     22  C   LIG    1       25.359 -28.674   8.080  0.00  0.00    +0.234 C 
ATOM     23  N   LIG    1       24.489 -29.601   8.651  0.00  0.00    -0.308 N 
ATOM     24  H   LIG    1       23.551 -29.696   8.281  0.00  0.00    +0.149 HD
ATOM     25  O   LIG    1       26.443 -28.405   8.601  0.00  0.00    -0.274 OA
BRANCH  23  26
ATOM     26  C   LIG    1       24.734 -30.323   9.936  0.00  0.00    +0.104 C 
BRANCH  26  27
ATOM     27  C   LIG    1       23.951 -31.680   9.992  0.00  0.00    +0.163 C 
BRANCH  27  28
ATOM     28  O   LIG    1       24.689 -32.672  10.736  0.00  0.00    -0.387 OA
ATOM     29  H   LIG    1       25.233 -32.154  11.366  0.00  0.00    +0.210 HD
ENDBRANCH  27  28
BRANCH  27  30
ATOM     30  C   LIG    1       22.498 -31.605  10.547  0.00  0.00    +0.148 C 
BRANCH  30  31
ATOM     31  C   LIG    1       22.268 -32.390  11.807  0.00  0.00    +0.020 C 
ATOM     32  C   LIG    1       22.723 -31.917  13.165  0.00  0.00    +0.006 C 
ATOM     33  C   LIG    1       21.274 -31.860  12.820  0.00  0.00    +0.006 C 
ENDBRANCH  30  31
BRANCH  30  34
ATOM     34  O   LIG    1       21.633 -32.154   9.530  0.00  0.00    -0.389 OA
ATOM     35  H   LIG    1       20.880 -32.586   9.975  0.00  0.00    +0.210 HD
ENDBRANCH  30  34
ENDBRANCH  27  30
ENDBRANCH  26  27
BRANCH  26  36
ATOM     36  C   LIG    1       24.395 -29.349  11.117  0.00  0.00    +0.028 C 
BRANCH  36  37
ATOM     37  C   LIG    1       25.333 -29.332  12.360  0.00  0.00    -0.009 C 
ATOM     38  C   LIG    1       26.755 -28.823  12.086  0.00  0.00    +0.003 C 
ATOM     39  C   LIG    1       26.825 -27.310  11.903  0.00  0.00    +0.000 C 
ATOM     40  C   LIG    1       26.324 -26.598  13.153  0.00  0.00    +0.000 C 
ATOM     41  C   LIG    1       24.903 -27.024  13.503  0.00  0.00    +0.000 C 
ATOM     42  C   LIG    1       24.733 -28.547  13.559  0.00  0.00    +0.003 C 
ENDBRANCH  36  37
ENDBRANCH  26  36
ENDBRANCH  23  26
ENDBRANCH   1  22
BRANCH   1  43
ATOM     43  C   LIG    1       25.415 -28.923   5.560  0.00  0.00    +0.086 C 
BRANCH  43  44
ATOM     44  C   LIG    1       25.137 -30.381   5.511  0.00  0.00    +0.037 A 
ATOM     45  N   LIG    1       23.911 -30.947   5.655  0.00  0.00    -0.348 N 
ATOM     46  H   LIG    1       23.020 -30.461   5.696  0.00  0.00    +0.167 HD
ATOM     47  C   LIG    1       24.038 -32.295   5.471  0.00  0.00    +0.196 A 
ATOM     48  N   LIG    1       25.286 -32.636   5.255  0.00  0.00    -0.244 NA
ATOM     49  C   LIG    1       25.977 -31.454   5.269  0.00  0.00    +0.133 A 
ENDBRANCH  43  44
ENDBRANCH   1  43
TORSDOF 18
ENDMDL
MODEL 9
REMARK VINA RESULT:      -6.6      1.590      3.463
REMARK  Name = *****
REMARK                            x       y       z     vdW  Elec       q    Type
REMARK                         _______ _______ _______ _____ _____    ______ ____
ROOT
ATOM      1  C   LIG    1       25.708 -27.750   6.868  0.00  0.00    +0.165 C 
ENDROOT
BRANCH   1   3
ATOM      2  C   LIG    1       26.106 -28.902   9.067  0.00  0.00    +0.219 C 
ATOM      3  N   LIG    1       25.239 -28.497   8.073  0.00  0.00    -0.303 N 
ATOM      4  H   LIG    1       24.241 -28.516   8.253  0.00  0.00    +0.149 HD
ATOM      5  O   LIG    1       27.324 -28.806   8.933  0.00  0.00    -0.275 OA
BRANCH   2   6
ATOM      6  C   LIG    1       25.475 -29.536  10.333  0.00  0.00    +0.100 C 
BRANCH   6   7
ATOM      7  C   LIG    1       24.045 -30.054   9.939  0.00  0.00    +0.049 C 
BRANCH   7   8
ATOM      8  C   LIG    1       23.091 -30.665  10.968  0.00  0.00    -0.047 A 
ATOM      9  C   LIG    1       23.275 -31.913  11.576  0.00  0.00    +0.003 A 
ATOM     10  C   LIG    1       22.545 -32.324  12.691  0.00  0.00    +0.000 A 
ATOM     11  C   LIG    1       21.569 -31.500  13.221  0.00  0.00    +0.000 A 
ATOM     12  C   LIG    1       21.303 -30.284  12.601  0.00  0.00    +0.000 A 
ATOM     13  C   LIG    1       22.056 -29.868  11.491  0.00  0.00    +0.003 A 
ENDBRANCH   7   8
ENDBRANCH   6   7
BRANCH   6  14
ATOM     14  C   LIG    1       25.404 -28.520  11.488  0.00  0.00    +0.179 C 
BRANCH  14  15
ATOM     15  S   LIG    1       26.268 -28.909  12.982  0.00  0.00    -0.025 S 
ATOM     16  O   LIG    1       25.484 -29.935  13.687  0.00  0.00    -0.174 OA
ATOM     17  O   LIG    1       27.609 -29.150  12.578  0.00  0.00    -0.174 OA
BRANCH  15  19
ATOM     18  C   LIG    1       27.236 -27.545  15.214  0.00  0.00    +0.035 C 
ATOM     19  C   LIG    1       26.297 -27.375  14.011  0.00  0.00    +0.080 C 
ATOM     20  C   LIG    1       26.831 -26.191  13.180  0.00  0.00    +0.035 C 
ATOM     21  C   LIG    1       24.853 -27.032  14.418  0.00  0.00    +0.035 C 
ENDBRANCH  15  19
ENDBRANCH  14  15
ENDBRANCH   6  14
ENDBRANCH   2   6
ENDBRANCH   1   3
BRANCH   1  22
ATOM     22  C   LIG    1       25.029 -26.315   6.754  0.00  0.00    +0.234 C 
ATOM     23  N   LIG    1       25.824 -25.226   7.106  0.00  0.00    -0.308 N 
ATOM     24  H   LIG    1       26.709 -25.387   7.574  0.00  0.00    +0.149 HD
ATOM     25  O   LIG    1       23.879 -26.162   6.340  0.00  0.00    -0.274 OA
BRANCH  23  26
ATOM     26  C   LIG    1       25.384 -23.798   7.067  0.00  0.00    +0.104 C 
BRANCH  26  27
ATOM     27  C   LIG    1       24.235 -23.578   6.024  0.00  0.00    +0.163 C 
BRANCH  27  28
ATOM     28  O   LIG    1       22.941 -23.654   6.657  0.00  0.00    -0.387 OA
ATOM     29  H   LIG    1       22.978 -24.470   7.199  0.00  0.00    +0.210 HD
ENDBRANCH  27  28
BRANCH  27  30
ATOM     30  C   LIG    1       24.316 -22.265   5.190  0.00  0.00    +0.148 C 
BRANCH  30  31
ATOM     31  C   LIG    1       23.113 -21.373   5.308  0.00  0.00    +0.020 C 
ATOM     32  C   LIG    1       23.008 -20.266   6.327  0.00  0.00    +0.006 C 
ATOM     33  C   LIG    1       23.245 -19.921   4.897  0.00  0.00    +0.006 C 
ENDBRANCH  30  31
BRANCH  30  34
ATOM     34  O   LIG    1       24.433 -22.656   3.805  0.00  0.00    -0.389 OA
ATOM     35  H   LIG    1       25.349 -22.484   3.519  0.00  0.00    +0.210 HD
ENDBRANCH  30  34
ENDBRANCH  27  30
ENDBRANCH  26  27
BRANCH  26  36
ATOM     36  C   LIG    1       26.647 -22.904   6.815  0.00  0.00    +0.028 C 
BRANCH  36  37
ATOM     37  C   LIG    1       26.773 -21.560   7.591  0.00  0.00    -0.009 C 
ATOM     38  C   LIG    1       28.067 -21.405   8.404  0.00  0.00    +0.003 C 
ATOM     39  C   LIG    1       29.289 -21.120   7.537  0.00  0.00    +0.000 C 
ATOM     40  C   LIG    1       29.095 -19.832   6.748  0.00  0.00    +0.000 C 
ATOM     41  C   LIG    1       27.838 -19.892   5.888  0.00  0.00    +0.000 C 
ATOM     42  C   LIG    1       26.594 -20.317   6.677  0.00  0.00    +0.003 C 
ENDBRANCH  36  37
ENDBRANCH  26  36
ENDBRANCH  23  26
ENDBRANCH   1  22
BRANCH   1  43
ATOM     43  C   LIG    1       25.387 -28.532   5.582  0.00  0.00    +0.086 C 
BRANCH  43  44
ATOM     44  C   LIG    1       25.130 -29.994   5.592  0.00  0.00    +0.037 A 
ATOM     45  N   LIG    1       26.046 -30.949   5.285  0.00  0.00    -0.348 N 
ATOM     46  H   LIG    1       27.039 -30.808   5.126  0.00  0.00    +0.167 HD
ATOM     47  C   LIG    1       25.471 -32.173   5.482  0.00  0.00    +0.196 A 
ATOM     48  N   LIG    1       24.221 -32.061   5.862  0.00  0.00    -0.244 NA
ATOM     49  C   LIG    1       24.000 -30.712   5.943  0.00  0.00    +0.133 A 
ENDBRANCH  43  44
ENDBRANCH   1  43
TORSDOF 18
ENDMDL
