MODEL 1
REMARK VINA RESULT:      -4.4      0.000      0.000
REMARK  Name = *****
REMARK                            x       y       z     vdW  Elec       q    Type
REMARK                         _______ _______ _______ _____ _____    ______ ____
ROOT
ATOM      1  CA  HIS A  1       25.520 -15.854   3.285  0.00  0.00    +0.188 C 
ENDROOT
BRANCH   1   3
ATOM      2  C   UNK A  0       27.392 -14.230   3.023  0.00  0.00    +0.215 C 
ATOM      3  N   HIS A  1       26.733 -15.173   3.762  0.00  0.00    -0.302 N 
ATOM      4  H   HIS A  1       26.930 -15.306   4.753  0.00  0.00    +0.149 HD
ATOM      5  O   UNK A  0       27.062 -13.955   1.877  0.00  0.00    -0.276 OA
BRANCH   2   6
ATOM      6  C   UNK A  0       28.580 -13.544   3.684  0.00  0.00    +0.110 C 
BRANCH   6   7
ATOM      7  C   UNK A  0       28.245 -12.572   4.811  0.00  0.00    +0.087 C 
BRANCH   7   8
ATOM      8  N   UNK A  0       27.184 -13.061   5.684  0.00  0.00    -0.330 NA
ATOM      9  H   UNK A  0       27.327 -12.716   6.633  0.00  0.00    +0.118 HD
ATOM     10  H   UNK A  0       26.283 -12.688   5.381  0.00  0.00    +0.118 HD
ENDBRANCH   7   8
ENDBRANCH   6   7
ENDBRANCH   2   6
ENDBRANCH   1   3
BRANCH   1  11
ATOM     11  C   HIS A  1       25.580 -17.389   3.450  0.00  0.00    +0.326 C 
ATOM     12  O   HIS A  1       24.590 -18.090   3.531  0.00  0.00    -0.249 OA
BRANCH  11  13
ATOM     13  OXT HIS A  1       26.830 -17.899   3.610  0.00  0.00    -0.479 OA
ATOM     14  HXT HIS A  1       26.801 -18.792   4.015  0.00  0.00    +0.295 HD
ENDBRANCH  11  13
ENDBRANCH   1  11
BRANCH   1  15
ATOM     15  CB  HIS A  1       24.285 -15.259   3.986  0.00  0.00    +0.090 C 
BRANCH  15  16
ATOM     16  CG  HIS A  1       24.090 -13.795   3.740  0.00  0.00    +0.061 A 
ATOM     17  ND1 HIS A  1       24.132 -12.890   4.785  0.00  0.00    -0.241 NA
ATOM     18  CE1 HIS A  1       23.901 -11.717   4.237  0.00  0.00    +0.196 A 
ATOM     19  NE2 HIS A  1       23.728 -11.817   2.886  0.00  0.00    -0.351 N 
ATOM     20  HE2 HIS A  1       23.525 -11.052   2.255  0.00  0.00    +0.166 HD
ATOM     21  CD2 HIS A  1       23.865 -13.136   2.551  0.00  0.00    +0.107 A 
ENDBRANCH  15  16
ENDBRANCH   1  15
TORSDOF 8
ENDMDL
MODEL 2
REMARK VINA RESULT:      -4.2      1.778      4.077
REMARK  Name = *****
REMARK                            x       y       z     vdW  Elec       q    Type
REMARK                         _______ _______ _______ _____ _____    ______ ____
ROOT
ATOM      1  CA  HIS A  1       26.831 -14.703   4.179  0.00  0.00    +0.188 C 
ENDROOT
BRANCH   1   3
ATOM      2  C   UNK A  0       26.508 -17.108   3.615  0.00  0.00    +0.215 C 
ATOM      3  N   HIS A  1       26.099 -15.806   3.539  0.00  0.00    -0.302 N 
ATOM      4  H   HIS A  1       25.168 -15.560   3.208  0.00  0.00    +0.149 HD
ATOM      5  O   UNK A  0       27.562 -17.429   4.150  0.00  0.00    -0.276 OA
BRANCH   2   6
ATOM      6  C   UNK A  0       25.601 -18.154   2.981  0.00  0.00    +0.110 C 
BRANCH   6   7
ATOM      7  C   UNK A  0       25.212 -19.328   3.875  0.00  0.00    +0.087 C 
BRANCH   7   8
ATOM      8  N   UNK A  0       26.367 -20.056   4.390  0.00  0.00    -0.330 NA
ATOM      9  H   UNK A  0       26.592 -19.730   5.330  0.00  0.00    +0.118 HD
ATOM     10  H   UNK A  0       26.142 -21.047   4.482  0.00  0.00    +0.118 HD
ENDBRANCH   7   8
ENDBRANCH   6   7
ENDBRANCH   2   6
ENDBRANCH   1   3
BRANCH   1  11
ATOM     11  C   HIS A  1       27.725 -13.916   3.196  0.00  0.00    +0.326 C 
ATOM     12  O   HIS A  1       28.549 -13.096   3.554  0.00  0.00    -0.249 OA
BRANCH  11  13
ATOM     13  OXT HIS A  1       27.450 -14.122   1.881  0.00  0.00    -0.479 OA
ATOM     14  HXT HIS A  1       26.539 -13.839   1.658  0.00  0.00    +0.295 HD
ENDBRANCH  11  13
ENDBRANCH   1  11
BRANCH   1  15
ATOM     15  CB  HIS A  1       25.837 -13.777   4.903  0.00  0.00    +0.090 C 
BRANCH  15  16
ATOM     16  CG  HIS A  1       24.953 -12.991   3.983  0.00  0.00    +0.061 A 
ATOM     17  ND1 HIS A  1       24.907 -13.276   2.631  0.00  0.00    -0.241 NA
ATOM     18  CE1 HIS A  1       24.069 -12.401   2.120  0.00  0.00    +0.196 A 
ATOM     19  NE2 HIS A  1       23.559 -11.572   3.079  0.00  0.00    -0.351 N 
ATOM     20  HE2 HIS A  1       22.908 -10.814   2.923  0.00  0.00    +0.166 HD
ATOM     21  CD2 HIS A  1       24.100 -11.950   4.277  0.00  0.00    +0.107 A 
ENDBRANCH  15  16
ENDBRANCH   1  15
TORSDOF 8
ENDMDL
MODEL 3
REMARK VINA RESULT:      -3.9      4.753      6.602
REMARK  Name = *****
REMARK                            x       y       z     vdW  Elec       q    Type
REMARK                         _______ _______ _______ _____ _____    ______ ____
ROOT
ATOM      1  CA  HIS A  1       26.009 -18.901   4.377  0.00  0.00    +0.188 C 
ENDROOT
BRANCH   1   3
ATOM      2  C   UNK A  0       27.069 -20.331   6.121  0.00  0.00    +0.215 C 
ATOM      3  N   HIS A  1       27.107 -19.733   4.892  0.00  0.00    -0.302 N 
ATOM      4  H   HIS A  1       27.802 -19.993   4.195  0.00  0.00    +0.149 HD
ATOM      5  O   UNK A  0       26.152 -20.139   6.909  0.00  0.00    -0.276 OA
BRANCH   2   6
ATOM      6  C   UNK A  0       28.238 -21.237   6.483  0.00  0.00    +0.110 C 
BRANCH   6   7
ATOM      7  C   UNK A  0       29.466 -20.540   7.062  0.00  0.00    +0.087 C 
BRANCH   7   8
ATOM      8  N   UNK A  0       29.345 -19.086   7.061  0.00  0.00    -0.330 NA
ATOM      9  H   UNK A  0       30.271 -18.660   7.068  0.00  0.00    +0.118 HD
ATOM     10  H   UNK A  0       28.896 -18.773   6.200  0.00  0.00    +0.118 HD
ENDBRANCH   7   8
ENDBRANCH   6   7
ENDBRANCH   2   6
ENDBRANCH   1   3
BRANCH   1  11
ATOM     11  C   HIS A  1       26.499 -17.629   3.651  0.00  0.00    +0.326 C 
ATOM     12  O   HIS A  1       25.762 -16.896   3.019  0.00  0.00    -0.249 OA
BRANCH  11  13
ATOM     13  OXT HIS A  1       27.845 -17.439   3.674  0.00  0.00    -0.479 OA
ATOM     14  HXT HIS A  1       28.070 -16.485   3.692  0.00  0.00    +0.295 HD
ENDBRANCH  11  13
ENDBRANCH   1  11
BRANCH   1  15
ATOM     15  CB  HIS A  1       25.099 -19.752   3.472  0.00  0.00    +0.090 C 
BRANCH  15  16
ATOM     16  CG  HIS A  1       23.903 -20.322   4.171  0.00  0.00    +0.061 A 
ATOM     17  ND1 HIS A  1       22.751 -19.573   4.325  0.00  0.00    -0.241 NA
ATOM     18  CE1 HIS A  1       21.921 -20.347   4.991  0.00  0.00    +0.196 A 
ATOM     19  NE2 HIS A  1       22.476 -21.566   5.261  0.00  0.00    -0.351 N 
ATOM     20  HE2 HIS A  1       22.035 -22.319   5.772  0.00  0.00    +0.166 HD
ATOM     21  CD2 HIS A  1       23.735 -21.571   4.726  0.00  0.00    +0.107 A 
ENDBRANCH  15  16
ENDBRANCH   1  15
TORSDOF 8
ENDMDL
MODEL 4
REMARK VINA RESULT:      -3.7      2.648      5.252
REMARK  Name = *****
REMARK                            x       y       z     vdW  Elec       q    Type
REMARK                         _______ _______ _______ _____ _____    ______ ____
ROOT
ATOM      1  CA  HIS A  1       24.552 -14.027   3.750  0.00  0.00    +0.188 C 
ENDROOT
BRANCH   1   3
ATOM      2  C   UNK A  0       23.445 -16.208   4.225  0.00  0.00    +0.215 C 
ATOM      3  N   HIS A  1       23.431 -14.841   4.242  0.00  0.00    -0.302 N 
ATOM      4  H   HIS A  1       22.735 -14.323   4.776  0.00  0.00    +0.149 HD
ATOM      5  O   UNK A  0       24.360 -16.843   3.715  0.00  0.00    -0.276 OA
BRANCH   2   6
ATOM      6  C   UNK A  0       22.252 -16.918   4.851  0.00  0.00    +0.110 C 
BRANCH   6   7
ATOM      7  C   UNK A  0       21.993 -18.340   4.362  0.00  0.00    +0.087 C 
BRANCH   7   8
ATOM      8  N   UNK A  0       22.794 -19.336   5.065  0.00  0.00    -0.330 NA
ATOM      9  H   UNK A  0       22.486 -19.409   6.034  0.00  0.00    +0.118 HD
ATOM     10  H   UNK A  0       22.647 -20.257   4.652  0.00  0.00    +0.118 HD
ENDBRANCH   7   8
ENDBRANCH   6   7
ENDBRANCH   2   6
ENDBRANCH   1   3
BRANCH   1  11
ATOM     11  C   HIS A  1       24.106 -12.672   3.159  0.00  0.00    +0.326 C 
ATOM     12  O   HIS A  1       23.842 -11.701   3.841  0.00  0.00    -0.249 OA
BRANCH  11  13
ATOM     13  OXT HIS A  1       23.918 -12.669   1.812  0.00  0.00    -0.479 OA
ATOM     14  HXT HIS A  1       23.183 -13.263   1.553  0.00  0.00    +0.295 HD
ENDBRANCH  11  13
ENDBRANCH   1  11
BRANCH   1  15
ATOM     15  CB  HIS A  1       25.585 -13.838   4.876  0.00  0.00    +0.090 C 
BRANCH  15  16
ATOM     16  CG  HIS A  1       26.964 -13.510   4.391  0.00  0.00    +0.061 A 
ATOM     17  ND1 HIS A  1       27.783 -12.659   5.110  0.00  0.00    -0.241 NA
ATOM     18  CE1 HIS A  1       28.890 -12.567   4.407  0.00  0.00    +0.196 A 
ATOM     19  NE2 HIS A  1       28.833 -13.331   3.275  0.00  0.00    -0.351 N 
ATOM     20  HE2 HIS A  1       29.559 -13.408   2.574  0.00  0.00    +0.166 HD
ATOM     21  CD2 HIS A  1       27.616 -13.954   3.261  0.00  0.00    +0.107 A 
ENDBRANCH  15  16
ENDBRANCH   1  15
TORSDOF 8
ENDMDL
MODEL 5
REMARK VINA RESULT:      -3.6      2.279      4.895
REMARK  Name = *****
REMARK                            x       y       z     vdW  Elec       q    Type
REMARK                         _______ _______ _______ _____ _____    ______ ____
ROOT
ATOM      1  CA  HIS A  1       25.285 -14.405   3.642  0.00  0.00    +0.188 C 
ENDROOT
BRANCH   1   3
ATOM      2  C   UNK A  0       25.224 -16.892   3.499  0.00  0.00    +0.215 C 
ATOM      3  N   HIS A  1       24.603 -15.703   3.759  0.00  0.00    -0.302 N 
ATOM      4  H   HIS A  1       23.704 -15.665   4.237  0.00  0.00    +0.149 HD
ATOM      5  O   UNK A  0       26.367 -16.948   3.064  0.00  0.00    -0.276 OA
BRANCH   2   6
ATOM      6  C   UNK A  0       24.418 -18.160   3.751  0.00  0.00    +0.110 C 
BRANCH   6   7
ATOM      7  C   UNK A  0       25.134 -19.474   3.450  0.00  0.00    +0.087 C 
BRANCH   7   8
ATOM      8  N   UNK A  0       26.250 -19.731   4.353  0.00  0.00    -0.330 NA
ATOM      9  H   UNK A  0       25.931 -19.686   5.321  0.00  0.00    +0.118 HD
ATOM     10  H   UNK A  0       26.598 -20.680   4.215  0.00  0.00    +0.118 HD
ENDBRANCH   7   8
ENDBRANCH   6   7
ENDBRANCH   2   6
ENDBRANCH   1   3
BRANCH   1  11
ATOM     11  C   HIS A  1       24.325 -13.239   3.325  0.00  0.00    +0.326 C 
ATOM     12  O   HIS A  1       23.905 -12.472   4.170  0.00  0.00    -0.249 OA
BRANCH  11  13
ATOM     13  OXT HIS A  1       23.885 -13.192   2.039  0.00  0.00    -0.479 OA
ATOM     14  HXT HIS A  1       24.626 -13.290   1.405  0.00  0.00    +0.295 HD
ENDBRANCH  11  13
ENDBRANCH   1  11
BRANCH   1  15
ATOM     15  CB  HIS A  1       26.100 -14.134   4.920  0.00  0.00    +0.090 C 
BRANCH  15  16
ATOM     16  CG  HIS A  1       27.379 -13.392   4.683  0.00  0.00    +0.061 A 
ATOM     17  ND1 HIS A  1       28.112 -13.596   3.528  0.00  0.00    -0.241 NA
ATOM     18  CE1 HIS A  1       29.170 -12.824   3.648  0.00  0.00    +0.196 A 
ATOM     19  NE2 HIS A  1       29.149 -12.119   4.817  0.00  0.00    -0.351 N 
ATOM     20  HE2 HIS A  1       29.861 -11.473   5.134  0.00  0.00    +0.166 HD
ATOM     21  CD2 HIS A  1       28.002 -12.457   5.481  0.00  0.00    +0.107 A 
ENDBRANCH  15  16
ENDBRANCH   1  15
TORSDOF 8
ENDMDL
MODEL 6
REMARK VINA RESULT:      -3.4      2.926      4.625
REMARK  Name = *****
REMARK                            x       y       z     vdW  Elec       q    Type
REMARK                         _______ _______ _______ _____ _____    ______ ____
ROOT
ATOM      1  CA  HIS A  1       26.137 -18.175   3.324  0.00  0.00    +0.188 C 
ENDROOT
BRANCH   1   3
ATOM      2  C   UNK A  0       25.682 -15.728   3.426  0.00  0.00    +0.215 C 
ATOM      3  N   HIS A  1       25.324 -17.015   3.717  0.00  0.00    -0.302 N 
ATOM      4  H   HIS A  1       24.387 -17.246   4.041  0.00  0.00    +0.149 HD
ATOM      5  O   UNK A  0       26.750 -15.454   2.895  0.00  0.00    -0.276 OA
BRANCH   2   6
ATOM      6  C   UNK A  0       24.697 -14.634   3.816  0.00  0.00    +0.110 C 
BRANCH   6   7
ATOM      7  C   UNK A  0       25.313 -13.341   4.343  0.00  0.00    +0.087 C 
BRANCH   7   8
ATOM      8  N   UNK A  0       26.476 -13.572   5.192  0.00  0.00    -0.330 NA
ATOM      9  H   UNK A  0       27.288 -13.089   4.809  0.00  0.00    +0.118 HD
ATOM     10  H   UNK A  0       26.319 -13.170   6.116  0.00  0.00    +0.118 HD
ENDBRANCH   7   8
ENDBRANCH   6   7
ENDBRANCH   2   6
ENDBRANCH   1   3
BRANCH   1  11
ATOM     11  C   HIS A  1       27.264 -18.497   4.329  0.00  0.00    +0.326 C 
ATOM     12  O   HIS A  1       27.215 -19.428   5.111  0.00  0.00    -0.249 OA
BRANCH  11  13
ATOM     13  OXT HIS A  1       28.280 -17.593   4.360  0.00  0.00    -0.479 OA
ATOM     14  HXT HIS A  1       28.551 -17.331   3.456  0.00  0.00    +0.295 HD
ENDBRANCH  11  13
ENDBRANCH   1  11
BRANCH   1  15
ATOM     15  CB  HIS A  1       25.222 -19.392   3.094  0.00  0.00    +0.090 C 
BRANCH  15  16
ATOM     16  CG  HIS A  1       24.077 -19.485   4.056  0.00  0.00    +0.061 A 
ATOM     17  ND1 HIS A  1       22.960 -18.684   3.906  0.00  0.00    -0.241 NA
ATOM     18  CE1 HIS A  1       22.173 -18.994   4.913  0.00  0.00    +0.196 A 
ATOM     19  NE2 HIS A  1       22.721 -19.969   5.698  0.00  0.00    -0.351 N 
ATOM     20  HE2 HIS A  1       22.307 -20.359   6.535  0.00  0.00    +0.166 HD
ATOM     21  CD2 HIS A  1       23.928 -20.306   5.153  0.00  0.00    +0.107 A 
ENDBRANCH  15  16
ENDBRANCH   1  15
TORSDOF 8
ENDMDL
MODEL 7
REMARK VINA RESULT:      -2.9      1.747      3.652
REMARK  Name = *****
REMARK                            x       y       z     vdW  Elec       q    Type
REMARK                         _______ _______ _______ _____ _____    ______ ____
ROOT
ATOM      1  CA  HIS A  1       25.802 -15.611   3.736  0.00  0.00    +0.188 C 
ENDROOT
BRANCH   1   3
ATOM      2  C   UNK A  0       24.315 -13.648   3.358  0.00  0.00    +0.215 C 
ATOM      3  N   HIS A  1       25.143 -14.621   2.871  0.00  0.00    -0.302 N 
ATOM      4  H   HIS A  1       25.501 -14.587   1.919  0.00  0.00    +0.149 HD
ATOM      5  O   UNK A  0       23.999 -13.593   4.540  0.00  0.00    -0.276 OA
BRANCH   2   6
ATOM      6  C   UNK A  0       23.776 -12.636   2.355  0.00  0.00    +0.110 C 
BRANCH   6   7
ATOM      7  C   UNK A  0       24.789 -11.632   1.813  0.00  0.00    +0.087 C 
BRANCH   7   8
ATOM      8  N   UNK A  0       26.169 -12.081   1.965  0.00  0.00    -0.330 NA
ATOM      9  H   UNK A  0       26.187 -13.028   2.343  0.00  0.00    +0.118 HD
ATOM     10  H   UNK A  0       26.621 -12.134   1.052  0.00  0.00    +0.118 HD
ENDBRANCH   7   8
ENDBRANCH   6   7
ENDBRANCH   2   6
ENDBRANCH   1   3
BRANCH   1  11
ATOM     11  C   HIS A  1       25.418 -17.067   3.395  0.00  0.00    +0.326 C 
ATOM     12  O   HIS A  1       24.309 -17.528   3.590  0.00  0.00    -0.249 OA
BRANCH  11  13
ATOM     13  OXT HIS A  1       26.445 -17.843   2.957  0.00  0.00    -0.479 OA
ATOM     14  HXT HIS A  1       27.306 -17.521   3.298  0.00  0.00    +0.295 HD
ENDBRANCH  11  13
ENDBRANCH   1  11
BRANCH   1  15
ATOM     15  CB  HIS A  1       27.326 -15.403   3.688  0.00  0.00    +0.090 C 
BRANCH  15  16
ATOM     16  CG  HIS A  1       27.783 -14.093   4.254  0.00  0.00    +0.061 A 
ATOM     17  ND1 HIS A  1       28.735 -13.334   3.600  0.00  0.00    -0.241 NA
ATOM     18  CE1 HIS A  1       28.922 -12.280   4.364  0.00  0.00    +0.196 A 
ATOM     19  NE2 HIS A  1       28.124 -12.313   5.473  0.00  0.00    -0.351 N 
ATOM     20  HE2 HIS A  1       28.103 -11.620   6.209  0.00  0.00    +0.166 HD
ATOM     21  CD2 HIS A  1       27.377 -13.456   5.407  0.00  0.00    +0.107 A 
ENDBRANCH  15  16
ENDBRANCH   1  15
TORSDOF 8
ENDMDL
MODEL 8
REMARK VINA RESULT:      -2.8      4.062      6.668
REMARK  Name = *****
REMARK                            x       y       z     vdW  Elec       q    Type
REMARK                         _______ _______ _______ _____ _____    ______ ____
ROOT
ATOM      1  CA  HIS A  1       24.739 -20.417   5.384  0.00  0.00    +0.188 C 
ENDROOT
BRANCH   1   3
ATOM      2  C   UNK A  0       25.118 -18.537   3.794  0.00  0.00    +0.215 C 
ATOM      3  N   HIS A  1       25.600 -19.576   4.540  0.00  0.00    -0.302 N 
ATOM      4  H   HIS A  1       26.598 -19.694   4.706  0.00  0.00    +0.149 HD
ATOM      5  O   UNK A  0       23.920 -18.295   3.712  0.00  0.00    -0.276 OA
BRANCH   2   6
ATOM      6  C   UNK A  0       26.140 -17.696   3.041  0.00  0.00    +0.110 C 
BRANCH   6   7
ATOM      7  C   UNK A  0       26.125 -16.201   3.344  0.00  0.00    +0.087 C 
BRANCH   7   8
ATOM      8  N   UNK A  0       27.422 -15.699   3.784  0.00  0.00    -0.330 NA
ATOM      9  H   UNK A  0       28.101 -16.459   3.803  0.00  0.00    +0.118 HD
ATOM     10  H   UNK A  0       27.779 -15.018   3.112  0.00  0.00    +0.118 HD
ENDBRANCH   7   8
ENDBRANCH   6   7
ENDBRANCH   2   6
ENDBRANCH   1   3
BRANCH   1  11
ATOM     11  C   HIS A  1       23.735 -21.265   4.573  0.00  0.00    +0.326 C 
ATOM     12  O   HIS A  1       23.903 -21.561   3.405  0.00  0.00    -0.249 OA
BRANCH  11  13
ATOM     13  OXT HIS A  1       22.583 -21.571   5.227  0.00  0.00    -0.479 OA
ATOM     14  HXT HIS A  1       22.763 -22.049   6.063  0.00  0.00    +0.295 HD
ENDBRANCH  11  13
ENDBRANCH   1  11
BRANCH   1  15
ATOM     15  CB  HIS A  1       25.612 -21.297   6.297  0.00  0.00    +0.090 C 
BRANCH  15  16
ATOM     16  CG  HIS A  1       27.042 -20.858   6.381  0.00  0.00    +0.061 A 
ATOM     17  ND1 HIS A  1       27.472 -19.718   5.728  0.00  0.00    -0.241 NA
ATOM     18  CE1 HIS A  1       28.760 -19.637   5.983  0.00  0.00    +0.196 A 
ATOM     19  NE2 HIS A  1       29.180 -20.661   6.784  0.00  0.00    -0.351 N 
ATOM     20  HE2 HIS A  1       30.128 -20.816   7.101  0.00  0.00    +0.166 HD
ATOM     21  CD2 HIS A  1       28.090 -21.439   7.062  0.00  0.00    +0.107 A 
ENDBRANCH  15  16
ENDBRANCH   1  15
TORSDOF 8
ENDMDL
MODEL 9
REMARK VINA RESULT:      -2.7      3.262      5.645
REMARK  Name = *****
REMARK                            x       y       z     vdW  Elec       q    Type
REMARK                         _______ _______ _______ _____ _____    ______ ____
ROOT
ATOM      1  CA  HIS A  1       26.571 -18.493   4.483  0.00  0.00    +0.188 C 
ENDROOT
BRANCH   1   3
ATOM      2  C   UNK A  0       25.138 -20.391   5.224  0.00  0.00    +0.215 C 
ATOM      3  N   HIS A  1       25.708 -19.654   4.223  0.00  0.00    -0.302 N 
ATOM      4  H   HIS A  1       25.405 -19.747   3.255  0.00  0.00    +0.149 HD
ATOM      5  O   UNK A  0       25.383 -20.183   6.405  0.00  0.00    -0.276 OA
BRANCH   2   6
ATOM      6  C   UNK A  0       24.194 -21.510   4.803  0.00  0.00    +0.110 C 
BRANCH   6   7
ATOM      7  C   UNK A  0       22.704 -21.197   4.909  0.00  0.00    +0.087 C 
BRANCH   7   8
ATOM      8  N   UNK A  0       22.439 -19.796   5.214  0.00  0.00    -0.330 NA
ATOM      9  H   UNK A  0       22.688 -19.213   4.416  0.00  0.00    +0.118 HD
ATOM     10  H   UNK A  0       21.440 -19.655   5.365  0.00  0.00    +0.118 HD
ENDBRANCH   7   8
ENDBRANCH   6   7
ENDBRANCH   2   6
ENDBRANCH   1   3
BRANCH   1  11
ATOM     11  C   HIS A  1       28.008 -18.883   4.894  0.00  0.00    +0.326 C 
ATOM     12  O   HIS A  1       28.278 -19.917   5.475  0.00  0.00    -0.249 OA
BRANCH  11  13
ATOM     13  OXT HIS A  1       28.950 -17.931   4.658  0.00  0.00    -0.479 OA
ATOM     14  HXT HIS A  1       29.855 -18.289   4.775  0.00  0.00    +0.295 HD
ENDBRANCH  11  13
ENDBRANCH   1  11
BRANCH   1  15
ATOM     15  CB  HIS A  1       26.569 -17.564   3.255  0.00  0.00    +0.090 C 
BRANCH  15  16
ATOM     16  CG  HIS A  1       26.450 -16.109   3.590  0.00  0.00    +0.061 A 
ATOM     17  ND1 HIS A  1       27.562 -15.375   3.959  0.00  0.00    -0.241 NA
ATOM     18  CE1 HIS A  1       27.113 -14.164   4.205  0.00  0.00    +0.196 A 
ATOM     19  NE2 HIS A  1       25.766 -14.074   3.997  0.00  0.00    -0.351 N 
ATOM     20  HE2 HIS A  1       25.197 -13.249   4.134  0.00  0.00    +0.166 HD
ATOM     21  CD2 HIS A  1       25.332 -15.304   3.585  0.00  0.00    +0.107 A 
ENDBRANCH  15  16
ENDBRANCH   1  15
TORSDOF 8
ENDMDL
