MODEL 1
REMARK VINA RESULT:      -6.2      0.000      0.000
REMARK  Name = *****
REMARK                            x       y       z     vdW  Elec       q    Type
REMARK                         _______ _______ _______ _____ _____    ______ ____
ROOT
ATOM      1  C   LIG    1       25.179 -33.480   7.548  0.00  0.00    +0.157 C 
ATOM      2  N   LIG    1       24.941 -32.031   7.732  0.00  0.00    -0.206 N 
ATOM      3  S   LIG    1       24.716 -31.176   6.272  0.00  0.00    +0.075 S 
ATOM      4  O   LIG    1       23.310 -31.199   5.934  0.00  0.00    -0.150 OA
ATOM      5  O   LIG    1       25.710 -31.674   5.340  0.00  0.00    -0.150 OA
ATOM      6  C   LIG    1       25.152 -29.467   6.563  0.00  0.00    +0.115 A 
ATOM      7  C   LIG    1       25.468 -28.891   7.810  0.00  0.00    +0.001 A 
ATOM      8  C   LIG    1       25.795 -27.514   7.831  0.00  0.00    +0.009 A 
ATOM      9  C   LIG    1       25.824 -26.750   6.662  0.00  0.00    +0.020 A 
ATOM     10  C   LIG    1       25.536 -27.347   5.442  0.00  0.00    +0.043 A 
ATOM     11 CL   LIG    1       25.615 -26.421   3.995  0.00  0.00    -0.084 Cl
ATOM     12  C   LIG    1       25.549 -29.639   9.138  0.00  0.00    +0.118 C 
ATOM     13  C   LIG    1       24.286 -30.426   9.427  0.00  0.00    -0.004 A 
ATOM     14  C   LIG    1       23.341 -29.934  10.344  0.00  0.00    +0.007 A 
ATOM     15  C   LIG    1       22.168 -30.643  10.607  0.00  0.00    +0.001 A 
ATOM     16  C   LIG    1       21.923 -31.846   9.950  0.00  0.00    +0.002 A 
ATOM     17  C   LIG    1       22.843 -32.336   9.022  0.00  0.00    +0.025 A 
ATOM     18  C   LIG    1       25.196 -28.691   5.386  0.00  0.00    +0.049 A 
ATOM     19  C   LIG    1       24.027 -31.635   8.770  0.00  0.00    +0.056 A 
ENDROOT
BRANCH  12  20
ATOM     20  N   LIG    1       26.806 -30.409   9.181  0.00  0.00    -0.306 NA
ATOM     21  H   LIG    1       26.545 -31.396   9.166  0.00  0.00    +0.123 HD
BRANCH  20  22
ATOM     22  C   LIG    1       27.615 -30.163  10.377  0.00  0.00    +0.082 C 
BRANCH  22  23
ATOM     23  C   LIG    1       27.229 -28.830  11.040  0.00  0.00    +0.015 C 
BRANCH  23  24
ATOM     24  C   LIG    1       26.594 -28.986  12.431  0.00  0.00    +0.001 C 
BRANCH  24  25
ATOM     25  C   LIG    1       25.601 -27.858  12.735  0.00  0.00    +0.001 C 
BRANCH  25  26
ATOM     26  C   LIG    1       26.187 -26.448  12.566  0.00  0.00    +0.011 C 
BRANCH  26  27
ATOM     27  C   LIG    1       26.223 -25.642  13.863  0.00  0.00    +0.120 C 
BRANCH  27  28
ATOM     28  C   LIG    1       27.624 -25.190  14.199  0.00  0.00    +0.305 C 
ATOM     29  O   LIG    1       27.982 -24.021  14.179  0.00  0.00    -0.251 OA
BRANCH  28  30
ATOM     30  O   LIG    1       28.468 -26.200  14.504  0.00  0.00    -0.481 OA
ATOM     31  H   LIG    1       28.265 -26.657  15.341  0.00  0.00    +0.295 HD
ENDBRANCH  28  30
ENDBRANCH  27  28
ENDBRANCH  26  27
ENDBRANCH  25  26
ENDBRANCH  24  25
ENDBRANCH  23  24
ENDBRANCH  22  23
ENDBRANCH  20  22
ENDBRANCH  12  20
TORSDOF 9
ENDMDL
MODEL 2
REMARK VINA RESULT:      -6.1      4.037      6.076
REMARK  Name = *****
REMARK                            x       y       z     vdW  Elec       q    Type
REMARK                         _______ _______ _______ _____ _____    ______ ____
ROOT
ATOM      1  C   LIG    1       22.364 -31.519   9.291  0.00  0.00    +0.157 C 
ATOM      2  N   LIG    1       23.672 -30.991   9.737  0.00  0.00    -0.206 N 
ATOM      3  S   LIG    1       23.683 -30.444  11.354  0.00  0.00    +0.075 S 
ATOM      4  O   LIG    1       24.019 -31.554  12.216  0.00  0.00    -0.150 OA
ATOM      5  O   LIG    1       22.452 -29.701  11.550  0.00  0.00    -0.150 OA
ATOM      6  C   LIG    1       24.994 -29.241  11.520  0.00  0.00    +0.115 A 
ATOM      7  C   LIG    1       25.955 -28.919  10.539  0.00  0.00    +0.001 A 
ATOM      8  C   LIG    1       26.913 -27.930  10.863  0.00  0.00    +0.009 A 
ATOM      9  C   LIG    1       26.905 -27.276  12.097  0.00  0.00    +0.020 A 
ATOM     10  C   LIG    1       25.932 -27.591  13.036  0.00  0.00    +0.043 A 
ATOM     11 CL   LIG    1       25.890 -26.758  14.540  0.00  0.00    -0.084 Cl
ATOM     12  C   LIG    1       26.015 -29.504   9.131  0.00  0.00    +0.118 C 
ATOM     13  C   LIG    1       26.023 -31.019   9.142  0.00  0.00    -0.004 A 
ATOM     14  C   LIG    1       27.222 -31.722   8.935  0.00  0.00    +0.007 A 
ATOM     15  C   LIG    1       27.242 -33.117   8.958  0.00  0.00    +0.001 A 
ATOM     16  C   LIG    1       26.067 -33.824   9.196  0.00  0.00    +0.002 A 
ATOM     17  C   LIG    1       24.873 -33.139   9.422  0.00  0.00    +0.025 A 
ATOM     18  C   LIG    1       24.986 -28.569  12.759  0.00  0.00    +0.049 A 
ATOM     19  C   LIG    1       24.847 -31.741   9.383  0.00  0.00    +0.056 A 
ENDROOT
BRANCH  12  20
ATOM     20  N   LIG    1       24.968 -28.875   8.304  0.00  0.00    -0.306 NA
ATOM     21  H   LIG    1       24.351 -29.626   7.993  0.00  0.00    +0.123 HD
BRANCH  20  22
ATOM     22  C   LIG    1       25.480 -28.178   7.122  0.00  0.00    +0.082 C 
BRANCH  22  23
ATOM     23  C   LIG    1       24.344 -27.848   6.139  0.00  0.00    +0.015 C 
BRANCH  23  24
ATOM     24  C   LIG    1       24.174 -26.345   5.864  0.00  0.00    +0.001 C 
BRANCH  24  25
ATOM     25  C   LIG    1       25.347 -25.528   6.419  0.00  0.00    +0.001 C 
BRANCH  25  26
ATOM     26  C   LIG    1       24.988 -24.075   6.765  0.00  0.00    +0.011 C 
BRANCH  26  27
ATOM     27  C   LIG    1       23.487 -23.794   6.741  0.00  0.00    +0.120 C 
BRANCH  27  28
ATOM     28  C   LIG    1       23.197 -22.313   6.783  0.00  0.00    +0.305 C 
ATOM     29  O   LIG    1       23.171 -21.657   7.815  0.00  0.00    -0.251 OA
BRANCH  28  30
ATOM     30  O   LIG    1       22.940 -21.769   5.574  0.00  0.00    -0.481 OA
ATOM     31  H   LIG    1       23.706 -21.751   4.969  0.00  0.00    +0.295 HD
ENDBRANCH  28  30
ENDBRANCH  27  28
ENDBRANCH  26  27
ENDBRANCH  25  26
ENDBRANCH  24  25
ENDBRANCH  23  24
ENDBRANCH  22  23
ENDBRANCH  20  22
ENDBRANCH  12  20
TORSDOF 9
ENDMDL
MODEL 3
REMARK VINA RESULT:      -6.1      3.516      5.277
REMARK  Name = *****
REMARK                            x       y       z     vdW  Elec       q    Type
REMARK                         _______ _______ _______ _____ _____    ______ ____
ROOT
ATOM      1  C   LIG    1       25.711 -28.587  11.605  0.00  0.00    +0.157 C 
ATOM      2  N   LIG    1       25.328 -29.597  10.594  0.00  0.00    -0.206 N 
ATOM      3  S   LIG    1       26.534 -30.765  10.291  0.00  0.00    +0.075 S 
ATOM      4  O   LIG    1       26.360 -31.863  11.216  0.00  0.00    -0.150 OA
ATOM      5  O   LIG    1       27.796 -30.052  10.218  0.00  0.00    -0.150 OA
ATOM      6  C   LIG    1       26.266 -31.421   8.650  0.00  0.00    +0.115 A 
ATOM      7  C   LIG    1       25.162 -31.147   7.816  0.00  0.00    +0.001 A 
ATOM      8  C   LIG    1       25.135 -31.763   6.543  0.00  0.00    +0.009 A 
ATOM      9  C   LIG    1       26.168 -32.599   6.110  0.00  0.00    +0.020 A 
ATOM     10  C   LIG    1       27.257 -32.832   6.939  0.00  0.00    +0.043 A 
ATOM     11 CL   LIG    1       28.552 -33.823   6.394  0.00  0.00    -0.084 Cl
ATOM     12  C   LIG    1       24.019 -30.191   8.144  0.00  0.00    +0.118 C 
ATOM     13  C   LIG    1       23.376 -30.507   9.480  0.00  0.00    -0.004 A 
ATOM     14  C   LIG    1       22.146 -31.186   9.530  0.00  0.00    +0.007 A 
ATOM     15  C   LIG    1       21.553 -31.495  10.755  0.00  0.00    +0.001 A 
ATOM     16  C   LIG    1       22.186 -31.137  11.942  0.00  0.00    +0.002 A 
ATOM     17  C   LIG    1       23.417 -30.480  11.907  0.00  0.00    +0.025 A 
ATOM     18  C   LIG    1       27.309 -32.257   8.201  0.00  0.00    +0.049 A 
ATOM     19  C   LIG    1       24.005 -30.155  10.680  0.00  0.00    +0.056 A 
ENDROOT
BRANCH  12  20
ATOM     20  N   LIG    1       24.487 -28.803   7.972  0.00  0.00    -0.306 NA
ATOM     21  H   LIG    1       23.736 -28.198   8.305  0.00  0.00    +0.123 HD
BRANCH  20  22
ATOM     22  C   LIG    1       24.789 -28.444   6.584  0.00  0.00    +0.082 C 
BRANCH  22  23
ATOM     23  C   LIG    1       25.286 -26.991   6.485  0.00  0.00    +0.015 C 
BRANCH  23  24
ATOM     24  C   LIG    1       24.346 -26.063   5.699  0.00  0.00    +0.001 C 
BRANCH  24  25
ATOM     25  C   LIG    1       23.994 -24.800   6.495  0.00  0.00    +0.001 C 
BRANCH  25  26
ATOM     26  C   LIG    1       24.979 -23.640   6.292  0.00  0.00    +0.011 C 
BRANCH  26  27
ATOM     27  C   LIG    1       25.874 -23.380   7.502  0.00  0.00    +0.120 C 
BRANCH  27  28
ATOM     28  C   LIG    1       25.467 -22.124   8.236  0.00  0.00    +0.305 C 
ATOM     29  O   LIG    1       26.161 -21.579   9.083  0.00  0.00    -0.251 OA
BRANCH  28  30
ATOM     30  O   LIG    1       24.247 -21.659   7.891  0.00  0.00    -0.481 OA
ATOM     31  H   LIG    1       24.189 -21.311   6.981  0.00  0.00    +0.295 HD
ENDBRANCH  28  30
ENDBRANCH  27  28
ENDBRANCH  26  27
ENDBRANCH  25  26
ENDBRANCH  24  25
ENDBRANCH  23  24
ENDBRANCH  22  23
ENDBRANCH  20  22
ENDBRANCH  12  20
TORSDOF 9
ENDMDL
MODEL 4
REMARK VINA RESULT:      -6.0      2.047      2.294
REMARK  Name = *****
REMARK                            x       y       z     vdW  Elec       q    Type
REMARK                         _______ _______ _______ _____ _____    ______ ____
ROOT
ATOM      1  C   LIG    1       25.165 -33.587   7.459  0.00  0.00    +0.157 C 
ATOM      2  N   LIG    1       24.922 -32.144   7.673  0.00  0.00    -0.206 N 
ATOM      3  S   LIG    1       24.718 -31.255   6.230  0.00  0.00    +0.075 S 
ATOM      4  O   LIG    1       23.317 -31.271   5.870  0.00  0.00    -0.150 OA
ATOM      5  O   LIG    1       25.726 -31.731   5.301  0.00  0.00    -0.150 OA
ATOM      6  C   LIG    1       25.149 -29.553   6.565  0.00  0.00    +0.115 A 
ATOM      7  C   LIG    1       25.446 -29.005   7.831  0.00  0.00    +0.001 A 
ATOM      8  C   LIG    1       25.771 -27.629   7.887  0.00  0.00    +0.009 A 
ATOM      9  C   LIG    1       25.817 -26.838   6.737  0.00  0.00    +0.020 A 
ATOM     10  C   LIG    1       25.547 -27.407   5.500  0.00  0.00    +0.043 A 
ATOM     11 CL   LIG    1       25.646 -26.448   4.076  0.00  0.00    -0.084 Cl
ATOM     12  C   LIG    1       25.508 -29.784   9.141  0.00  0.00    +0.118 C 
ATOM     13  C   LIG    1       24.242 -30.578   9.394  0.00  0.00    -0.004 A 
ATOM     14  C   LIG    1       23.284 -30.108  10.309  0.00  0.00    +0.007 A 
ATOM     15  C   LIG    1       22.108 -30.823  10.538  0.00  0.00    +0.001 A 
ATOM     16  C   LIG    1       21.873 -32.011   9.850  0.00  0.00    +0.002 A 
ATOM     17  C   LIG    1       22.807 -32.478   8.925  0.00  0.00    +0.025 A 
ATOM     18  C   LIG    1       25.209 -28.750   5.408  0.00  0.00    +0.049 A 
ATOM     19  C   LIG    1       23.994 -31.771   8.706  0.00  0.00    +0.056 A 
ENDROOT
BRANCH  12  20
ATOM     20  N   LIG    1       26.766 -30.554   9.185  0.00  0.00    -0.306 NA
ATOM     21  H   LIG    1       26.503 -31.537   9.272  0.00  0.00    +0.123 HD
BRANCH  20  22
ATOM     22  C   LIG    1       27.638 -30.208  10.309  0.00  0.00    +0.082 C 
BRANCH  22  23
ATOM     23  C   LIG    1       26.819 -29.698  11.508  0.00  0.00    +0.015 C 
BRANCH  23  24
ATOM     24  C   LIG    1       27.295 -28.344  12.058  0.00  0.00    +0.001 C 
BRANCH  24  25
ATOM     25  C   LIG    1       26.121 -27.401  12.346  0.00  0.00    +0.001 C 
BRANCH  25  26
ATOM     26  C   LIG    1       24.931 -28.079  13.041  0.00  0.00    +0.011 C 
BRANCH  26  27
ATOM     27  C   LIG    1       23.759 -27.136  13.306  0.00  0.00    +0.120 C 
BRANCH  27  28
ATOM     28  C   LIG    1       22.435 -27.860  13.235  0.00  0.00    +0.305 C 
ATOM     29  O   LIG    1       21.423 -27.375  12.748  0.00  0.00    -0.251 OA
BRANCH  28  30
ATOM     30  O   LIG    1       22.455 -29.093  13.785  0.00  0.00    -0.481 OA
ATOM     31  H   LIG    1       22.707 -29.112  14.727  0.00  0.00    +0.295 HD
ENDBRANCH  28  30
ENDBRANCH  27  28
ENDBRANCH  26  27
ENDBRANCH  25  26
ENDBRANCH  24  25
ENDBRANCH  23  24
ENDBRANCH  22  23
ENDBRANCH  20  22
ENDBRANCH  12  20
TORSDOF 9
ENDMDL
MODEL 5
REMARK VINA RESULT:      -6.0      4.009      6.155
REMARK  Name = *****
REMARK                            x       y       z     vdW  Elec       q    Type
REMARK                         _______ _______ _______ _____ _____    ______ ____
ROOT
ATOM      1  C   LIG    1       20.732 -30.324  11.918  0.00  0.00    +0.157 C 
ATOM      2  N   LIG    1       22.211 -30.288  11.939  0.00  0.00    -0.206 N 
ATOM      3  S   LIG    1       22.859 -29.044  12.912  0.00  0.00    +0.075 S 
ATOM      4  O   LIG    1       23.014 -29.543  14.260  0.00  0.00    -0.150 OA
ATOM      5  O   LIG    1       22.069 -27.855  12.649  0.00  0.00    -0.150 OA
ATOM      6  C   LIG    1       24.498 -28.668  12.306  0.00  0.00    +0.115 A 
ATOM      7  C   LIG    1       25.198 -29.378  11.310  0.00  0.00    +0.001 A 
ATOM      8  C   LIG    1       26.490 -28.917  10.964  0.00  0.00    +0.009 A 
ATOM      9  C   LIG    1       27.053 -27.789  11.566  0.00  0.00    +0.020 A 
ATOM     10  C   LIG    1       26.332 -27.090  12.525  0.00  0.00    +0.043 A 
ATOM     11 CL   LIG    1       27.001 -25.675  13.238  0.00  0.00    -0.084 Cl
ATOM     12  C   LIG    1       24.658 -30.571  10.526  0.00  0.00    +0.118 C 
ATOM     13  C   LIG    1       24.142 -31.666  11.437  0.00  0.00    -0.004 A 
ATOM     14  C   LIG    1       24.914 -32.817  11.667  0.00  0.00    +0.007 A 
ATOM     15  C   LIG    1       24.454 -33.825  12.516  0.00  0.00    +0.001 A 
ATOM     16  C   LIG    1       23.222 -33.690  13.149  0.00  0.00    +0.002 A 
ATOM     17  C   LIG    1       22.453 -32.544  12.944  0.00  0.00    +0.025 A 
ATOM     18  C   LIG    1       25.068 -27.524  12.901  0.00  0.00    +0.049 A 
ATOM     19  C   LIG    1       22.905 -31.539  12.081  0.00  0.00    +0.056 A 
ENDROOT
BRANCH  12  20
ATOM     20  N   LIG    1       23.710 -30.086   9.505  0.00  0.00    -0.306 NA
ATOM     21  H   LIG    1       22.780 -30.382   9.807  0.00  0.00    +0.123 HD
BRANCH  20  22
ATOM     22  C   LIG    1       23.952 -30.621   8.164  0.00  0.00    +0.082 C 
BRANCH  22  23
ATOM     23  C   LIG    1       25.136 -29.906   7.489  0.00  0.00    +0.015 C 
BRANCH  23  24
ATOM     24  C   LIG    1       24.768 -28.555   6.854  0.00  0.00    +0.001 C 
BRANCH  24  25
ATOM     25  C   LIG    1       25.742 -27.446   7.272  0.00  0.00    +0.001 C 
BRANCH  25  26
ATOM     26  C   LIG    1       25.715 -26.214   6.355  0.00  0.00    +0.011 C 
BRANCH  26  27
ATOM     27  C   LIG    1       24.306 -25.771   5.967  0.00  0.00    +0.120 C 
BRANCH  27  28
ATOM     28  C   LIG    1       23.962 -24.426   6.563  0.00  0.00    +0.305 C 
ATOM     29  O   LIG    1       24.798 -23.606   6.914  0.00  0.00    -0.251 OA
BRANCH  28  30
ATOM     30  O   LIG    1       22.635 -24.211   6.700  0.00  0.00    -0.481 OA
ATOM     31  H   LIG    1       22.213 -24.733   7.408  0.00  0.00    +0.295 HD
ENDBRANCH  28  30
ENDBRANCH  27  28
ENDBRANCH  26  27
ENDBRANCH  25  26
ENDBRANCH  24  25
ENDBRANCH  23  24
ENDBRANCH  22  23
ENDBRANCH  20  22
ENDBRANCH  12  20
TORSDOF 9
ENDMDL
MODEL 6
REMARK VINA RESULT:      -5.9      8.751     11.344
REMARK  Name = *****
REMARK                            x       y       z     vdW  Elec       q    Type
REMARK                         _______ _______ _______ _____ _____    ______ ____
ROOT
ATOM      1  C   LIG    1       22.972 -21.774   8.515  0.00  0.00    +0.157 C 
ATOM      2  N   LIG    1       24.120 -21.721   7.583  0.00  0.00    -0.206 N 
ATOM      3  S   LIG    1       25.608 -21.362   8.337  0.00  0.00    +0.075 S 
ATOM      4  O   LIG    1       26.221 -22.600   8.764  0.00  0.00    -0.150 OA
ATOM      5  O   LIG    1       25.347 -20.299   9.289  0.00  0.00    -0.150 OA
ATOM      6  C   LIG    1       26.690 -20.644   7.109  0.00  0.00    +0.115 A 
ATOM      7  C   LIG    1       26.424 -20.540   5.727  0.00  0.00    +0.001 A 
ATOM      8  C   LIG    1       27.410 -19.931   4.916  0.00  0.00    +0.009 A 
ATOM      9  C   LIG    1       28.597 -19.429   5.456  0.00  0.00    +0.020 A 
ATOM     10  C   LIG    1       28.823 -19.518   6.823  0.00  0.00    +0.043 A 
ATOM     11 CL   LIG    1       30.261 -18.862   7.499  0.00  0.00    -0.084 Cl
ATOM     12  C   LIG    1       25.135 -20.976   5.037  0.00  0.00    +0.118 C 
ATOM     13  C   LIG    1       24.776 -22.414   5.354  0.00  0.00    -0.004 A 
ATOM     14  C   LIG    1       25.022 -23.429   4.413  0.00  0.00    +0.007 A 
ATOM     15  C   LIG    1       24.709 -24.758   4.701  0.00  0.00    +0.001 A 
ATOM     16  C   LIG    1       24.154 -25.088   5.934  0.00  0.00    +0.002 A 
ATOM     17  C   LIG    1       23.922 -24.093   6.885  0.00  0.00    +0.025 A 
ATOM     18  C   LIG    1       27.884 -20.125   7.647  0.00  0.00    +0.049 A 
ATOM     19  C   LIG    1       24.220 -22.758   6.592  0.00  0.00    +0.056 A 
ENDROOT
BRANCH  12  20
ATOM     20  N   LIG    1       24.083 -19.979   5.308  0.00  0.00    -0.306 NA
ATOM     21  H   LIG    1       23.275 -20.495   5.659  0.00  0.00    +0.123 HD
BRANCH  20  22
ATOM     22  C   LIG    1       23.668 -19.215   4.129  0.00  0.00    +0.082 C 
BRANCH  22  23
ATOM     23  C   LIG    1       22.236 -18.676   4.296  0.00  0.00    +0.015 C 
BRANCH  23  24
ATOM     24  C   LIG    1       22.171 -17.186   4.667  0.00  0.00    +0.001 C 
BRANCH  24  25
ATOM     25  C   LIG    1       23.409 -16.422   4.183  0.00  0.00    +0.001 C 
BRANCH  25  26
ATOM     26  C   LIG    1       23.421 -14.938   4.577  0.00  0.00    +0.011 C 
BRANCH  26  27
ATOM     27  C   LIG    1       24.189 -14.052   3.598  0.00  0.00    +0.120 C 
BRANCH  27  28
ATOM     28  C   LIG    1       25.672 -14.331   3.641  0.00  0.00    +0.305 C 
ATOM     29  O   LIG    1       26.291 -14.852   2.723  0.00  0.00    -0.251 OA
BRANCH  28  30
ATOM     30  O   LIG    1       26.264 -13.976   4.802  0.00  0.00    -0.481 OA
ATOM     31  H   LIG    1       25.706 -14.101   5.593  0.00  0.00    +0.295 HD
ENDBRANCH  28  30
ENDBRANCH  27  28
ENDBRANCH  26  27
ENDBRANCH  25  26
ENDBRANCH  24  25
ENDBRANCH  23  24
ENDBRANCH  22  23
ENDBRANCH  20  22
ENDBRANCH  12  20
TORSDOF 9
ENDMDL
MODEL 7
REMARK VINA RESULT:      -5.9      3.641      5.621
REMARK  Name = *****
REMARK                            x       y       z     vdW  Elec       q    Type
REMARK                         _______ _______ _______ _____ _____    ______ ____
ROOT
ATOM      1  C   LIG    1       24.980 -29.584  10.854  0.00  0.00    +0.157 C 
ATOM      2  N   LIG    1       24.879 -30.647   9.830  0.00  0.00    -0.206 N 
ATOM      3  S   LIG    1       26.352 -31.453   9.521  0.00  0.00    +0.075 S 
ATOM      4  O   LIG    1       26.470 -32.568  10.433  0.00  0.00    -0.150 OA
ATOM      5  O   LIG    1       27.382 -30.432   9.464  0.00  0.00    -0.150 OA
ATOM      6  C   LIG    1       26.271 -32.137   7.872  0.00  0.00    +0.115 A 
ATOM      7  C   LIG    1       25.136 -32.153   7.034  0.00  0.00    +0.001 A 
ATOM      8  C   LIG    1       25.277 -32.739   5.754  0.00  0.00    +0.009 A 
ATOM      9  C   LIG    1       26.494 -33.269   5.319  0.00  0.00    +0.020 A 
ATOM     10  C   LIG    1       27.604 -33.216   6.152  0.00  0.00    +0.043 A 
ATOM     11 CL   LIG    1       29.116 -33.825   5.604  0.00  0.00    -0.084 Cl
ATOM     12  C   LIG    1       23.781 -31.536   7.366  0.00  0.00    +0.118 C 
ATOM     13  C   LIG    1       23.240 -32.026   8.694  0.00  0.00    -0.004 A 
ATOM     14  C   LIG    1       22.232 -33.005   8.730  0.00  0.00    +0.007 A 
ATOM     15  C   LIG    1       21.738 -33.474   9.947  0.00  0.00    +0.001 A 
ATOM     16  C   LIG    1       22.251 -32.976  11.142  0.00  0.00    +0.002 A 
ATOM     17  C   LIG    1       23.265 -32.019  11.122  0.00  0.00    +0.025 A 
ATOM     18  C   LIG    1       27.499 -32.663   7.421  0.00  0.00    +0.049 A 
ATOM     19  C   LIG    1       23.750 -31.535   9.902  0.00  0.00    +0.056 A 
ENDROOT
BRANCH  12  20
ATOM     20  N   LIG    1       23.868 -30.072   7.211  0.00  0.00    -0.306 NA
ATOM     21  H   LIG    1       22.948 -29.698   7.449  0.00  0.00    +0.123 HD
BRANCH  20  22
ATOM     22  C   LIG    1       24.208 -29.635   5.855  0.00  0.00    +0.082 C 
BRANCH  22  23
ATOM     23  C   LIG    1       24.368 -28.106   5.791  0.00  0.00    +0.015 C 
BRANCH  23  24
ATOM     24  C   LIG    1       25.523 -27.637   4.892  0.00  0.00    +0.001 C 
BRANCH  24  25
ATOM     25  C   LIG    1       26.434 -26.635   5.611  0.00  0.00    +0.001 C 
BRANCH  25  26
ATOM     26  C   LIG    1       25.856 -26.099   6.929  0.00  0.00    +0.011 C 
BRANCH  26  27
ATOM     27  C   LIG    1       25.700 -24.580   6.955  0.00  0.00    +0.120 C 
BRANCH  27  28
ATOM     28  C   LIG    1       24.593 -24.118   6.037  0.00  0.00    +0.305 C 
ATOM     29  O   LIG    1       24.753 -23.306   5.137  0.00  0.00    -0.251 OA
BRANCH  28  30
ATOM     30  O   LIG    1       23.389 -24.665   6.312  0.00  0.00    -0.481 OA
ATOM     31  H   LIG    1       23.169 -24.699   7.262  0.00  0.00    +0.295 HD
ENDBRANCH  28  30
ENDBRANCH  27  28
ENDBRANCH  26  27
ENDBRANCH  25  26
ENDBRANCH  24  25
ENDBRANCH  23  24
ENDBRANCH  22  23
ENDBRANCH  20  22
ENDBRANCH  12  20
TORSDOF 9
ENDMDL
MODEL 8
REMARK VINA RESULT:      -5.8      7.114      9.567
REMARK  Name = *****
REMARK                            x       y       z     vdW  Elec       q    Type
REMARK                         _______ _______ _______ _____ _____    ______ ____
ROOT
ATOM      1  C   LIG    1       22.670 -19.987   7.744  0.00  0.00    +0.157 C 
ATOM      2  N   LIG    1       23.532 -20.916   6.981  0.00  0.00    -0.206 N 
ATOM      3  S   LIG    1       22.833 -22.452   6.719  0.00  0.00    +0.075 S 
ATOM      4  O   LIG    1       22.070 -22.410   5.492  0.00  0.00    -0.150 OA
ATOM      5  O   LIG    1       22.206 -22.842   7.968  0.00  0.00    -0.150 OA
ATOM      6  C   LIG    1       24.158 -23.624   6.467  0.00  0.00    +0.115 A 
ATOM      7  C   LIG    1       25.529 -23.314   6.342  0.00  0.00    +0.001 A 
ATOM      8  C   LIG    1       26.427 -24.391   6.152  0.00  0.00    +0.009 A 
ATOM      9  C   LIG    1       25.987 -25.715   6.107  0.00  0.00    +0.020 A 
ATOM     10  C   LIG    1       24.636 -25.997   6.260  0.00  0.00    +0.043 A 
ATOM     11 CL   LIG    1       24.093 -27.628   6.251  0.00  0.00    -0.084 Cl
ATOM     12  C   LIG    1       26.136 -21.919   6.456  0.00  0.00    +0.118 C 
ATOM     13  C   LIG    1       25.469 -20.928   5.523  0.00  0.00    -0.004 A 
ATOM     14  C   LIG    1       26.098 -20.550   4.325  0.00  0.00    +0.007 A 
ATOM     15  C   LIG    1       25.486 -19.650   3.452  0.00  0.00    +0.001 A 
ATOM     16  C   LIG    1       24.235 -19.125   3.763  0.00  0.00    +0.002 A 
ATOM     17  C   LIG    1       23.590 -19.506   4.940  0.00  0.00    +0.025 A 
ATOM     18  C   LIG    1       23.723 -24.964   6.432  0.00  0.00    +0.049 A 
ATOM     19  C   LIG    1       24.210 -20.396   5.824  0.00  0.00    +0.056 A 
ENDROOT
BRANCH  12  20
ATOM     20  N   LIG    1       26.183 -21.529   7.877  0.00  0.00    -0.306 NA
ATOM     21  H   LIG    1       25.226 -21.303   8.150  0.00  0.00    +0.123 HD
BRANCH  20  22
ATOM     22  C   LIG    1       27.029 -20.364   8.148  0.00  0.00    +0.082 C 
BRANCH  22  23
ATOM     23  C   LIG    1       28.462 -20.590   7.637  0.00  0.00    +0.015 C 
BRANCH  23  24
ATOM     24  C   LIG    1       28.919 -19.564   6.587  0.00  0.00    +0.001 C 
BRANCH  24  25
ATOM     25  C   LIG    1       30.110 -18.734   7.082  0.00  0.00    +0.001 C 
BRANCH  25  26
ATOM     26  C   LIG    1       30.306 -18.769   8.604  0.00  0.00    +0.011 C 
BRANCH  26  27
ATOM     27  C   LIG    1       30.155 -17.404   9.272  0.00  0.00    +0.120 C 
BRANCH  27  28
ATOM     28  C   LIG    1       30.456 -17.470  10.750  0.00  0.00    +0.305 C 
ATOM     29  O   LIG    1       30.744 -18.504  11.337  0.00  0.00    -0.251 OA
BRANCH  28  30
ATOM     30  O   LIG    1       30.356 -16.282  11.384  0.00  0.00    -0.481 OA
ATOM     31  H   LIG    1       29.859 -16.312  12.223  0.00  0.00    +0.295 HD
ENDBRANCH  28  30
ENDBRANCH  27  28
ENDBRANCH  26  27
ENDBRANCH  25  26
ENDBRANCH  24  25
ENDBRANCH  23  24
ENDBRANCH  22  23
ENDBRANCH  20  22
ENDBRANCH  12  20
TORSDOF 9
ENDMDL
MODEL 9
REMARK VINA RESULT:      -5.8      4.248      6.226
REMARK  Name = *****
REMARK                            x       y       z     vdW  Elec       q    Type
REMARK                         _______ _______ _______ _____ _____    ______ ____
ROOT
ATOM      1  C   LIG    1       22.973 -32.746   9.721  0.00  0.00    +0.157 C 
ATOM      2  N   LIG    1       23.175 -31.765  10.810  0.00  0.00    -0.206 N 
ATOM      3  S   LIG    1       21.726 -31.094  11.414  0.00  0.00    +0.075 S 
ATOM      4  O   LIG    1       21.236 -31.936  12.483  0.00  0.00    -0.150 OA
ATOM      5  O   LIG    1       20.893 -30.797  10.264  0.00  0.00    -0.150 OA
ATOM      6  C   LIG    1       22.115 -29.507  12.140  0.00  0.00    +0.115 A 
ATOM      7  C   LIG    1       23.407 -28.975  12.328  0.00  0.00    +0.001 A 
ATOM      8  C   LIG    1       23.506 -27.692  12.919  0.00  0.00    +0.009 A 
ATOM      9  C   LIG    1       22.371 -26.965  13.287  0.00  0.00    +0.020 A 
ATOM     10  C   LIG    1       21.109 -27.499  13.065  0.00  0.00    +0.043 A 
ATOM     11 CL   LIG    1       19.709 -26.589  13.474  0.00  0.00    -0.084 Cl
ATOM     12  C   LIG    1       24.712 -29.637  11.895  0.00  0.00    +0.118 C 
ATOM     13  C   LIG    1       24.837 -31.052  12.424  0.00  0.00    -0.004 A 
ATOM     14  C   LIG    1       25.661 -31.322  13.530  0.00  0.00    +0.007 A 
ATOM     15  C   LIG    1       25.772 -32.618  14.035  0.00  0.00    +0.001 A 
ATOM     16  C   LIG    1       25.055 -33.656  13.445  0.00  0.00    +0.002 A 
ATOM     17  C   LIG    1       24.219 -33.398  12.359  0.00  0.00    +0.025 A 
ATOM     18  C   LIG    1       20.975 -28.762  12.503  0.00  0.00    +0.049 A 
ATOM     19  C   LIG    1       24.118 -32.102  11.841  0.00  0.00    +0.056 A 
ENDROOT
BRANCH  12  20
ATOM     20  N   LIG    1       24.868 -29.483  10.436  0.00  0.00    -0.306 NA
ATOM     21  H   LIG    1       24.501 -30.337  10.012  0.00  0.00    +0.123 HD
BRANCH  20  22
ATOM     22  C   LIG    1       26.255 -29.309  10.000  0.00  0.00    +0.082 C 
BRANCH  22  23
ATOM     23  C   LIG    1       26.324 -28.531   8.674  0.00  0.00    +0.015 C 
BRANCH  23  24
ATOM     24  C   LIG    1       25.183 -28.859   7.698  0.00  0.00    +0.001 C 
BRANCH  24  25
ATOM     25  C   LIG    1       25.354 -28.135   6.357  0.00  0.00    +0.001 C 
BRANCH  25  26
ATOM     26  C   LIG    1       24.470 -26.889   6.203  0.00  0.00    +0.011 C 
BRANCH  26  27
ATOM     27  C   LIG    1       25.188 -25.584   6.543  0.00  0.00    +0.120 C 
BRANCH  27  28
ATOM     28  C   LIG    1       24.353 -24.379   6.182  0.00  0.00    +0.305 C 
ATOM     29  O   LIG    1       24.809 -23.368   5.666  0.00  0.00    -0.251 OA
BRANCH  28  30
ATOM     30  O   LIG    1       23.047 -24.501   6.504  0.00  0.00    -0.481 OA
ATOM     31  H   LIG    1       22.608 -23.662   6.738  0.00  0.00    +0.295 HD
ENDBRANCH  28  30
ENDBRANCH  27  28
ENDBRANCH  26  27
ENDBRANCH  25  26
ENDBRANCH  24  25
ENDBRANCH  23  24
ENDBRANCH  22  23
ENDBRANCH  20  22
ENDBRANCH  12  20
TORSDOF 9
ENDMDL
