MODEL 1
REMARK VINA RESULT:      -9.4      0.000      0.000
REMARK  Name = *****
REMARK                            x       y       z     vdW  Elec       q    Type
REMARK                         _______ _______ _______ _____ _____    ______ ____
ROOT
ATOM      1  C   LIG    1       26.505 -21.035   6.567  0.00  0.00    -0.032 C 
ATOM      2  C   LIG    1       25.538 -20.433   5.635  0.00  0.00    -0.018 A 
ATOM      3  C   LIG    1       26.224 -19.588   4.753  0.00  0.00    -0.036 A 
ATOM      4  C   LIG    1       25.574 -18.909   3.735  0.00  0.00    +0.004 A 
ATOM      5  C   LIG    1       24.198 -19.087   3.600  0.00  0.00    +0.000 A 
ATOM      6  C   LIG    1       23.500 -19.925   4.484  0.00  0.00    +0.001 A 
ATOM      7  C   LIG    1       27.677 -19.575   5.082  0.00  0.00    +0.067 C 
ATOM      8  C   LIG    1       24.169 -20.599   5.509  0.00  0.00    +0.008 A 
ATOM      9  C   LIG    1       27.717 -20.537   6.249  0.00  0.00    -0.060 C 
ENDROOT
BRANCH   1  11
ATOM     10  C   LIG    1       25.402 -21.401   8.797  0.00  0.00    +0.019 C 
ATOM     11  C   LIG    1       26.153 -22.064   7.629  0.00  0.00    +0.065 C 
BRANCH  11  12
ATOM     12  C   LIG    1       25.423 -23.305   7.105  0.00  0.00    +0.048 A 
ATOM     13  N   LIG    1       26.188 -24.337   6.661  0.00  0.00    -0.259 NA
ATOM     14  C   LIG    1       25.563 -25.446   6.207  0.00  0.00    +0.111 A 
ATOM     15  C   LIG    1       24.190 -25.592   6.166  0.00  0.00    +0.020 A 
ATOM     16  C   LIG    1       23.410 -24.524   6.588  0.00  0.00    +0.003 A 
ATOM     17  C   LIG    1       24.028 -23.360   7.040  0.00  0.00    +0.024 A 
ENDBRANCH  11  12
ENDBRANCH   1  11
BRANCH   9  18
ATOM     18  C   LIG    1       29.037 -20.788   6.924  0.00  0.00    +0.047 C 
BRANCH  18  19
ATOM     19  C   LIG    1       30.021 -19.608   6.804  0.00  0.00    +0.088 C 
BRANCH  19  20
ATOM     20  N   LIG    1       31.247 -19.801   7.608  0.00  0.00    -0.308 NA
ATOM     21  C   LIG    1       31.021 -20.784   8.672  0.00  0.00    +0.104 C 
ATOM     22  C   LIG    1       31.699 -18.541   8.206  0.00  0.00    +0.104 C 
ENDBRANCH  19  20
ENDBRANCH  18  19
ENDBRANCH   9  18
TORSDOF 5
ENDMDL
MODEL 2
REMARK VINA RESULT:      -9.3      2.107      4.935
REMARK  Name = *****
REMARK                            x       y       z     vdW  Elec       q    Type
REMARK                         _______ _______ _______ _____ _____    ______ ____
ROOT
ATOM      1  C   LIG    1       26.336 -20.733   6.558  0.00  0.00    -0.032 C 
ATOM      2  C   LIG    1       27.662 -20.175   6.872  0.00  0.00    -0.018 A 
ATOM      3  C   LIG    1       28.133 -19.473   5.755  0.00  0.00    -0.036 A 
ATOM      4  C   LIG    1       29.348 -18.806   5.769  0.00  0.00    +0.004 A 
ATOM      5  C   LIG    1       30.106 -18.844   6.939  0.00  0.00    +0.000 A 
ATOM      6  C   LIG    1       29.646 -19.551   8.061  0.00  0.00    +0.001 A 
ATOM      7  C   LIG    1       27.148 -19.560   4.642  0.00  0.00    +0.067 C 
ATOM      8  C   LIG    1       28.420 -20.224   8.029  0.00  0.00    +0.008 A 
ATOM      9  C   LIG    1       26.055 -20.383   5.287  0.00  0.00    -0.060 C 
ENDROOT
BRANCH   1  11
ATOM     10  C   LIG    1       24.232 -20.673   7.934  0.00  0.00    +0.019 C 
ATOM     11  C   LIG    1       25.469 -21.500   7.544  0.00  0.00    +0.065 C 
BRANCH  11  12
ATOM     12  C   LIG    1       25.099 -22.920   7.105  0.00  0.00    +0.048 A 
ATOM     13  N   LIG    1       23.778 -23.201   6.952  0.00  0.00    -0.259 NA
ATOM     14  C   LIG    1       23.432 -24.445   6.552  0.00  0.00    +0.111 A 
ATOM     15  C   LIG    1       24.343 -25.450   6.291  0.00  0.00    +0.020 A 
ATOM     16  C   LIG    1       25.690 -25.171   6.482  0.00  0.00    +0.003 A 
ATOM     17  C   LIG    1       26.073 -23.905   6.915  0.00  0.00    +0.024 A 
ENDBRANCH  11  12
ENDBRANCH   1  11
BRANCH   9  18
ATOM     18  C   LIG    1       24.849 -20.742   4.464  0.00  0.00    +0.047 C 
BRANCH  18  19
ATOM     19  C   LIG    1       23.998 -19.523   4.058  0.00  0.00    +0.088 C 
BRANCH  19  20
ATOM     20  N   LIG    1       22.754 -19.405   4.847  0.00  0.00    -0.308 NA
ATOM     21  C   LIG    1       22.070 -20.700   4.935  0.00  0.00    +0.104 C 
ATOM     22  C   LIG    1       21.840 -18.419   4.263  0.00  0.00    +0.104 C 
ENDBRANCH  19  20
ENDBRANCH  18  19
ENDBRANCH   9  18
TORSDOF 5
ENDMDL
MODEL 3
REMARK VINA RESULT:      -8.6      1.707      4.725
REMARK  Name = *****
REMARK                            x       y       z     vdW  Elec       q    Type
REMARK                         _______ _______ _______ _____ _____    ______ ____
ROOT
ATOM      1  C   LIG    1       24.672 -22.399   6.797  0.00  0.00    -0.032 C 
ATOM      2  C   LIG    1       24.672 -23.848   6.542  0.00  0.00    -0.018 A 
ATOM      3  C   LIG    1       25.954 -24.353   6.798  0.00  0.00    -0.036 A 
ATOM      4  C   LIG    1       26.247 -25.702   6.677  0.00  0.00    +0.004 A 
ATOM      5  C   LIG    1       25.223 -26.566   6.292  0.00  0.00    +0.000 A 
ATOM      6  C   LIG    1       23.937 -26.069   6.026  0.00  0.00    +0.001 A 
ATOM      7  C   LIG    1       26.866 -23.250   7.210  0.00  0.00    +0.067 C 
ATOM      8  C   LIG    1       23.659 -24.704   6.146  0.00  0.00    +0.008 A 
ATOM      9  C   LIG    1       25.925 -22.067   7.171  0.00  0.00    -0.060 C 
ENDROOT
BRANCH   1  11
ATOM     10  C   LIG    1       23.183 -20.797   8.039  0.00  0.00    +0.019 C 
ATOM     11  C   LIG    1       23.445 -21.507   6.699  0.00  0.00    +0.065 C 
BRANCH  11  12
ATOM     12  C   LIG    1       23.453 -20.529   5.521  0.00  0.00    +0.048 A 
ATOM     13  N   LIG    1       24.434 -20.678   4.593  0.00  0.00    -0.259 NA
ATOM     14  C   LIG    1       24.451 -19.833   3.538  0.00  0.00    +0.111 A 
ATOM     15  C   LIG    1       23.527 -18.823   3.348  0.00  0.00    +0.020 A 
ATOM     16  C   LIG    1       22.546 -18.650   4.315  0.00  0.00    +0.003 A 
ATOM     17  C   LIG    1       22.519 -19.493   5.423  0.00  0.00    +0.024 A 
ENDBRANCH  11  12
ENDBRANCH   1  11
BRANCH   9  18
ATOM     18  C   LIG    1       26.473 -20.705   7.495  0.00  0.00    +0.047 C 
BRANCH  18  19
ATOM     19  C   LIG    1       27.609 -20.261   6.553  0.00  0.00    +0.088 C 
BRANCH  19  20
ATOM     20  N   LIG    1       28.776 -19.716   7.280  0.00  0.00    -0.308 NA
ATOM     21  C   LIG    1       29.574 -18.851   6.406  0.00  0.00    +0.104 C 
ATOM     22  C   LIG    1       29.629 -20.787   7.805  0.00  0.00    +0.104 C 
ENDBRANCH  19  20
ENDBRANCH  18  19
ENDBRANCH   9  18
TORSDOF 5
ENDMDL
MODEL 4
REMARK VINA RESULT:      -7.6      2.137      6.141
REMARK  Name = *****
REMARK                            x       y       z     vdW  Elec       q    Type
REMARK                         _______ _______ _______ _____ _____    ______ ____
ROOT
ATOM      1  C   LIG    1       24.658 -21.706   7.068  0.00  0.00    -0.032 C 
ATOM      2  C   LIG    1       24.889 -23.155   6.947  0.00  0.00    -0.018 A 
ATOM      3  C   LIG    1       23.906 -23.702   6.111  0.00  0.00    -0.036 A 
ATOM      4  C   LIG    1       23.890 -25.048   5.783  0.00  0.00    +0.004 A 
ATOM      5  C   LIG    1       24.891 -25.864   6.308  0.00  0.00    +0.000 A 
ATOM      6  C   LIG    1       25.876 -25.328   7.153  0.00  0.00    +0.001 A 
ATOM      7  C   LIG    1       22.965 -22.638   5.663  0.00  0.00    +0.067 C 
ATOM      8  C   LIG    1       25.874 -23.968   7.479  0.00  0.00    +0.008 A 
ATOM      9  C   LIG    1       23.560 -21.423   6.339  0.00  0.00    -0.060 C 
ENDROOT
BRANCH   1  11
ATOM     10  C   LIG    1       25.678 -21.185   9.306  0.00  0.00    +0.019 C 
ATOM     11  C   LIG    1       25.559 -20.752   7.835  0.00  0.00    +0.065 C 
BRANCH  11  12
ATOM     12  C   LIG    1       26.927 -20.504   7.194  0.00  0.00    +0.048 A 
ATOM     13  N   LIG    1       26.943 -19.984   5.938  0.00  0.00    -0.259 NA
ATOM     14  C   LIG    1       28.141 -19.746   5.360  0.00  0.00    +0.111 A 
ATOM     15  C   LIG    1       29.354 -20.001   5.972  0.00  0.00    +0.020 A 
ATOM     16  C   LIG    1       29.336 -20.564   7.240  0.00  0.00    +0.003 A 
ATOM     17  C   LIG    1       28.115 -20.841   7.850  0.00  0.00    +0.024 A 
ENDBRANCH  11  12
ENDBRANCH   1  11
BRANCH   9  18
ATOM     18  C   LIG    1       22.867 -20.099   6.169  0.00  0.00    +0.047 C 
BRANCH  18  19
ATOM     19  C   LIG    1       22.059 -19.993   4.862  0.00  0.00    +0.088 C 
BRANCH  19  20
ATOM     20  N   LIG    1       22.521 -18.892   3.990  0.00  0.00    -0.308 NA
ATOM     21  C   LIG    1       23.967 -18.984   3.760  0.00  0.00    +0.104 C 
ATOM     22  C   LIG    1       22.210 -17.582   4.570  0.00  0.00    +0.104 C 
ENDBRANCH  19  20
ENDBRANCH  18  19
ENDBRANCH   9  18
TORSDOF 5
ENDMDL
MODEL 5
REMARK VINA RESULT:      -7.5      1.441      5.310
REMARK  Name = *****
REMARK                            x       y       z     vdW  Elec       q    Type
REMARK                         _______ _______ _______ _____ _____    ______ ____
ROOT
ATOM      1  C   LIG    1       25.706 -21.229   6.409  0.00  0.00    -0.032 C 
ATOM      2  C   LIG    1       25.182 -20.594   5.189  0.00  0.00    -0.018 A 
ATOM      3  C   LIG    1       24.589 -21.577   4.385  0.00  0.00    -0.036 A 
ATOM      4  C   LIG    1       23.975 -21.267   3.182  0.00  0.00    +0.004 A 
ATOM      5  C   LIG    1       23.955 -19.932   2.779  0.00  0.00    +0.000 A 
ATOM      6  C   LIG    1       24.553 -18.941   3.573  0.00  0.00    +0.001 A 
ATOM      7  C   LIG    1       24.720 -22.913   5.030  0.00  0.00    +0.067 C 
ATOM      8  C   LIG    1       25.174 -19.271   4.781  0.00  0.00    +0.008 A 
ATOM      9  C   LIG    1       25.443 -22.548   6.307  0.00  0.00    -0.060 C 
ENDROOT
BRANCH   1  11
ATOM     10  C   LIG    1       25.840 -21.003   8.910  0.00  0.00    +0.019 C 
ATOM     11  C   LIG    1       26.357 -20.478   7.559  0.00  0.00    +0.065 C 
BRANCH  11  12
ATOM     12  C   LIG    1       27.887 -20.426   7.509  0.00  0.00    +0.048 A 
ATOM     13  N   LIG    1       28.568 -21.200   8.394  0.00  0.00    -0.259 NA
ATOM     14  C   LIG    1       29.918 -21.178   8.357  0.00  0.00    +0.111 A 
ATOM     15  C   LIG    1       30.650 -20.412   7.470  0.00  0.00    +0.020 A 
ATOM     16  C   LIG    1       29.954 -19.595   6.589  0.00  0.00    +0.003 A 
ATOM     17  C   LIG    1       28.562 -19.581   6.621  0.00  0.00    +0.024 A 
ENDBRANCH  11  12
ENDBRANCH   1  11
BRANCH   9  18
ATOM     18  C   LIG    1       25.814 -23.650   7.260  0.00  0.00    +0.047 C 
BRANCH  18  19
ATOM     19  C   LIG    1       25.144 -24.998   6.929  0.00  0.00    +0.088 C 
BRANCH  19  20
ATOM     20  N   LIG    1       26.105 -26.012   6.445  0.00  0.00    -0.308 NA
ATOM     21  C   LIG    1       25.807 -26.391   5.060  0.00  0.00    +0.104 C 
ATOM     22  C   LIG    1       26.088 -27.212   7.286  0.00  0.00    +0.104 C 
ENDBRANCH  19  20
ENDBRANCH  18  19
ENDBRANCH   9  18
TORSDOF 5
ENDMDL
MODEL 6
REMARK VINA RESULT:      -7.3      2.429      6.077
REMARK  Name = *****
REMARK                            x       y       z     vdW  Elec       q    Type
REMARK                         _______ _______ _______ _____ _____    ______ ____
ROOT
ATOM      1  C   LIG    1       24.683 -22.331   6.857  0.00  0.00    -0.032 C 
ATOM      2  C   LIG    1       25.961 -21.669   7.165  0.00  0.00    -0.018 A 
ATOM      3  C   LIG    1       26.973 -22.638   7.207  0.00  0.00    -0.036 A 
ATOM      4  C   LIG    1       28.297 -22.304   7.442  0.00  0.00    +0.004 A 
ATOM      5  C   LIG    1       28.611 -20.959   7.636  0.00  0.00    +0.000 A 
ATOM      6  C   LIG    1       27.604 -19.982   7.604  0.00  0.00    +0.001 A 
ATOM      7  C   LIG    1       26.400 -23.989   6.953  0.00  0.00    +0.067 C 
ATOM      8  C   LIG    1       26.271 -20.336   7.372  0.00  0.00    +0.008 A 
ATOM      9  C   LIG    1       24.941 -23.649   6.744  0.00  0.00    -0.060 C 
ENDROOT
BRANCH   1  11
ATOM     10  C   LIG    1       22.893 -20.961   7.973  0.00  0.00    +0.019 C 
ATOM     11  C   LIG    1       23.363 -21.603   6.656  0.00  0.00    +0.065 C 
BRANCH  11  12
ATOM     12  C   LIG    1       23.349 -20.607   5.492  0.00  0.00    +0.048 A 
ATOM     13  N   LIG    1       24.238 -20.812   4.485  0.00  0.00    -0.259 NA
ATOM     14  C   LIG    1       24.232 -19.953   3.442  0.00  0.00    +0.111 A 
ATOM     15  C   LIG    1       23.373 -18.875   3.340  0.00  0.00    +0.020 A 
ATOM     16  C   LIG    1       22.489 -18.647   4.386  0.00  0.00    +0.003 A 
ATOM     17  C   LIG    1       22.489 -19.504   5.483  0.00  0.00    +0.024 A 
ENDBRANCH  11  12
ENDBRANCH   1  11
BRANCH   9  18
ATOM     18  C   LIG    1       23.974 -24.772   6.488  0.00  0.00    +0.047 C 
BRANCH  18  19
ATOM     19  C   LIG    1       24.396 -25.692   5.325  0.00  0.00    +0.088 C 
BRANCH  19  20
ATOM     20  N   LIG    1       25.080 -26.919   5.785  0.00  0.00    -0.308 NA
ATOM     21  C   LIG    1       26.319 -27.136   5.031  0.00  0.00    +0.104 C 
ATOM     22  C   LIG    1       24.220 -28.097   5.645  0.00  0.00    +0.104 C 
ENDBRANCH  19  20
ENDBRANCH  18  19
ENDBRANCH   9  18
TORSDOF 5
ENDMDL
MODEL 7
REMARK VINA RESULT:      -6.5      2.298      5.331
REMARK  Name = *****
REMARK                            x       y       z     vdW  Elec       q    Type
REMARK                         _______ _______ _______ _____ _____    ______ ____
ROOT
ATOM      1  C   LIG    1       25.834 -19.928   4.876  0.00  0.00    -0.032 C 
ATOM      2  C   LIG    1       24.752 -20.645   5.569  0.00  0.00    -0.018 A 
ATOM      3  C   LIG    1       25.221 -21.076   6.817  0.00  0.00    -0.036 A 
ATOM      4  C   LIG    1       24.407 -21.752   7.712  0.00  0.00    +0.004 A 
ATOM      5  C   LIG    1       23.086 -21.998   7.342  0.00  0.00    +0.000 A 
ATOM      6  C   LIG    1       22.608 -21.579   6.091  0.00  0.00    +0.001 A 
ATOM      7  C   LIG    1       26.647 -20.682   6.992  0.00  0.00    +0.067 C 
ATOM      8  C   LIG    1       23.444 -20.902   5.197  0.00  0.00    +0.008 A 
ATOM      9  C   LIG    1       26.908 -19.959   5.690  0.00  0.00    -0.060 C 
ENDROOT
BRANCH   1  11
ATOM     10  C   LIG    1       24.600 -19.940   2.685  0.00  0.00    +0.019 C 
ATOM     11  C   LIG    1       25.689 -19.248   3.524  0.00  0.00    +0.065 C 
BRANCH  11  12
ATOM     12  C   LIG    1       25.493 -17.730   3.584  0.00  0.00    +0.048 A 
ATOM     13  N   LIG    1       26.574 -16.951   3.321  0.00  0.00    -0.259 NA
ATOM     14  C   LIG    1       26.419 -15.609   3.356  0.00  0.00    +0.111 A 
ATOM     15  C   LIG    1       25.222 -14.982   3.647  0.00  0.00    +0.020 A 
ATOM     16  C   LIG    1       24.127 -15.779   3.949  0.00  0.00    +0.003 A 
ATOM     17  C   LIG    1       24.265 -17.165   3.942  0.00  0.00    +0.024 A 
ENDBRANCH  11  12
ENDBRANCH   1  11
BRANCH   9  18
ATOM     18  C   LIG    1       28.288 -19.416   5.437  0.00  0.00    +0.047 C 
BRANCH  18  19
ATOM     19  C   LIG    1       29.351 -19.969   6.406  0.00  0.00    +0.088 C 
BRANCH  19  20
ATOM     20  N   LIG    1       30.077 -18.904   7.129  0.00  0.00    -0.308 NA
ATOM     21  C   LIG    1       31.508 -19.215   7.212  0.00  0.00    +0.104 C 
ATOM     22  C   LIG    1       29.547 -18.717   8.482  0.00  0.00    +0.104 C 
ENDBRANCH  19  20
ENDBRANCH  18  19
ENDBRANCH   9  18
TORSDOF 5
ENDMDL
