REMARK  Name = *****
REMARK                            x       y       z     vdW  Elec       q    Type
REMARK                         _______ _______ _______ _____ _____    ______ ____
ROOT
ATOM      1  C   LIG    1        7.712  -1.278  -1.458  0.00  0.00    +0.177 C 
ENDROOT
BRANCH   1   2
ATOM      2  O   LIG    1        6.698  -2.112  -0.875  0.00  0.00    -0.387 OA
ATOM      3  H   LIG    1        6.041  -1.500  -0.485  0.00  0.00    +0.210 HD
ENDBRANCH   1   2
BRANCH   1   4
ATOM      4  C   LIG    1        8.357  -0.401  -0.353  0.00  0.00    +0.186 C 
BRANCH   4   5
ATOM      5  C   LIG    1        9.058  -1.262   0.696  0.00  0.00    +0.259 C 
ATOM      6  F   LIG    1        9.988  -2.054   0.084  0.00  0.00    -0.235 F 
BRANCH   5   8
ATOM      7  O   LIG    1       10.831   0.089   1.663  0.00  0.00    -0.298 OA
ATOM      8  C   LIG    1        9.700  -0.368   1.739  0.00  0.00    +0.262 C 
ENDBRANCH   5   8
ENDBRANCH   4   5
BRANCH   4   9
ATOM      9  O   LIG    1        7.363   0.408   0.299  0.00  0.00    -0.386 OA
ATOM     10  H   LIG    1        6.897   0.909  -0.406  0.00  0.00    +0.210 HD
ENDBRANCH   4   9
ENDBRANCH   1   4
BRANCH   1  11
ATOM     11  C   LIG    1        7.092  -0.443  -2.600  0.00  0.00    +0.171 C 
BRANCH  11  12
ATOM     12  O   LIG    1        6.031   0.382  -2.083  0.00  0.00    -0.387 OA
ATOM     13  H   LIG    1        5.567   0.722  -2.878  0.00  0.00    +0.210 HD
ENDBRANCH  11  12
BRANCH  11  14
ATOM     14  C   LIG    1        6.547  -1.332  -3.731  0.00  0.00    +0.190 C 
BRANCH  14  15
ATOM     15  O   LIG    1        6.069  -0.496  -4.790  0.00  0.00    -0.392 OA
ATOM     16  H   LIG    1        5.783  -1.093  -5.507  0.00  0.00    +0.209 HD
ENDBRANCH  14  15
ENDBRANCH  11  14
ENDBRANCH   1  11
TORSDOF 9
