MODEL 1
REMARK VINA RESULT:       9.3      0.000      0.000
REMARK  Name = *****
REMARK                            x       y       z     vdW  Elec       q    Type
REMARK                         _______ _______ _______ _____ _____    ______ ____
ROOT
ATOM      1  C   LIG    1       22.819 -21.364   5.189  0.00  0.00    +0.185 C 
ATOM      2  O   LIG    1       23.823 -20.528   5.763  0.00  0.00    -0.334 OA
ATOM      3  C   LIG    1       25.028 -20.705   4.996  0.00  0.00    +0.217 C 
ATOM      4  O   LIG    1       24.682 -21.494   3.825  0.00  0.00    -0.341 OA
ATOM      5  C   LIG    1       23.252 -21.475   3.752  0.00  0.00    +0.198 C 
ENDROOT
BRANCH   3   6
ATOM      6  C   LIG    1       25.641 -19.389   4.482  0.00  0.00    +0.031 A 
ATOM      7  C   LIG    1       25.160 -18.643   3.385  0.00  0.00    +0.051 A 
ATOM      8 CL   LIG    1       23.708 -18.996   2.513  0.00  0.00    -0.083 Cl
ATOM      9  C   LIG    1       25.852 -17.517   2.912  0.00  0.00    +0.040 A 
ATOM     10  C   LIG    1       27.010 -17.081   3.541  0.00  0.00    +0.042 A 
ATOM     11 CL   LIG    1       27.852 -15.714   2.927  0.00  0.00    -0.084 Cl
ATOM     12  C   LIG    1       27.486 -17.756   4.656  0.00  0.00    +0.020 A 
ATOM     13  C   LIG    1       26.818 -18.901   5.112  0.00  0.00    +0.012 A 
ENDBRANCH   3   6
BRANCH   1  14
ATOM     14  C   LIG    1       21.417 -20.766   5.351  0.00  0.00    +0.263 C 
BRANCH  14  15
ATOM     15  O   LIG    1       21.088 -19.991   4.190  0.00  0.00    -0.489 OA
BRANCH  15  19
ATOM     16  C   LIG    1       22.521 -16.013   4.246  0.00  0.00    +0.030 A 
ATOM     17  C   LIG    1       21.587 -16.423   3.284  0.00  0.00    +0.027 A 
ATOM     18  C   LIG    1       21.086 -17.733   3.230  0.00  0.00    +0.047 A 
ATOM     19  C   LIG    1       21.490 -18.681   4.160  0.00  0.00    +0.121 A 
ATOM     20  C   LIG    1       22.370 -18.277   5.170  0.00  0.00    +0.047 A 
ATOM     21  C   LIG    1       22.878 -16.961   5.216  0.00  0.00    +0.027 A 
BRANCH  16  27
ATOM     22  C   LIG    1       27.531 -12.848   3.138  0.00  0.00    +0.109 C 
ATOM     23  C   LIG    1       26.730 -12.970   4.447  0.00  0.00    +0.213 C 
ATOM     24  N   LIG    1       25.362 -12.886   4.296  0.00  0.00    -0.299 N 
ATOM     25  C   LIG    1       24.600 -13.087   3.036  0.00  0.00    +0.126 C 
ATOM     26  C   LIG    1       23.900 -14.467   3.016  0.00  0.00    +0.124 C 
ATOM     27  N   LIG    1       23.106 -14.718   4.250  0.00  0.00    -0.327 N 
ATOM     28  C   LIG    1       23.825 -14.380   5.517  0.00  0.00    +0.124 C 
ATOM     29  C   LIG    1       24.496 -12.996   5.464  0.00  0.00    +0.126 C 
ATOM     30  O   LIG    1       27.300 -13.108   5.526  0.00  0.00    -0.276 OA
ENDBRANCH  16  27
ENDBRANCH  15  19
ENDBRANCH  14  15
ENDBRANCH   1  14
BRANCH   3  31
ATOM     31  C   LIG    1       26.018 -21.572   5.824  0.00  0.00    +0.193 C 
BRANCH  31  32
ATOM     32  N   LIG    1       27.248 -20.940   6.258  0.00  0.00    -0.331 N 
ATOM     33  C   LIG    1       28.524 -21.367   6.028  0.00  0.00    +0.199 A 
ATOM     34  N   LIG    1       29.411 -20.538   6.526  0.00  0.00    -0.244 NA
ATOM     35  C   LIG    1       28.685 -19.509   7.059  0.00  0.00    +0.130 A 
ATOM     36  C   LIG    1       27.339 -19.724   6.885  0.00  0.00    +0.107 A 
ENDBRANCH  31  32
ENDBRANCH   3  31
TORSDOF 7
ENDMDL
MODEL 2
REMARK VINA RESULT:      10.0      2.408      5.110
REMARK  Name = *****
REMARK                            x       y       z     vdW  Elec       q    Type
REMARK                         _______ _______ _______ _____ _____    ______ ____
ROOT
ATOM      1  C   LIG    1       26.540 -21.237   5.720  0.00  0.00    +0.185 C 
ATOM      2  O   LIG    1       25.470 -20.972   4.813  0.00  0.00    -0.334 OA
ATOM      3  C   LIG    1       24.366 -20.458   5.579  0.00  0.00    +0.217 C 
ATOM      4  O   LIG    1       24.852 -20.216   6.928  0.00  0.00    -0.341 OA
ATOM      5  C   LIG    1       26.281 -20.267   6.841  0.00  0.00    +0.198 C 
ENDROOT
BRANCH   3   6
ATOM      6  C   LIG    1       23.812 -19.118   5.058  0.00  0.00    +0.031 A 
ATOM      7  C   LIG    1       24.140 -18.531   3.818  0.00  0.00    +0.051 A 
ATOM      8 CL   LIG    1       25.109 -19.282   2.596  0.00  0.00    -0.083 Cl
ATOM      9  C   LIG    1       23.679 -17.250   3.476  0.00  0.00    +0.040 A 
ATOM     10  C   LIG    1       22.850 -16.542   4.335  0.00  0.00    +0.042 A 
ATOM     11 CL   LIG    1       22.320 -14.965   3.903  0.00  0.00    -0.084 Cl
ATOM     12  C   LIG    1       22.462 -17.107   5.541  0.00  0.00    +0.020 A 
ATOM     13  C   LIG    1       22.946 -18.372   5.903  0.00  0.00    +0.012 A 
ENDBRANCH   3   6
BRANCH   1  14
ATOM     14  C   LIG    1       27.909 -21.044   5.061  0.00  0.00    +0.263 C 
BRANCH  14  15
ATOM     15  O   LIG    1       28.633 -20.014   5.749  0.00  0.00    -0.489 OA
BRANCH  15  19
ATOM     16  C   LIG    1       27.949 -16.103   4.294  0.00  0.00    +0.030 A 
ATOM     17  C   LIG    1       28.893 -16.336   5.305  0.00  0.00    +0.027 A 
ATOM     18  C   LIG    1       29.150 -17.617   5.816  0.00  0.00    +0.047 A 
ATOM     19  C   LIG    1       28.482 -18.724   5.313  0.00  0.00    +0.121 A 
ATOM     20  C   LIG    1       27.584 -18.526   4.258  0.00  0.00    +0.047 A 
ATOM     21  C   LIG    1       27.322 -17.235   3.752  0.00  0.00    +0.027 A 
BRANCH  16  27
ATOM     22  C   LIG    1       23.986 -11.581   4.736  0.00  0.00    +0.109 C 
ATOM     23  C   LIG    1       24.407 -12.385   3.492  0.00  0.00    +0.213 C 
ATOM     24  N   LIG    1       25.764 -12.606   3.378  0.00  0.00    -0.299 N 
ATOM     25  C   LIG    1       26.767 -12.509   4.471  0.00  0.00    +0.126 C 
ATOM     26  C   LIG    1       27.203 -13.912   4.959  0.00  0.00    +0.124 C 
ATOM     27  N   LIG    1       27.613 -14.801   3.837  0.00  0.00    -0.327 N 
ATOM     28  C   LIG    1       26.672 -14.788   2.675  0.00  0.00    +0.124 C 
ATOM     29  C   LIG    1       26.282 -13.363   2.246  0.00  0.00    +0.126 C 
ATOM     30  O   LIG    1       23.574 -12.765   2.674  0.00  0.00    -0.276 OA
ENDBRANCH  16  27
ENDBRANCH  15  19
ENDBRANCH  14  15
ENDBRANCH   1  14
BRANCH   3  31
ATOM     31  C   LIG    1       23.289 -21.572   5.701  0.00  0.00    +0.193 C 
BRANCH  31  32
ATOM     32  N   LIG    1       22.102 -21.438   4.880  0.00  0.00    -0.331 N 
ATOM     33  C   LIG    1       22.032 -21.457   3.517  0.00  0.00    +0.199 A 
ATOM     34  N   LIG    1       20.795 -21.353   3.092  0.00  0.00    -0.244 NA
ATOM     35  C   LIG    1       20.027 -21.312   4.222  0.00  0.00    +0.130 A 
ATOM     36  C   LIG    1       20.814 -21.386   5.348  0.00  0.00    +0.107 A 
ENDBRANCH  31  32
ENDBRANCH   3  31
TORSDOF 7
ENDMDL
MODEL 3
REMARK VINA RESULT:      10.1      2.135      7.990
REMARK  Name = *****
REMARK                            x       y       z     vdW  Elec       q    Type
REMARK                         _______ _______ _______ _____ _____    ______ ____
ROOT
ATOM      1  C   LIG    1       28.021 -13.245   4.682  0.00  0.00    +0.185 C 
ATOM      2  O   LIG    1       26.776 -13.365   5.368  0.00  0.00    -0.334 OA
ATOM      3  C   LIG    1       25.735 -12.971   4.457  0.00  0.00    +0.217 C 
ATOM      4  O   LIG    1       26.346 -12.814   3.146  0.00  0.00    -0.341 OA
ATOM      5  C   LIG    1       27.633 -13.436   3.240  0.00  0.00    +0.198 C 
ENDROOT
BRANCH   3   6
ATOM      6  C   LIG    1       24.610 -14.012   4.302  0.00  0.00    +0.031 A 
ATOM      7  C   LIG    1       23.699 -14.069   3.226  0.00  0.00    +0.051 A 
ATOM      8 CL   LIG    1       23.773 -13.070   1.816  0.00  0.00    -0.083 Cl
ATOM      9  C   LIG    1       22.631 -14.980   3.227  0.00  0.00    +0.040 A 
ATOM     10  C   LIG    1       22.468 -15.881   4.270  0.00  0.00    +0.042 A 
ATOM     11 CL   LIG    1       21.137 -16.969   4.258  0.00  0.00    -0.084 Cl
ATOM     12  C   LIG    1       23.374 -15.892   5.320  0.00  0.00    +0.020 A 
ATOM     13  C   LIG    1       24.423 -14.963   5.342  0.00  0.00    +0.012 A 
ENDBRANCH   3   6
BRANCH   1  14
ATOM     14  C   LIG    1       29.045 -14.274   5.171  0.00  0.00    +0.263 C 
BRANCH  14  15
ATOM     15  O   LIG    1       29.250 -15.267   4.157  0.00  0.00    -0.489 OA
BRANCH  15  19
ATOM     16  C   LIG    1       27.066 -18.868   4.539  0.00  0.00    +0.030 A 
ATOM     17  C   LIG    1       26.548 -17.791   3.804  0.00  0.00    +0.027 A 
ATOM     18  C   LIG    1       27.240 -16.580   3.653  0.00  0.00    +0.047 A 
ATOM     19  C   LIG    1       28.495 -16.410   4.218  0.00  0.00    +0.121 A 
ATOM     20  C   LIG    1       29.062 -17.493   4.899  0.00  0.00    +0.047 A 
ATOM     21  C   LIG    1       28.359 -18.707   5.056  0.00  0.00    +0.027 A 
BRANCH  16  27
ATOM     22  C   LIG    1       21.566 -21.321   4.810  0.00  0.00    +0.109 C 
ATOM     23  C   LIG    1       22.651 -21.249   5.900  0.00  0.00    +0.213 C 
ATOM     24  N   LIG    1       23.927 -21.540   5.464  0.00  0.00    -0.299 N 
ATOM     25  C   LIG    1       24.404 -21.519   4.056  0.00  0.00    +0.126 C 
ATOM     26  C   LIG    1       25.255 -20.258   3.770  0.00  0.00    +0.124 C 
ATOM     27  N   LIG    1       26.334 -20.062   4.778  0.00  0.00    -0.327 N 
ATOM     28  C   LIG    1       25.881 -20.224   6.194  0.00  0.00    +0.124 C 
ATOM     29  C   LIG    1       25.041 -21.496   6.403  0.00  0.00    +0.126 C 
ATOM     30  O   LIG    1       22.363 -20.973   7.061  0.00  0.00    -0.276 OA
ENDBRANCH  16  27
ENDBRANCH  15  19
ENDBRANCH  14  15
ENDBRANCH   1  14
BRANCH   3  31
ATOM     31  C   LIG    1       25.227 -11.561   4.867  0.00  0.00    +0.193 C 
BRANCH  31  32
ATOM     32  N   LIG    1       23.937 -11.487   5.524  0.00  0.00    -0.331 N 
ATOM     33  C   LIG    1       22.706 -11.489   4.934  0.00  0.00    +0.199 A 
ATOM     34  N   LIG    1       21.740 -11.453   5.822  0.00  0.00    -0.244 NA
ATOM     35  C   LIG    1       22.367 -11.476   7.037  0.00  0.00    +0.130 A 
ATOM     36  C   LIG    1       23.732 -11.520   6.880  0.00  0.00    +0.107 A 
ENDBRANCH  31  32
ENDBRANCH   3  31
TORSDOF 7
ENDMDL
