MODEL 1
REMARK VINA RESULT:       0.6      0.000      0.000
REMARK  Name = *****
REMARK                            x       y       z     vdW  Elec       q    Type
REMARK                         _______ _______ _______ _____ _____    ______ ____
ROOT
ATOM      1  C   LIG    1       25.631 -19.173   4.474  0.00  0.00    +0.080 C 
ENDROOT
BRANCH   1   2
ATOM      2  C   LIG    1       25.960 -17.704   4.011  0.00  0.00    -0.030 A 
ATOM      3  C   LIG    1       24.953 -16.795   3.635  0.00  0.00    +0.005 A 
ATOM      4  C   LIG    1       25.253 -15.484   3.251  0.00  0.00    +0.000 A 
ATOM      5  C   LIG    1       26.574 -15.027   3.260  0.00  0.00    +0.000 A 
ATOM      6  C   LIG    1       27.587 -15.885   3.664  0.00  0.00    +0.000 A 
ATOM      7  C   LIG    1       27.283 -17.198   4.040  0.00  0.00    +0.005 A 
ENDBRANCH   1   2
BRANCH   1   8
ATOM      8  C   LIG    1       26.850 -19.746   5.309  0.00  0.00    -0.030 A 
ATOM      9  C   LIG    1       26.674 -20.750   6.281  0.00  0.00    +0.005 A 
ATOM     10  C   LIG    1       27.744 -21.208   7.061  0.00  0.00    +0.000 A 
ATOM     11  C   LIG    1       29.014 -20.666   6.908  0.00  0.00    +0.000 A 
ATOM     12  C   LIG    1       29.220 -19.665   5.976  0.00  0.00    +0.000 A 
ATOM     13  C   LIG    1       28.157 -19.212   5.188  0.00  0.00    +0.005 A 
ENDBRANCH   1   8
BRANCH   1  14
ATOM     14  C   LIG    1       25.398 -20.119   3.226  0.00  0.00    +0.148 C 
ATOM     15  O   LIG    1       25.755 -19.797   2.085  0.00  0.00    -0.296 OA
BRANCH  14  17
ATOM     16  C   LIG    1       23.511 -21.544   2.362  0.00  0.00    +0.012 C 
ATOM     17  C   LIG    1       24.637 -21.430   3.391  0.00  0.00    +0.072 C 
ENDBRANCH  14  17
ENDBRANCH   1  14
BRANCH   1  18
ATOM     18  C   LIG    1       24.350 -19.198   5.412  0.00  0.00    +0.042 C 
BRANCH  18  19
ATOM     19  C   LIG    1       23.349 -20.396   5.499  0.00  0.00    +0.054 C 
ATOM     20  C   LIG    1       23.329 -20.955   6.930  0.00  0.00    +0.024 C 
BRANCH  19  21
ATOM     21  N   LIG    1       21.966 -19.923   5.128  0.00  0.00    -0.306 NA
ATOM     22  C   LIG    1       21.161 -20.960   4.463  0.00  0.00    +0.105 C 
ATOM     23  C   LIG    1       21.964 -18.736   4.262  0.00  0.00    +0.105 C 
ENDBRANCH  19  21
ENDBRANCH  18  19
ENDBRANCH   1  18
TORSDOF 7
ENDMDL
MODEL 2
REMARK VINA RESULT:       2.3      1.714      5.286
REMARK  Name = *****
REMARK                            x       y       z     vdW  Elec       q    Type
REMARK                         _______ _______ _______ _____ _____    ______ ____
ROOT
ATOM      1  C   LIG    1       25.389 -18.833   4.152  0.00  0.00    +0.080 C 
ENDROOT
BRANCH   1   2
ATOM      2  C   LIG    1       26.285 -19.682   5.131  0.00  0.00    -0.030 A 
ATOM      3  C   LIG    1       27.677 -19.494   5.224  0.00  0.00    +0.005 A 
ATOM      4  C   LIG    1       28.460 -20.235   6.114  0.00  0.00    +0.000 A 
ATOM      5  C   LIG    1       27.870 -21.171   6.968  0.00  0.00    +0.000 A 
ATOM      6  C   LIG    1       26.496 -21.353   6.931  0.00  0.00    +0.000 A 
ATOM      7  C   LIG    1       25.717 -20.615   6.033  0.00  0.00    +0.005 A 
ENDBRANCH   1   2
BRANCH   1   8
ATOM      8  C   LIG    1       23.861 -19.130   4.449  0.00  0.00    -0.030 A 
ATOM      9  C   LIG    1       23.454 -20.287   5.141  0.00  0.00    +0.005 A 
ATOM     10  C   LIG    1       22.099 -20.578   5.346  0.00  0.00    +0.000 A 
ATOM     11  C   LIG    1       21.112 -19.735   4.849  0.00  0.00    +0.000 A 
ATOM     12  C   LIG    1       21.475 -18.600   4.149  0.00  0.00    +0.000 A 
ATOM     13  C   LIG    1       22.826 -18.299   3.951  0.00  0.00    +0.005 A 
ENDBRANCH   1   8
BRANCH   1  14
ATOM     14  C   LIG    1       25.684 -19.211   2.644  0.00  0.00    +0.148 C 
ATOM     15  O   LIG    1       26.616 -18.697   2.010  0.00  0.00    -0.296 OA
BRANCH  14  17
ATOM     16  C   LIG    1       24.452 -21.405   2.745  0.00  0.00    +0.012 C 
ATOM     17  C   LIG    1       24.759 -20.168   1.899  0.00  0.00    +0.072 C 
ENDBRANCH  14  17
ENDBRANCH   1  14
BRANCH   1  18
ATOM     18  C   LIG    1       25.629 -17.278   4.371  0.00  0.00    +0.042 C 
BRANCH  18  19
ATOM     19  C   LIG    1       25.282 -16.179   3.314  0.00  0.00    +0.054 C 
ATOM     20  C   LIG    1       24.282 -15.178   3.913  0.00  0.00    +0.024 C 
BRANCH  19  21
ATOM     21  N   LIG    1       26.541 -15.450   2.916  0.00  0.00    -0.306 NA
ATOM     22  C   LIG    1       27.521 -15.355   4.009  0.00  0.00    +0.105 C 
ATOM     23  C   LIG    1       26.299 -14.091   2.416  0.00  0.00    +0.105 C 
ENDBRANCH  19  21
ENDBRANCH  18  19
ENDBRANCH   1  18
TORSDOF 7
ENDMDL
MODEL 3
REMARK VINA RESULT:       2.9      3.540      6.600
REMARK  Name = *****
REMARK                            x       y       z     vdW  Elec       q    Type
REMARK                         _______ _______ _______ _____ _____    ______ ____
ROOT
ATOM      1  C   LIG    1       25.596 -14.754   3.679  0.00  0.00    +0.080 C 
ENDROOT
BRANCH   1   2
ATOM      2  C   LIG    1       25.938 -16.292   3.699  0.00  0.00    -0.030 A 
ATOM      3  C   LIG    1       27.211 -16.771   4.063  0.00  0.00    +0.005 A 
ATOM      4  C   LIG    1       27.497 -18.139   4.102  0.00  0.00    +0.000 A 
ATOM      5  C   LIG    1       26.506 -19.080   3.808  0.00  0.00    +0.000 A 
ATOM      6  C   LIG    1       25.230 -18.643   3.485  0.00  0.00    +0.000 A 
ATOM      7  C   LIG    1       24.950 -17.273   3.439  0.00  0.00    +0.005 A 
ENDBRANCH   1   2
BRANCH   1   8
ATOM      8  C   LIG    1       26.843 -13.932   4.207  0.00  0.00    -0.030 A 
ATOM      9  C   LIG    1       26.875 -13.387   5.505  0.00  0.00    +0.005 A 
ATOM     10  C   LIG    1       27.952 -12.607   5.945  0.00  0.00    +0.000 A 
ATOM     11  C   LIG    1       29.019 -12.333   5.098  0.00  0.00    +0.000 A 
ATOM     12  C   LIG    1       29.013 -12.837   3.810  0.00  0.00    +0.000 A 
ATOM     13  C   LIG    1       27.945 -13.625   3.370  0.00  0.00    +0.005 A 
ENDBRANCH   1   8
BRANCH   1  14
ATOM     14  C   LIG    1       24.361 -14.439   4.619  0.00  0.00    +0.148 C 
ATOM     15  O   LIG    1       24.356 -13.469   5.390  0.00  0.00    -0.296 OA
BRANCH  14  17
ATOM     16  C   LIG    1       22.384 -15.227   5.963  0.00  0.00    +0.012 C 
ATOM     17  C   LIG    1       23.169 -15.388   4.660  0.00  0.00    +0.072 C 
ENDBRANCH  14  17
ENDBRANCH   1  14
BRANCH   1  18
ATOM     18  C   LIG    1       25.283 -14.263   2.202  0.00  0.00    +0.042 C 
BRANCH  18  19
ATOM     19  C   LIG    1       24.052 -13.382   1.812  0.00  0.00    +0.054 C 
ATOM     20  C   LIG    1       22.829 -13.799   2.643  0.00  0.00    +0.024 C 
BRANCH  19  21
ATOM     21  N   LIG    1       24.368 -11.932   2.080  0.00  0.00    -0.306 NA
ATOM     22  C   LIG    1       25.809 -11.639   2.038  0.00  0.00    +0.105 C 
ATOM     23  C   LIG    1       23.854 -11.447   3.368  0.00  0.00    +0.105 C 
ENDBRANCH  19  21
ENDBRANCH  18  19
ENDBRANCH   1  18
TORSDOF 7
ENDMDL
MODEL 4
REMARK VINA RESULT:       3.2      1.845      5.583
REMARK  Name = *****
REMARK                            x       y       z     vdW  Elec       q    Type
REMARK                         _______ _______ _______ _____ _____    ______ ____
ROOT
ATOM      1  C   LIG    1       25.219 -18.929   4.125  0.00  0.00    +0.080 C 
ENDROOT
BRANCH   1   2
ATOM      2  C   LIG    1       24.322 -19.834   5.051  0.00  0.00    -0.030 A 
ATOM      3  C   LIG    1       24.854 -20.555   6.137  0.00  0.00    +0.005 A 
ATOM      4  C   LIG    1       24.044 -21.334   6.969  0.00  0.00    +0.000 A 
ATOM      5  C   LIG    1       22.664 -21.396   6.760  0.00  0.00    +0.000 A 
ATOM      6  C   LIG    1       22.101 -20.666   5.723  0.00  0.00    +0.000 A 
ATOM      7  C   LIG    1       22.915 -19.894   4.888  0.00  0.00    +0.005 A 
ENDBRANCH   1   2
BRANCH   1   8
ATOM      8  C   LIG    1       24.607 -17.470   4.065  0.00  0.00    -0.030 A 
ATOM      9  C   LIG    1       25.383 -16.357   3.686  0.00  0.00    +0.005 A 
ATOM     10  C   LIG    1       24.855 -15.059   3.695  0.00  0.00    +0.000 A 
ATOM     11  C   LIG    1       23.546 -14.832   4.101  0.00  0.00    +0.000 A 
ATOM     12  C   LIG    1       22.760 -15.899   4.498  0.00  0.00    +0.000 A 
ATOM     13  C   LIG    1       23.280 -17.197   4.480  0.00  0.00    +0.005 A 
ENDBRANCH   1   8
BRANCH   1  14
ATOM     14  C   LIG    1       25.271 -19.506   2.652  0.00  0.00    +0.148 C 
ATOM     15  O   LIG    1       26.269 -19.368   1.930  0.00  0.00    -0.296 OA
BRANCH  14  17
ATOM     16  C   LIG    1       23.831 -21.571   2.644  0.00  0.00    +0.012 C 
ATOM     17  C   LIG    1       24.043 -20.178   2.049  0.00  0.00    +0.072 C 
ENDBRANCH  14  17
ENDBRANCH   1  14
BRANCH   1  18
ATOM     18  C   LIG    1       26.692 -18.812   4.706  0.00  0.00    +0.042 C 
BRANCH  18  19
ATOM     19  C   LIG    1       27.247 -19.688   5.877  0.00  0.00    +0.054 C 
ATOM     20  C   LIG    1       27.458 -21.130   5.394  0.00  0.00    +0.024 C 
BRANCH  19  21
ATOM     21  N   LIG    1       28.563 -19.121   6.349  0.00  0.00    -0.306 NA
ATOM     22  C   LIG    1       29.287 -18.394   5.294  0.00  0.00    +0.105 C 
ATOM     23  C   LIG    1       29.475 -20.132   6.898  0.00  0.00    +0.105 C 
ENDBRANCH  19  21
ENDBRANCH  18  19
ENDBRANCH   1  18
TORSDOF 7
ENDMDL
MODEL 5
REMARK VINA RESULT:       3.5      3.612      6.214
REMARK  Name = *****
REMARK                            x       y       z     vdW  Elec       q    Type
REMARK                         _______ _______ _______ _____ _____    ______ ____
ROOT
ATOM      1  C   LIG    1       24.830 -14.416   4.029  0.00  0.00    +0.080 C 
ENDROOT
BRANCH   1   2
ATOM      2  C   LIG    1       26.318 -13.898   4.012  0.00  0.00    -0.030 A 
ATOM      3  C   LIG    1       27.103 -13.914   2.843  0.00  0.00    +0.005 A 
ATOM      4  C   LIG    1       28.413 -13.428   2.832  0.00  0.00    +0.000 A 
ATOM      5  C   LIG    1       28.976 -12.879   3.988  0.00  0.00    +0.000 A 
ATOM      6  C   LIG    1       28.217 -12.811   5.146  0.00  0.00    +0.000 A 
ATOM      7  C   LIG    1       26.909 -13.305   5.155  0.00  0.00    +0.005 A 
ENDBRANCH   1   2
BRANCH   1   8
ATOM      8  C   LIG    1       24.822 -15.995   3.906  0.00  0.00    -0.030 A 
ATOM      9  C   LIG    1       25.937 -16.704   3.419  0.00  0.00    +0.005 A 
ATOM     10  C   LIG    1       25.904 -18.095   3.251  0.00  0.00    +0.000 A 
ATOM     11  C   LIG    1       24.753 -18.815   3.547  0.00  0.00    +0.000 A 
ATOM     12  C   LIG    1       23.632 -18.149   4.011  0.00  0.00    +0.000 A 
ATOM     13  C   LIG    1       23.665 -16.762   4.189  0.00  0.00    +0.005 A 
ENDBRANCH   1   8
BRANCH   1  14
ATOM     14  C   LIG    1       24.011 -13.819   2.813  0.00  0.00    +0.148 C 
ATOM     15  O   LIG    1       22.840 -14.153   2.585  0.00  0.00    -0.296 OA
BRANCH  14  17
ATOM     16  C   LIG    1       24.124 -11.454   1.958  0.00  0.00    +0.012 C 
ATOM     17  C   LIG    1       24.685 -12.871   1.827  0.00  0.00    +0.072 C 
ENDBRANCH  14  17
ENDBRANCH   1  14
BRANCH   1  18
ATOM     18  C   LIG    1       24.115 -14.034   5.395  0.00  0.00    +0.042 C 
BRANCH  18  19
ATOM     19  C   LIG    1       22.680 -13.419   5.492  0.00  0.00    +0.054 C 
ATOM     20  C   LIG    1       21.927 -14.039   6.679  0.00  0.00    +0.024 C 
BRANCH  19  21
ATOM     21  N   LIG    1       22.787 -11.928   5.692  0.00  0.00    -0.306 NA
ATOM     22  C   LIG    1       24.178 -11.449   5.725  0.00  0.00    +0.105 C 
ATOM     23  C   LIG    1       22.124 -11.450   6.912  0.00  0.00    +0.105 C 
ENDBRANCH  19  21
ENDBRANCH  18  19
ENDBRANCH   1  18
TORSDOF 7
ENDMDL
MODEL 6
REMARK VINA RESULT:       3.5      3.644      7.327
REMARK  Name = *****
REMARK                            x       y       z     vdW  Elec       q    Type
REMARK                         _______ _______ _______ _____ _____    ______ ____
ROOT
ATOM      1  C   LIG    1       25.385 -14.810   3.889  0.00  0.00    +0.080 C 
ENDROOT
BRANCH   1   2
ATOM      2  C   LIG    1       25.039 -16.344   3.796  0.00  0.00    -0.030 A 
ATOM      3  C   LIG    1       23.727 -16.826   3.962  0.00  0.00    +0.005 A 
ATOM      4  C   LIG    1       23.426 -18.187   3.852  0.00  0.00    +0.000 A 
ATOM      5  C   LIG    1       24.426 -19.112   3.541  0.00  0.00    +0.000 A 
ATOM      6  C   LIG    1       25.722 -18.666   3.332  0.00  0.00    +0.000 A 
ATOM      7  C   LIG    1       26.021 -17.305   3.450  0.00  0.00    +0.005 A 
ENDBRANCH   1   2
BRANCH   1   8
ATOM      8  C   LIG    1       24.224 -14.055   4.657  0.00  0.00    -0.030 A 
ATOM      9  C   LIG    1       24.239 -12.657   4.831  0.00  0.00    +0.005 A 
ATOM     10  C   LIG    1       23.243 -12.000   5.566  0.00  0.00    +0.000 A 
ATOM     11  C   LIG    1       22.215 -12.720   6.163  0.00  0.00    +0.000 A 
ATOM     12  C   LIG    1       22.178 -14.096   6.028  0.00  0.00    +0.000 A 
ATOM     13  C   LIG    1       23.165 -14.754   5.287  0.00  0.00    +0.005 A 
ENDBRANCH   1   8
BRANCH   1  14
ATOM     14  C   LIG    1       25.520 -14.174   2.445  0.00  0.00    +0.148 C 
ATOM     15  O   LIG    1       26.587 -14.199   1.816  0.00  0.00    -0.296 OA
BRANCH  14  17
ATOM     16  C   LIG    1       24.596 -11.918   1.815  0.00  0.00    +0.012 C 
ATOM     17  C   LIG    1       24.344 -13.427   1.825  0.00  0.00    +0.072 C 
ENDBRANCH  14  17
ENDBRANCH   1  14
BRANCH   1  18
ATOM     18  C   LIG    1       26.730 -14.582   4.702  0.00  0.00    +0.042 C 
BRANCH  18  19
ATOM     19  C   LIG    1       27.160 -13.211   5.320  0.00  0.00    +0.054 C 
ATOM     20  C   LIG    1       27.704 -13.428   6.740  0.00  0.00    +0.024 C 
BRANCH  19  21
ATOM     21  N   LIG    1       28.234 -12.589   4.463  0.00  0.00    -0.306 NA
ATOM     22  C   LIG    1       28.963 -13.574   3.648  0.00  0.00    +0.105 C 
ATOM     23  C   LIG    1       29.227 -11.824   5.229  0.00  0.00    +0.105 C 
ENDBRANCH  19  21
ENDBRANCH  18  19
ENDBRANCH   1  18
TORSDOF 7
ENDMDL
MODEL 7
REMARK VINA RESULT:       3.5      1.579      4.770
REMARK  Name = *****
REMARK                            x       y       z     vdW  Elec       q    Type
REMARK                         _______ _______ _______ _____ _____    ______ ____
ROOT
ATOM      1  C   LIG    1       25.158 -19.025   4.543  0.00  0.00    +0.080 C 
ENDROOT
BRANCH   1   2
ATOM      2  C   LIG    1       26.402 -19.588   5.328  0.00  0.00    -0.030 A 
ATOM      3  C   LIG    1       26.293 -20.661   6.234  0.00  0.00    +0.005 A 
ATOM      4  C   LIG    1       27.407 -21.171   6.906  0.00  0.00    +0.000 A 
ATOM      5  C   LIG    1       28.680 -20.643   6.671  0.00  0.00    +0.000 A 
ATOM      6  C   LIG    1       28.830 -19.612   5.755  0.00  0.00    +0.000 A 
ATOM      7  C   LIG    1       27.710 -19.100   5.091  0.00  0.00    +0.005 A 
ENDBRANCH   1   2
BRANCH   1   8
ATOM      8  C   LIG    1       23.861 -19.828   4.968  0.00  0.00    -0.030 A 
ATOM      9  C   LIG    1       23.899 -20.819   5.969  0.00  0.00    +0.005 A 
ATOM     10  C   LIG    1       22.764 -21.572   6.297  0.00  0.00    +0.000 A 
ATOM     11  C   LIG    1       21.565 -21.371   5.625  0.00  0.00    +0.000 A 
ATOM     12  C   LIG    1       21.495 -20.420   4.624  0.00  0.00    +0.000 A 
ATOM     13  C   LIG    1       22.623 -19.659   4.300  0.00  0.00    +0.005 A 
ENDBRANCH   1   8
BRANCH   1  14
ATOM     14  C   LIG    1       25.354 -19.190   2.981  0.00  0.00    +0.148 C 
ATOM     15  O   LIG    1       26.092 -18.437   2.330  0.00  0.00    -0.296 OA
BRANCH  14  17
ATOM     16  C   LIG    1       24.533 -21.570   2.977  0.00  0.00    +0.012 C 
ATOM     17  C   LIG    1       24.559 -20.243   2.217  0.00  0.00    +0.072 C 
ENDBRANCH  14  17
ENDBRANCH   1  14
BRANCH   1  18
ATOM     18  C   LIG    1       24.914 -17.495   4.893  0.00  0.00    +0.042 C 
BRANCH  18  19
ATOM     19  C   LIG    1       24.174 -16.487   3.954  0.00  0.00    +0.054 C 
ATOM     20  C   LIG    1       22.714 -16.330   4.406  0.00  0.00    +0.024 C 
BRANCH  19  21
ATOM     21  N   LIG    1       24.862 -15.147   4.014  0.00  0.00    -0.306 NA
ATOM     22  C   LIG    1       23.990 -14.032   3.610  0.00  0.00    +0.105 C 
ATOM     23  C   LIG    1       26.081 -15.075   3.197  0.00  0.00    +0.105 C 
ENDBRANCH  19  21
ENDBRANCH  18  19
ENDBRANCH   1  18
TORSDOF 7
ENDMDL
