MODEL 1
REMARK VINA RESULT:      -3.5      0.000      0.000
REMARK  Name = *****
REMARK                            x       y       z     vdW  Elec       q    Type
REMARK                         _______ _______ _______ _____ _____    ______ ____
ROOT
ATOM      1  C   LIG    1       25.358 -16.230   3.128  0.00  0.00    +0.170 C 
ENDROOT
BRANCH   1   7
ATOM      2 CL   LIG    1       29.475 -11.846   3.870  0.00  0.00    -0.084 Cl
ATOM      3  C   LIG    1       28.352 -13.123   3.615  0.00  0.00    +0.042 A 
ATOM      4  C   LIG    1       28.585 -14.380   4.171  0.00  0.00    +0.040 A 
ATOM      5  C   LIG    1       27.639 -15.400   4.014  0.00  0.00    +0.048 A 
ATOM      6 CL   LIG    1       27.963 -16.912   4.780  0.00  0.00    -0.083 Cl
ATOM      7  C   LIG    1       26.468 -15.183   3.267  0.00  0.00    +0.001 A 
ATOM      8  C   LIG    1       26.307 -13.928   2.642  0.00  0.00    +0.009 A 
ATOM      9  C   LIG    1       27.214 -12.892   2.855  0.00  0.00    +0.020 A 
ENDBRANCH   1   7
BRANCH   1  10
ATOM     10  C   LIG    1       24.122 -15.749   3.927  0.00  0.00    +0.159 C 
BRANCH  10  11
ATOM     11  N   LIG    1       24.011 -14.309   4.057  0.00  0.00    -0.334 N 
ATOM     12  C   LIG    1       23.606 -13.445   3.079  0.00  0.00    +0.199 A 
ATOM     13  N   LIG    1       23.556 -12.212   3.502  0.00  0.00    -0.244 NA
ATOM     14  C   LIG    1       23.917 -12.272   4.816  0.00  0.00    +0.130 A 
ATOM     15  C   LIG    1       24.157 -13.569   5.198  0.00  0.00    +0.107 A 
ENDBRANCH  10  11
ENDBRANCH   1  10
BRANCH   1  16
ATOM     16  O   LIG    1       25.807 -17.503   3.655  0.00  0.00    -0.365 OA
BRANCH  16  17
ATOM     17  C   LIG    1       25.024 -18.632   3.225  0.00  0.00    +0.199 C 
BRANCH  17  18
ATOM     18  C   LIG    1       24.539 -19.400   4.436  0.00  0.00    +0.015 A 
ATOM     19  C   LIG    1       23.175 -19.451   4.795  0.00  0.00    +0.048 A 
ATOM     20 CL   LIG    1       21.955 -18.537   3.974  0.00  0.00    -0.083 Cl
ATOM     21  C   LIG    1       22.734 -20.240   5.867  0.00  0.00    +0.020 A 
ATOM     22  C   LIG    1       23.641 -20.980   6.615  0.00  0.00    +0.003 A 
ATOM     23  C   LIG    1       24.997 -20.898   6.316  0.00  0.00    +0.020 A 
ATOM     24  C   LIG    1       25.443 -20.113   5.244  0.00  0.00    +0.048 A 
ATOM     25 CL   LIG    1       27.151 -20.038   4.983  0.00  0.00    -0.083 Cl
ENDBRANCH  17  18
ENDBRANCH  16  17
ENDBRANCH   1  16
TORSDOF 6
ENDMDL
MODEL 2
REMARK VINA RESULT:      -3.2      0.398      1.972
REMARK  Name = *****
REMARK                            x       y       z     vdW  Elec       q    Type
REMARK                         _______ _______ _______ _____ _____    ______ ____
ROOT
ATOM      1  C   LIG    1       25.325 -16.212   3.158  0.00  0.00    +0.170 C 
ENDROOT
BRANCH   1   7
ATOM      2 CL   LIG    1       29.475 -11.861   3.902  0.00  0.00    -0.084 Cl
ATOM      3  C   LIG    1       28.342 -13.128   3.645  0.00  0.00    +0.042 A 
ATOM      4  C   LIG    1       28.575 -14.392   4.183  0.00  0.00    +0.040 A 
ATOM      5  C   LIG    1       27.620 -15.405   4.026  0.00  0.00    +0.048 A 
ATOM      6 CL   LIG    1       27.945 -16.928   4.770  0.00  0.00    -0.083 Cl
ATOM      7  C   LIG    1       26.442 -15.173   3.296  0.00  0.00    +0.001 A 
ATOM      8  C   LIG    1       26.281 -13.909   2.687  0.00  0.00    +0.009 A 
ATOM      9  C   LIG    1       27.196 -12.881   2.901  0.00  0.00    +0.020 A 
ENDBRANCH   1   7
BRANCH   1  10
ATOM     10  C   LIG    1       24.105 -15.739   3.986  0.00  0.00    +0.159 C 
BRANCH  10  11
ATOM     11  N   LIG    1       23.923 -14.301   4.023  0.00  0.00    -0.334 N 
ATOM     12  C   LIG    1       24.098 -13.498   5.115  0.00  0.00    +0.199 A 
ATOM     13  N   LIG    1       23.912 -12.238   4.834  0.00  0.00    -0.244 NA
ATOM     14  C   LIG    1       23.630 -12.209   3.500  0.00  0.00    +0.130 A 
ATOM     15  C   LIG    1       23.678 -13.471   2.962  0.00  0.00    +0.107 A 
ENDBRANCH  10  11
ENDBRANCH   1  10
BRANCH   1  16
ATOM     16  O   LIG    1       25.776 -17.496   3.654  0.00  0.00    -0.365 OA
BRANCH  16  17
ATOM     17  C   LIG    1       24.970 -18.612   3.232  0.00  0.00    +0.199 C 
BRANCH  17  18
ATOM     18  C   LIG    1       24.554 -19.420   4.442  0.00  0.00    +0.015 A 
ATOM     19  C   LIG    1       25.491 -20.103   5.247  0.00  0.00    +0.048 A 
ATOM     20 CL   LIG    1       27.175 -20.192   4.853  0.00  0.00    -0.083 Cl
ATOM     21  C   LIG    1       25.097 -20.771   6.415  0.00  0.00    +0.020 A 
ATOM     22  C   LIG    1       23.761 -20.792   6.797  0.00  0.00    +0.003 A 
ATOM     23  C   LIG    1       22.812 -20.177   5.987  0.00  0.00    +0.020 A 
ATOM     24  C   LIG    1       23.201 -19.505   4.819  0.00  0.00    +0.048 A 
ATOM     25 CL   LIG    1       21.943 -18.815   3.855  0.00  0.00    -0.083 Cl
ENDBRANCH  17  18
ENDBRANCH  16  17
ENDBRANCH   1  16
TORSDOF 6
ENDMDL
MODEL 3
REMARK VINA RESULT:      -2.9      2.880      4.917
REMARK  Name = *****
REMARK                            x       y       z     vdW  Elec       q    Type
REMARK                         _______ _______ _______ _____ _____    ______ ____
ROOT
ATOM      1  C   LIG    1       24.603 -17.561   3.516  0.00  0.00    +0.170 C 
ENDROOT
BRANCH   1   7
ATOM      2 CL   LIG    1       24.305 -11.514   3.763  0.00  0.00    -0.084 Cl
ATOM      3  C   LIG    1       24.402 -13.231   3.764  0.00  0.00    +0.042 A 
ATOM      4  C   LIG    1       23.382 -13.988   4.335  0.00  0.00    +0.040 A 
ATOM      5  C   LIG    1       23.433 -15.386   4.277  0.00  0.00    +0.048 A 
ATOM      6 CL   LIG    1       22.107 -16.261   4.951  0.00  0.00    -0.083 Cl
ATOM      7  C   LIG    1       24.526 -16.040   3.683  0.00  0.00    +0.001 A 
ATOM      8  C   LIG    1       25.586 -15.244   3.196  0.00  0.00    +0.009 A 
ATOM      9  C   LIG    1       25.503 -13.853   3.190  0.00  0.00    +0.020 A 
ENDBRANCH   1   7
BRANCH   1  10
ATOM     10  C   LIG    1       23.164 -18.133   3.539  0.00  0.00    +0.159 C 
BRANCH  10  11
ATOM     11  N   LIG    1       23.018 -19.368   4.284  0.00  0.00    -0.334 N 
ATOM     12  C   LIG    1       23.317 -20.621   3.826  0.00  0.00    +0.199 A 
ATOM     13  N   LIG    1       23.133 -21.535   4.738  0.00  0.00    -0.244 NA
ATOM     14  C   LIG    1       22.722 -20.854   5.846  0.00  0.00    +0.130 A 
ATOM     15  C   LIG    1       22.690 -19.502   5.605  0.00  0.00    +0.107 A 
ENDBRANCH  10  11
ENDBRANCH   1  10
BRANCH   1  16
ATOM     16  O   LIG    1       25.369 -18.141   4.599  0.00  0.00    -0.365 OA
BRANCH  16  17
ATOM     17  C   LIG    1       26.248 -19.209   4.198  0.00  0.00    +0.199 C 
BRANCH  17  18
ATOM     18  C   LIG    1       27.336 -19.384   5.236  0.00  0.00    +0.015 A 
ATOM     19  C   LIG    1       27.328 -20.450   6.160  0.00  0.00    +0.048 A 
ATOM     20 CL   LIG    1       26.016 -21.572   6.285  0.00  0.00    -0.083 Cl
ATOM     21  C   LIG    1       28.391 -20.646   7.054  0.00  0.00    +0.020 A 
ATOM     22  C   LIG    1       29.474 -19.776   7.061  0.00  0.00    +0.003 A 
ATOM     23  C   LIG    1       29.475 -18.684   6.199  0.00  0.00    +0.020 A 
ATOM     24  C   LIG    1       28.416 -18.484   5.301  0.00  0.00    +0.048 A 
ATOM     25 CL   LIG    1       28.487 -17.072   4.307  0.00  0.00    -0.083 Cl
ENDBRANCH  17  18
ENDBRANCH  16  17
ENDBRANCH   1  16
TORSDOF 6
ENDMDL
MODEL 4
REMARK VINA RESULT:      -2.4      2.812      4.506
REMARK  Name = *****
REMARK                            x       y       z     vdW  Elec       q    Type
REMARK                         _______ _______ _______ _____ _____    ______ ____
ROOT
ATOM      1  C   LIG    1       26.538 -16.839   4.284  0.00  0.00    +0.170 C 
ENDROOT
BRANCH   1   7
ATOM      2 CL   LIG    1       24.870 -11.537   1.870  0.00  0.00    -0.084 Cl
ATOM      3  C   LIG    1       25.332 -13.014   2.620  0.00  0.00    +0.042 A 
ATOM      4  C   LIG    1       24.370 -13.823   3.221  0.00  0.00    +0.040 A 
ATOM      5  C   LIG    1       24.740 -15.055   3.775  0.00  0.00    +0.048 A 
ATOM      6 CL   LIG    1       23.488 -16.034   4.449  0.00  0.00    -0.083 Cl
ATOM      7  C   LIG    1       26.083 -15.470   3.768  0.00  0.00    +0.001 A 
ATOM      8  C   LIG    1       27.044 -14.585   3.234  0.00  0.00    +0.009 A 
ATOM      9  C   LIG    1       26.668 -13.392   2.620  0.00  0.00    +0.020 A 
ENDBRANCH   1   7
BRANCH   1  10
ATOM     10  C   LIG    1       28.085 -16.896   4.234  0.00  0.00    +0.159 C 
BRANCH  10  11
ATOM     11  N   LIG    1       28.683 -17.845   5.153  0.00  0.00    -0.334 N 
ATOM     12  C   LIG    1       28.950 -17.622   6.474  0.00  0.00    +0.199 A 
ATOM     13  N   LIG    1       29.442 -18.677   7.062  0.00  0.00    -0.244 NA
ATOM     14  C   LIG    1       29.475 -19.639   6.095  0.00  0.00    +0.130 A 
ATOM     15  C   LIG    1       28.962 -19.163   4.914  0.00  0.00    +0.107 A 
ENDBRANCH  10  11
ENDBRANCH   1  10
BRANCH   1  16
ATOM     16  O   LIG    1       25.989 -17.891   3.453  0.00  0.00    -0.365 OA
BRANCH  16  17
ATOM     17  C   LIG    1       26.264 -19.224   3.925  0.00  0.00    +0.199 C 
BRANCH  17  18
ATOM     18  C   LIG    1       25.048 -19.764   4.646  0.00  0.00    +0.015 A 
ATOM     19  C   LIG    1       25.097 -20.178   5.994  0.00  0.00    +0.048 A 
ATOM     20 CL   LIG    1       26.570 -20.234   6.904  0.00  0.00    -0.083 Cl
ATOM     21  C   LIG    1       23.941 -20.591   6.672  0.00  0.00    +0.020 A 
ATOM     22  C   LIG    1       22.716 -20.620   6.017  0.00  0.00    +0.003 A 
ATOM     23  C   LIG    1       22.654 -20.273   4.672  0.00  0.00    +0.020 A 
ATOM     24  C   LIG    1       23.807 -19.857   3.990  0.00  0.00    +0.048 A 
ATOM     25 CL   LIG    1       23.637 -19.496   2.308  0.00  0.00    -0.083 Cl
ENDBRANCH  17  18
ENDBRANCH  16  17
ENDBRANCH   1  16
TORSDOF 6
ENDMDL
MODEL 5
REMARK VINA RESULT:      -2.2      2.868      6.937
REMARK  Name = *****
REMARK                            x       y       z     vdW  Elec       q    Type
REMARK                         _______ _______ _______ _____ _____    ______ ____
ROOT
ATOM      1  C   LIG    1       26.202 -17.315   3.336  0.00  0.00    +0.170 C 
ENDROOT
BRANCH   1   7
ATOM      2 CL   LIG    1       21.783 -21.169   4.862  0.00  0.00    -0.084 Cl
ATOM      3  C   LIG    1       22.998 -20.056   4.372  0.00  0.00    +0.042 A 
ATOM      4  C   LIG    1       22.781 -18.686   4.495  0.00  0.00    +0.040 A 
ATOM      5  C   LIG    1       23.797 -17.784   4.154  0.00  0.00    +0.048 A 
ATOM      6 CL   LIG    1       23.481 -16.103   4.389  0.00  0.00    -0.083 Cl
ATOM      7  C   LIG    1       25.025 -18.244   3.650  0.00  0.00    +0.001 A 
ATOM      8  C   LIG    1       25.177 -19.633   3.451  0.00  0.00    +0.009 A 
ATOM      9  C   LIG    1       24.195 -20.534   3.855  0.00  0.00    +0.020 A 
ENDBRANCH   1   7
BRANCH   1  10
ATOM     10  C   LIG    1       27.059 -17.154   4.616  0.00  0.00    +0.159 C 
BRANCH  10  11
ATOM     11  N   LIG    1       27.786 -18.346   5.008  0.00  0.00    -0.334 N 
ATOM     12  C   LIG    1       29.111 -18.405   5.335  0.00  0.00    +0.199 A 
ATOM     13  N   LIG    1       29.475 -19.604   5.698  0.00  0.00    -0.244 NA
ATOM     14  C   LIG    1       28.338 -20.356   5.631  0.00  0.00    +0.130 A 
ATOM     15  C   LIG    1       27.265 -19.587   5.253  0.00  0.00    +0.107 A 
ENDBRANCH  10  11
ENDBRANCH   1  10
BRANCH   1  16
ATOM     16  O   LIG    1       25.713 -16.017   2.917  0.00  0.00    -0.365 OA
BRANCH  16  17
ATOM     17  C   LIG    1       26.610 -14.926   3.197  0.00  0.00    +0.199 C 
BRANCH  17  18
ATOM     18  C   LIG    1       25.856 -13.822   3.906  0.00  0.00    +0.015 A 
ATOM     19  C   LIG    1       24.677 -13.257   3.376  0.00  0.00    +0.048 A 
ATOM     20 CL   LIG    1       24.060 -13.673   1.812  0.00  0.00    -0.083 Cl
ATOM     21  C   LIG    1       23.943 -12.300   4.090  0.00  0.00    +0.020 A 
ATOM     22  C   LIG    1       24.376 -11.869   5.338  0.00  0.00    +0.003 A 
ATOM     23  C   LIG    1       25.568 -12.369   5.854  0.00  0.00    +0.020 A 
ATOM     24  C   LIG    1       26.304 -13.328   5.145  0.00  0.00    +0.048 A 
ATOM     25 CL   LIG    1       27.795 -13.849   5.848  0.00  0.00    -0.083 Cl
ENDBRANCH  17  18
ENDBRANCH  16  17
ENDBRANCH   1  16
TORSDOF 6
ENDMDL
MODEL 6
REMARK VINA RESULT:      -1.9      2.614      6.490
REMARK  Name = *****
REMARK                            x       y       z     vdW  Elec       q    Type
REMARK                         _______ _______ _______ _____ _____    ______ ____
ROOT
ATOM      1  C   LIG    1       24.979 -18.336   4.105  0.00  0.00    +0.170 C 
ENDROOT
BRANCH   1   7
ATOM      2 CL   LIG    1       29.474 -21.123   7.062  0.00  0.00    -0.084 Cl
ATOM      3  C   LIG    1       28.185 -20.393   6.189  0.00  0.00    +0.042 A 
ATOM      4  C   LIG    1       26.864 -20.719   6.491  0.00  0.00    +0.040 A 
ATOM      5  C   LIG    1       25.815 -20.077   5.821  0.00  0.00    +0.048 A 
ATOM      6 CL   LIG    1       24.204 -20.484   6.288  0.00  0.00    -0.083 Cl
ATOM      7  C   LIG    1       26.079 -19.131   4.816  0.00  0.00    +0.001 A 
ATOM      8  C   LIG    1       27.427 -18.893   4.472  0.00  0.00    +0.009 A 
ATOM      9  C   LIG    1       28.471 -19.479   5.184  0.00  0.00    +0.020 A 
ENDBRANCH   1   7
BRANCH   1  10
ATOM     10  C   LIG    1       24.170 -19.305   3.208  0.00  0.00    +0.159 C 
BRANCH  10  11
ATOM     11  N   LIG    1       22.784 -19.473   3.598  0.00  0.00    -0.334 N 
ATOM     12  C   LIG    1       21.827 -18.497   3.597  0.00  0.00    +0.199 A 
ATOM     13  N   LIG    1       20.657 -18.955   3.948  0.00  0.00    -0.244 NA
ATOM     14  C   LIG    1       20.847 -20.288   4.164  0.00  0.00    +0.130 A 
ATOM     15  C   LIG    1       22.148 -20.644   3.905  0.00  0.00    +0.107 A 
ENDBRANCH  10  11
ENDBRANCH   1  10
BRANCH   1  16
ATOM     16  O   LIG    1       25.567 -17.297   3.285  0.00  0.00    -0.365 OA
BRANCH  16  17
ATOM     17  C   LIG    1       26.134 -16.203   4.030  0.00  0.00    +0.199 C 
BRANCH  17  18
ATOM     18  C   LIG    1       25.529 -14.900   3.552  0.00  0.00    +0.015 A 
ATOM     19  C   LIG    1       26.286 -13.930   2.861  0.00  0.00    +0.048 A 
ATOM     20 CL   LIG    1       27.994 -14.075   2.614  0.00  0.00    -0.083 Cl
ATOM     21  C   LIG    1       25.687 -12.771   2.347  0.00  0.00    +0.020 A 
ATOM     22  C   LIG    1       24.329 -12.542   2.528  0.00  0.00    +0.003 A 
ATOM     23  C   LIG    1       23.576 -13.455   3.258  0.00  0.00    +0.020 A 
ATOM     24  C   LIG    1       24.169 -14.618   3.771  0.00  0.00    +0.048 A 
ATOM     25 CL   LIG    1       23.160 -15.665   4.706  0.00  0.00    -0.083 Cl
ENDBRANCH  17  18
ENDBRANCH  16  17
ENDBRANCH   1  16
TORSDOF 6
ENDMDL
MODEL 7
REMARK VINA RESULT:      -1.7      2.706      6.847
REMARK  Name = *****
REMARK                            x       y       z     vdW  Elec       q    Type
REMARK                         _______ _______ _______ _____ _____    ______ ____
ROOT
ATOM      1  C   LIG    1       25.859 -19.187   3.967  0.00  0.00    +0.170 C 
ENDROOT
BRANCH   1   7
ATOM      2 CL   LIG    1       20.163 -21.150   4.607  0.00  0.00    -0.084 Cl
ATOM      3  C   LIG    1       21.768 -20.548   4.480  0.00  0.00    +0.042 A 
ATOM      4  C   LIG    1       22.717 -20.879   5.445  0.00  0.00    +0.040 A 
ATOM      5  C   LIG    1       24.039 -20.440   5.305  0.00  0.00    +0.048 A 
ATOM      6 CL   LIG    1       25.175 -20.938   6.506  0.00  0.00    -0.083 Cl
ATOM      7  C   LIG    1       24.415 -19.631   4.219  0.00  0.00    +0.001 A 
ATOM      8  C   LIG    1       23.409 -19.239   3.310  0.00  0.00    +0.009 A 
ATOM      9  C   LIG    1       22.110 -19.732   3.410  0.00  0.00    +0.020 A 
ENDBRANCH   1   7
BRANCH   1  10
ATOM     10  C   LIG    1       26.804 -20.072   4.816  0.00  0.00    +0.159 C 
BRANCH  10  11
ATOM     11  N   LIG    1       27.923 -19.364   5.408  0.00  0.00    -0.334 N 
ATOM     12  C   LIG    1       28.528 -18.251   4.897  0.00  0.00    +0.199 A 
ATOM     13  N   LIG    1       29.475 -17.805   5.675  0.00  0.00    -0.244 NA
ATOM     14  C   LIG    1       29.475 -18.642   6.751  0.00  0.00    +0.130 A 
ATOM     15  C   LIG    1       28.488 -19.590   6.633  0.00  0.00    +0.107 A 
ENDBRANCH  10  11
ENDBRANCH   1  10
BRANCH   1  16
ATOM     16  O   LIG    1       26.026 -17.800   4.348  0.00  0.00    -0.365 OA
BRANCH  16  17
ATOM     17  C   LIG    1       25.927 -16.867   3.255  0.00  0.00    +0.199 C 
BRANCH  17  18
ATOM     18  C   LIG    1       25.507 -15.513   3.783  0.00  0.00    +0.015 A 
ATOM     19  C   LIG    1       24.188 -15.250   4.211  0.00  0.00    +0.048 A 
ATOM     20 CL   LIG    1       22.904 -16.399   4.047  0.00  0.00    -0.083 Cl
ATOM     21  C   LIG    1       23.840 -14.017   4.782  0.00  0.00    +0.020 A 
ATOM     22  C   LIG    1       24.791 -13.013   4.921  0.00  0.00    +0.003 A 
ATOM     23  C   LIG    1       26.082 -13.229   4.451  0.00  0.00    +0.020 A 
ATOM     24  C   LIG    1       26.436 -14.461   3.883  0.00  0.00    +0.048 A 
ATOM     25 CL   LIG    1       28.051 -14.614   3.284  0.00  0.00    -0.083 Cl
ENDBRANCH  17  18
ENDBRANCH  16  17
ENDBRANCH   1  16
TORSDOF 6
ENDMDL
MODEL 8
REMARK VINA RESULT:      -1.6      2.716      6.465
REMARK  Name = *****
REMARK                            x       y       z     vdW  Elec       q    Type
REMARK                         _______ _______ _______ _____ _____    ______ ____
ROOT
ATOM      1  C   LIG    1       24.951 -18.402   4.078  0.00  0.00    +0.170 C 
ENDROOT
BRANCH   1   7
ATOM      2 CL   LIG    1       29.383 -21.262   7.059  0.00  0.00    -0.084 Cl
ATOM      3  C   LIG    1       28.105 -20.514   6.187  0.00  0.00    +0.042 A 
ATOM      4  C   LIG    1       26.785 -20.683   6.599  0.00  0.00    +0.040 A 
ATOM      5  C   LIG    1       25.751 -20.021   5.925  0.00  0.00    +0.048 A 
ATOM      6 CL   LIG    1       24.146 -20.228   6.526  0.00  0.00    -0.083 Cl
ATOM      7  C   LIG    1       26.025 -19.215   4.807  0.00  0.00    +0.001 A 
ATOM      8  C   LIG    1       27.362 -19.139   4.361  0.00  0.00    +0.009 A 
ATOM      9  C   LIG    1       28.398 -19.740   5.072  0.00  0.00    +0.020 A 
ENDBRANCH   1   7
BRANCH   1  10
ATOM     10  C   LIG    1       24.169 -19.349   3.135  0.00  0.00    +0.159 C 
BRANCH  10  11
ATOM     11  N   LIG    1       22.975 -19.929   3.718  0.00  0.00    -0.334 N 
ATOM     12  C   LIG    1       21.744 -19.340   3.776  0.00  0.00    +0.199 A 
ATOM     13  N   LIG    1       20.848 -20.122   4.312  0.00  0.00    -0.244 NA
ATOM     14  C   LIG    1       21.512 -21.280   4.593  0.00  0.00    +0.130 A 
ATOM     15  C   LIG    1       22.821 -21.204   4.189  0.00  0.00    +0.107 A 
ENDBRANCH  10  11
ENDBRANCH   1  10
BRANCH   1  16
ATOM     16  O   LIG    1       25.569 -17.348   3.299  0.00  0.00    -0.365 OA
BRANCH  16  17
ATOM     17  C   LIG    1       25.998 -16.212   4.073  0.00  0.00    +0.199 C 
BRANCH  17  18
ATOM     18  C   LIG    1       25.328 -14.961   3.546  0.00  0.00    +0.015 A 
ATOM     19  C   LIG    1       23.952 -14.711   3.734  0.00  0.00    +0.048 A 
ATOM     20 CL   LIG    1       22.880 -15.863   4.458  0.00  0.00    -0.083 Cl
ATOM     21  C   LIG    1       23.368 -13.506   3.319  0.00  0.00    +0.020 A 
ATOM     22  C   LIG    1       24.135 -12.532   2.691  0.00  0.00    +0.003 A 
ATOM     23  C   LIG    1       25.481 -12.782   2.442  0.00  0.00    +0.020 A 
ATOM     24  C   LIG    1       26.070 -13.984   2.858  0.00  0.00    +0.048 A 
ATOM     25 CL   LIG    1       27.736 -14.220   2.458  0.00  0.00    -0.083 Cl
ENDBRANCH  17  18
ENDBRANCH  16  17
ENDBRANCH   1  16
TORSDOF 6
ENDMDL
MODEL 9
REMARK VINA RESULT:      -1.5      2.728      7.330
REMARK  Name = *****
REMARK                            x       y       z     vdW  Elec       q    Type
REMARK                         _______ _______ _______ _____ _____    ______ ____
ROOT
ATOM      1  C   LIG    1       26.038 -18.031   3.389  0.00  0.00    +0.170 C 
ENDROOT
BRANCH   1   7
ATOM      2 CL   LIG    1       20.786 -20.800   4.595  0.00  0.00    -0.084 Cl
ATOM      3  C   LIG    1       22.308 -20.055   4.303  0.00  0.00    +0.042 A 
ATOM      4  C   LIG    1       23.316 -20.759   3.648  0.00  0.00    +0.040 A 
ATOM      5  C   LIG    1       24.532 -20.129   3.355  0.00  0.00    +0.048 A 
ATOM      6 CL   LIG    1       25.714 -21.042   2.490  0.00  0.00    -0.083 Cl
ATOM      7  C   LIG    1       24.764 -18.800   3.750  0.00  0.00    +0.001 A 
ATOM      8  C   LIG    1       23.756 -18.147   4.491  0.00  0.00    +0.009 A 
ATOM      9  C   LIG    1       22.521 -18.749   4.722  0.00  0.00    +0.020 A 
ENDBRANCH   1   7
BRANCH   1  10
ATOM     10  C   LIG    1       26.942 -17.954   4.644  0.00  0.00    +0.159 C 
BRANCH  10  11
ATOM     11  N   LIG    1       27.203 -19.232   5.278  0.00  0.00    -0.334 N 
ATOM     12  C   LIG    1       28.435 -19.758   5.543  0.00  0.00    +0.199 A 
ATOM     13  N   LIG    1       28.359 -20.901   6.167  0.00  0.00    -0.244 NA
ATOM     14  C   LIG    1       27.024 -21.121   6.342  0.00  0.00    +0.130 A 
ATOM     15  C   LIG    1       26.286 -20.076   5.843  0.00  0.00    +0.107 A 
ENDBRANCH  10  11
ENDBRANCH   1  10
BRANCH   1  16
ATOM     16  O   LIG    1       25.703 -16.691   2.953  0.00  0.00    -0.365 OA
BRANCH  16  17
ATOM     17  C   LIG    1       26.138 -15.649   3.848  0.00  0.00    +0.199 C 
BRANCH  17  18
ATOM     18  C   LIG    1       25.571 -14.322   3.392  0.00  0.00    +0.015 A 
ATOM     19  C   LIG    1       26.371 -13.336   2.777  0.00  0.00    +0.048 A 
ATOM     20 CL   LIG    1       28.087 -13.491   2.609  0.00  0.00    -0.083 Cl
ATOM     21  C   LIG    1       25.810 -12.150   2.280  0.00  0.00    +0.020 A 
ATOM     22  C   LIG    1       24.447 -11.912   2.402  0.00  0.00    +0.003 A 
ATOM     23  C   LIG    1       23.649 -12.844   3.058  0.00  0.00    +0.020 A 
ATOM     24  C   LIG    1       24.204 -14.032   3.554  0.00  0.00    +0.048 A 
ATOM     25 CL   LIG    1       23.140 -15.103   4.397  0.00  0.00    -0.083 Cl
ENDBRANCH  17  18
ENDBRANCH  16  17
ENDBRANCH   1  16
TORSDOF 6
ENDMDL
