MODEL 1
REMARK VINA RESULT:      -5.2      0.000      0.000
REMARK  Name = *****
REMARK                            x       y       z     vdW  Elec       q    Type
REMARK                         _______ _______ _______ _____ _____    ______ ____
ROOT
ATOM      1  C   LIG    1       26.353 -20.698   6.014  0.00  0.00    +0.314 C 
ATOM      2  O   LIG    1       26.211 -21.324   7.062  0.00  0.00    -0.254 OA
ENDROOT
BRANCH   1   4
ATOM      3  C   LIG    1       28.525 -19.937   6.125  0.00  0.00    +0.374 C 
ATOM      4  N   LIG    1       27.300 -19.721   5.795  0.00  0.00    -0.005 NA
BRANCH   3   5
ATOM      5  N   LIG    1       29.470 -18.996   5.898  0.00  0.00    -0.291 N 
ATOM      6  H   LIG    1       29.407 -18.631   4.953  0.00  0.00    +0.255 HD
ATOM      7  H   LIG    1       29.446 -18.250   6.583  0.00  0.00    +0.255 HD
ENDBRANCH   3   5
BRANCH   3   8
ATOM      8  N   LIG    1       29.089 -21.011   6.722  0.00  0.00    -0.291 N 
ATOM      9  H   LIG    1       30.096 -20.887   6.856  0.00  0.00    +0.255 HD
ATOM     10  H   LIG    1       28.642 -21.254   7.598  0.00  0.00    +0.255 HD
ENDBRANCH   3   8
ENDBRANCH   1   4
BRANCH   1  11
ATOM     11  C   LIG    1       25.497 -20.952   4.780  0.00  0.00    +0.155 C 
BRANCH  11  12
ATOM     12  C   LIG    1       24.333 -19.991   4.639  0.00  0.00    -0.001 A 
ATOM     13  C   LIG    1       24.443 -18.826   3.858  0.00  0.00    +0.046 A 
ATOM     14 CL   LIG    1       25.893 -18.431   2.999  0.00  0.00    -0.083 Cl
ATOM     15  C   LIG    1       23.377 -17.925   3.746  0.00  0.00    +0.020 A 
ATOM     16  C   LIG    1       22.188 -18.155   4.432  0.00  0.00    +0.003 A 
ATOM     17  C   LIG    1       22.066 -19.288   5.230  0.00  0.00    +0.020 A 
ATOM     18  C   LIG    1       23.126 -20.197   5.335  0.00  0.00    +0.046 A 
ATOM     19 CL   LIG    1       22.876 -21.572   6.355  0.00  0.00    -0.083 Cl
ENDBRANCH  11  12
ENDBRANCH   1  11
TORSDOF 5
ENDMDL
MODEL 2
REMARK VINA RESULT:      -5.2      0.134      2.363
REMARK  Name = *****
REMARK                            x       y       z     vdW  Elec       q    Type
REMARK                         _______ _______ _______ _____ _____    ______ ____
ROOT
ATOM      1  C   LIG    1       26.385 -20.853   6.048  0.00  0.00    +0.314 C 
ATOM      2  O   LIG    1       26.320 -21.545   7.062  0.00  0.00    -0.254 OA
ENDROOT
BRANCH   1   4
ATOM      3  C   LIG    1       28.513 -19.974   6.148  0.00  0.00    +0.374 C 
ATOM      4  N   LIG    1       27.271 -19.816   5.851  0.00  0.00    -0.005 NA
BRANCH   3   5
ATOM      5  N   LIG    1       29.398 -18.972   5.940  0.00  0.00    -0.291 N 
ATOM      6  H   LIG    1       29.845 -18.689   6.806  0.00  0.00    +0.255 HD
ATOM      7  H   LIG    1       30.082 -19.203   5.230  0.00  0.00    +0.255 HD
ENDBRANCH   3   5
BRANCH   3   8
ATOM      8  N   LIG    1       29.149 -21.036   6.690  0.00  0.00    -0.291 N 
ATOM      9  H   LIG    1       28.559 -21.530   7.365  0.00  0.00    +0.255 HD
ATOM     10  H   LIG    1       29.505 -21.679   5.993  0.00  0.00    +0.255 HD
ENDBRANCH   3   8
ENDBRANCH   1   4
BRANCH   1  11
ATOM     11  C   LIG    1       25.492 -21.081   4.836  0.00  0.00    +0.155 C 
BRANCH  11  12
ATOM     12  C   LIG    1       24.382 -20.058   4.697  0.00  0.00    -0.001 A 
ATOM     13  C   LIG    1       23.157 -20.219   5.372  0.00  0.00    +0.046 A 
ATOM     14 CL   LIG    1       22.852 -21.570   6.408  0.00  0.00    -0.083 Cl
ATOM     15  C   LIG    1       22.122 -19.287   5.225  0.00  0.00    +0.020 A 
ATOM     16  C   LIG    1       22.279 -18.189   4.384  0.00  0.00    +0.003 A 
ATOM     17  C   LIG    1       23.472 -18.025   3.688  0.00  0.00    +0.020 A 
ATOM     18  C   LIG    1       24.513 -18.948   3.840  0.00  0.00    +0.046 A 
ATOM     19 CL   LIG    1       25.955 -18.655   2.929  0.00  0.00    -0.083 Cl
ENDBRANCH  11  12
ENDBRANCH   1  11
TORSDOF 5
ENDMDL
MODEL 3
REMARK VINA RESULT:      -4.4      3.243      4.504
REMARK  Name = *****
REMARK                            x       y       z     vdW  Elec       q    Type
REMARK                         _______ _______ _______ _____ _____    ______ ____
ROOT
ATOM      1  C   LIG    1       24.899 -17.496   3.639  0.00  0.00    +0.314 C 
ATOM      2  O   LIG    1       23.869 -16.966   4.050  0.00  0.00    -0.254 OA
ENDROOT
BRANCH   1   4
ATOM      3  C   LIG    1       26.103 -15.545   3.401  0.00  0.00    +0.374 C 
ATOM      4  N   LIG    1       26.064 -16.829   3.327  0.00  0.00    -0.005 NA
BRANCH   3   5
ATOM      5  N   LIG    1       27.246 -14.879   3.118  0.00  0.00    -0.291 N 
ATOM      6  H   LIG    1       27.250 -14.543   2.160  0.00  0.00    +0.255 HD
ATOM      7  H   LIG    1       27.427 -14.128   3.773  0.00  0.00    +0.255 HD
ENDBRANCH   3   5
BRANCH   3   8
ATOM      8  N   LIG    1       25.130 -14.662   3.719  0.00  0.00    -0.291 N 
ATOM      9  H   LIG    1       25.178 -14.382   4.702  0.00  0.00    +0.255 HD
ATOM     10  H   LIG    1       25.126 -13.848   3.117  0.00  0.00    +0.255 HD
ENDBRANCH   3   8
ENDBRANCH   1   4
BRANCH   1  11
ATOM     11  C   LIG    1       25.032 -19.001   3.449  0.00  0.00    +0.155 C 
BRANCH  11  12
ATOM     12  C   LIG    1       24.712 -19.801   4.696  0.00  0.00    -0.001 A 
ATOM     13  C   LIG    1       23.381 -20.085   5.055  0.00  0.00    +0.046 A 
ATOM     14 CL   LIG    1       22.040 -19.561   4.095  0.00  0.00    -0.083 Cl
ATOM     15  C   LIG    1       23.083 -20.804   6.219  0.00  0.00    +0.020 A 
ATOM     16  C   LIG    1       24.104 -21.233   7.062  0.00  0.00    +0.003 A 
ATOM     17  C   LIG    1       25.426 -20.941   6.739  0.00  0.00    +0.020 A 
ATOM     18  C   LIG    1       25.729 -20.232   5.570  0.00  0.00    +0.046 A 
ATOM     19 CL   LIG    1       27.402 -19.919   5.260  0.00  0.00    -0.083 Cl
ENDBRANCH  11  12
ENDBRANCH   1  11
TORSDOF 5
ENDMDL
MODEL 4
REMARK VINA RESULT:      -4.4      3.181      4.364
REMARK  Name = *****
REMARK                            x       y       z     vdW  Elec       q    Type
REMARK                         _______ _______ _______ _____ _____    ______ ____
ROOT
ATOM      1  C   LIG    1       25.391 -17.745   3.461  0.00  0.00    +0.314 C 
ATOM      2  O   LIG    1       24.243 -17.368   3.688  0.00  0.00    -0.254 OA
ENDROOT
BRANCH   1   4
ATOM      3  C   LIG    1       26.341 -15.645   3.442  0.00  0.00    +0.374 C 
ATOM      4  N   LIG    1       26.483 -16.917   3.312  0.00  0.00    -0.005 NA
BRANCH   3   5
ATOM      5  N   LIG    1       27.408 -14.823   3.319  0.00  0.00    -0.291 N 
ATOM      6  H   LIG    1       27.204 -14.044   2.701  0.00  0.00    +0.255 HD
ATOM      7  H   LIG    1       27.754 -14.503   4.216  0.00  0.00    +0.255 HD
ENDBRANCH   3   5
BRANCH   3   8
ATOM      8  N   LIG    1       25.229 -14.914   3.682  0.00  0.00    -0.291 N 
ATOM      9  H   LIG    1       25.456 -13.991   4.060  0.00  0.00    +0.255 HD
ATOM     10  H   LIG    1       24.632 -14.827   2.868  0.00  0.00    +0.255 HD
ENDBRANCH   3   8
ENDBRANCH   1   4
BRANCH   1  11
ATOM     11  C   LIG    1       25.767 -19.216   3.346  0.00  0.00    +0.155 C 
BRANCH  11  12
ATOM     12  C   LIG    1       25.659 -19.975   4.653  0.00  0.00    -0.001 A 
ATOM     13  C   LIG    1       26.755 -20.070   5.531  0.00  0.00    +0.046 A 
ATOM     14 CL   LIG    1       28.274 -19.315   5.187  0.00  0.00    -0.083 Cl
ATOM     15  C   LIG    1       26.665 -20.791   6.728  0.00  0.00    +0.020 A 
ATOM     16  C   LIG    1       25.487 -21.454   7.062  0.00  0.00    +0.003 A 
ATOM     17  C   LIG    1       24.399 -21.394   6.196  0.00  0.00    +0.020 A 
ATOM     18  C   LIG    1       24.482 -20.665   5.004  0.00  0.00    +0.046 A 
ATOM     19 CL   LIG    1       23.076 -20.655   3.997  0.00  0.00    -0.083 Cl
ENDBRANCH  11  12
ENDBRANCH   1  11
TORSDOF 5
ENDMDL
MODEL 5
REMARK VINA RESULT:      -4.0      3.495      4.579
REMARK  Name = *****
REMARK                            x       y       z     vdW  Elec       q    Type
REMARK                         _______ _______ _______ _____ _____    ______ ____
ROOT
ATOM      1  C   LIG    1       25.846 -17.236   3.420  0.00  0.00    +0.314 C 
ATOM      2  O   LIG    1       27.069 -17.129   3.482  0.00  0.00    -0.254 OA
ENDROOT
BRANCH   1   4
ATOM      3  C   LIG    1       25.378 -14.994   3.674  0.00  0.00    +0.374 C 
ATOM      4  N   LIG    1       24.949 -16.204   3.596  0.00  0.00    -0.005 NA
BRANCH   3   5
ATOM      5  N   LIG    1       24.508 -13.969   3.826  0.00  0.00    -0.291 N 
ATOM      6  H   LIG    1       23.815 -14.176   4.538  0.00  0.00    +0.255 HD
ATOM      7  H   LIG    1       24.976 -13.090   4.011  0.00  0.00    +0.255 HD
ENDBRANCH   3   5
BRANCH   3   8
ATOM      8  N   LIG    1       26.642 -14.515   3.646  0.00  0.00    -0.291 N 
ATOM      9  H   LIG    1       27.125 -14.767   2.780  0.00  0.00    +0.255 HD
ATOM     10  H   LIG    1       26.687 -13.515   3.799  0.00  0.00    +0.255 HD
ENDBRANCH   3   8
ENDBRANCH   1   4
BRANCH   1  11
ATOM     11  C   LIG    1       25.149 -18.551   3.098  0.00  0.00    +0.155 C 
BRANCH  11  12
ATOM     12  C   LIG    1       24.645 -19.288   4.323  0.00  0.00    -0.001 A 
ATOM     13  C   LIG    1       23.285 -19.249   4.686  0.00  0.00    +0.046 A 
ATOM     14 CL   LIG    1       22.112 -18.384   3.754  0.00  0.00    -0.083 Cl
ATOM     15  C   LIG    1       22.822 -19.909   5.830  0.00  0.00    +0.020 A 
ATOM     16  C   LIG    1       23.709 -20.601   6.650  0.00  0.00    +0.003 A 
ATOM     17  C   LIG    1       25.061 -20.631   6.324  0.00  0.00    +0.020 A 
ATOM     18  C   LIG    1       25.527 -19.982   5.174  0.00  0.00    +0.046 A 
ATOM     19 CL   LIG    1       27.225 -20.077   4.858  0.00  0.00    -0.083 Cl
ENDBRANCH  11  12
ENDBRANCH   1  11
TORSDOF 5
ENDMDL
MODEL 6
REMARK VINA RESULT:      -3.2      3.203      5.132
REMARK  Name = *****
REMARK                            x       y       z     vdW  Elec       q    Type
REMARK                         _______ _______ _______ _____ _____    ______ ____
ROOT
ATOM      1  C   LIG    1       24.440 -20.873   5.975  0.00  0.00    +0.314 C 
ATOM      2  O   LIG    1       24.575 -20.302   7.054  0.00  0.00    -0.254 OA
ENDROOT
BRANCH   1   4
ATOM      3  C   LIG    1       22.397 -20.429   5.006  0.00  0.00    +0.374 C 
ATOM      4  N   LIG    1       23.239 -21.295   5.445  0.00  0.00    -0.005 NA
BRANCH   3   5
ATOM      5  N   LIG    1       21.224 -20.829   4.464  0.00  0.00    -0.291 N 
ATOM      6  H   LIG    1       21.371 -21.517   3.732  0.00  0.00    +0.255 HD
ATOM      7  H   LIG    1       20.571 -21.167   5.162  0.00  0.00    +0.255 HD
ENDBRANCH   3   5
BRANCH   3   8
ATOM      8  N   LIG    1       22.462 -19.078   4.997  0.00  0.00    -0.291 N 
ATOM      9  H   LIG    1       21.551 -18.652   5.181  0.00  0.00    +0.255 HD
ATOM     10  H   LIG    1       23.159 -18.715   5.636  0.00  0.00    +0.255 HD
ENDBRANCH   3   8
ENDBRANCH   1   4
BRANCH   1  11
ATOM     11  C   LIG    1       25.610 -21.166   5.045  0.00  0.00    +0.155 C 
BRANCH  11  12
ATOM     12  C   LIG    1       26.697 -20.110   5.085  0.00  0.00    -0.001 A 
ATOM     13  C   LIG    1       27.787 -20.223   5.969  0.00  0.00    +0.046 A 
ATOM     14 CL   LIG    1       27.963 -21.571   7.041  0.00  0.00    -0.083 Cl
ATOM     15  C   LIG    1       28.779 -19.237   6.026  0.00  0.00    +0.020 A 
ATOM     16  C   LIG    1       28.692 -18.106   5.219  0.00  0.00    +0.003 A 
ATOM     17  C   LIG    1       27.610 -17.962   4.356  0.00  0.00    +0.020 A 
ATOM     18  C   LIG    1       26.622 -18.952   4.289  0.00  0.00    +0.046 A 
ATOM     19 CL   LIG    1       25.317 -18.677   3.186  0.00  0.00    -0.083 Cl
ENDBRANCH  11  12
ENDBRANCH   1  11
TORSDOF 5
ENDMDL
MODEL 7
REMARK VINA RESULT:      -3.1      1.725      2.168
REMARK  Name = *****
REMARK                            x       y       z     vdW  Elec       q    Type
REMARK                         _______ _______ _______ _____ _____    ______ ____
ROOT
ATOM      1  C   LIG    1       25.378 -20.032   4.654  0.00  0.00    +0.314 C 
ATOM      2  O   LIG    1       24.714 -20.767   5.383  0.00  0.00    -0.254 OA
ENDROOT
BRANCH   1   4
ATOM      3  C   LIG    1       27.323 -20.062   5.891  0.00  0.00    +0.374 C 
ATOM      4  N   LIG    1       26.733 -19.809   4.776  0.00  0.00    -0.005 NA
BRANCH   3   5
ATOM      5  N   LIG    1       28.655 -19.867   6.019  0.00  0.00    -0.291 N 
ATOM      6  H   LIG    1       28.936 -19.866   6.994  0.00  0.00    +0.255 HD
ATOM      7  H   LIG    1       29.196 -20.533   5.480  0.00  0.00    +0.255 HD
ENDBRANCH   3   5
BRANCH   3   8
ATOM      8  N   LIG    1       26.815 -20.509   7.062  0.00  0.00    -0.291 N 
ATOM      9  H   LIG    1       25.850 -20.202   7.200  0.00  0.00    +0.255 HD
ATOM     10  H   LIG    1       26.885 -21.515   7.162  0.00  0.00    +0.255 HD
ENDBRANCH   3   8
ENDBRANCH   1   4
BRANCH   1  11
ATOM     11  C   LIG    1       24.778 -19.283   3.472  0.00  0.00    +0.155 C 
BRANCH  11  12
ATOM     12  C   LIG    1       24.087 -17.991   3.859  0.00  0.00    -0.001 A 
ATOM     13  C   LIG    1       24.755 -16.755   3.770  0.00  0.00    +0.046 A 
ATOM     14 CL   LIG    1       26.384 -16.631   3.199  0.00  0.00    -0.083 Cl
ATOM     15  C   LIG    1       24.126 -15.563   4.150  0.00  0.00    +0.020 A 
ATOM     16  C   LIG    1       22.827 -15.582   4.650  0.00  0.00    +0.003 A 
ATOM     17  C   LIG    1       22.158 -16.795   4.771  0.00  0.00    +0.020 A 
ATOM     18  C   LIG    1       22.779 -17.988   4.381  0.00  0.00    +0.046 A 
ATOM     19 CL   LIG    1       21.863 -19.443   4.572  0.00  0.00    -0.083 Cl
ENDBRANCH  11  12
ENDBRANCH   1  11
TORSDOF 5
ENDMDL
MODEL 8
REMARK VINA RESULT:      -3.1      4.688      5.783
REMARK  Name = *****
REMARK                            x       y       z     vdW  Elec       q    Type
REMARK                         _______ _______ _______ _____ _____    ______ ____
ROOT
ATOM      1  C   LIG    1       27.636 -15.005   3.827  0.00  0.00    +0.314 C 
ATOM      2  O   LIG    1       27.989 -16.066   4.337  0.00  0.00    -0.254 OA
ENDROOT
BRANCH   1   4
ATOM      3  C   LIG    1       28.062 -13.102   5.054  0.00  0.00    +0.374 C 
ATOM      4  N   LIG    1       28.274 -13.795   3.991  0.00  0.00    -0.005 NA
BRANCH   3   5
ATOM      5  N   LIG    1       28.698 -11.922   5.239  0.00  0.00    -0.291 N 
ATOM      6  H   LIG    1       28.104 -11.139   4.984  0.00  0.00    +0.255 HD
ATOM      7  H   LIG    1       29.059 -11.821   6.180  0.00  0.00    +0.255 HD
ENDBRANCH   3   5
BRANCH   3   8
ATOM      8  N   LIG    1       27.243 -13.344   6.102  0.00  0.00    -0.291 N 
ATOM      9  H   LIG    1       27.436 -12.719   6.888  0.00  0.00    +0.255 HD
ATOM     10  H   LIG    1       26.262 -13.307   5.851  0.00  0.00    +0.255 HD
ENDBRANCH   3   8
ENDBRANCH   1   4
BRANCH   1  11
ATOM     11  C   LIG    1       26.435 -14.898   2.897  0.00  0.00    +0.155 C 
BRANCH  11  12
ATOM     12  C   LIG    1       25.126 -15.302   3.545  0.00  0.00    -0.001 A 
ATOM     13  C   LIG    1       24.752 -16.656   3.643  0.00  0.00    +0.046 A 
ATOM     14 CL   LIG    1       25.763 -17.932   3.055  0.00  0.00    -0.083 Cl
ATOM     15  C   LIG    1       23.533 -17.031   4.219  0.00  0.00    +0.020 A 
ATOM     16  C   LIG    1       22.649 -16.062   4.687  0.00  0.00    +0.003 A 
ATOM     17  C   LIG    1       22.987 -14.717   4.577  0.00  0.00    +0.020 A 
ATOM     18  C   LIG    1       24.211 -14.339   4.011  0.00  0.00    +0.046 A 
ATOM     19 CL   LIG    1       24.536 -12.642   3.918  0.00  0.00    -0.083 Cl
ENDBRANCH  11  12
ENDBRANCH   1  11
TORSDOF 5
ENDMDL
MODEL 9
REMARK VINA RESULT:      -3.1      4.714      5.651
REMARK  Name = *****
REMARK                            x       y       z     vdW  Elec       q    Type
REMARK                         _______ _______ _______ _____ _____    ______ ____
ROOT
ATOM      1  C   LIG    1       27.633 -14.965   3.824  0.00  0.00    +0.314 C 
ATOM      2  O   LIG    1       27.970 -16.025   4.347  0.00  0.00    -0.254 OA
ENDROOT
BRANCH   1   4
ATOM      3  C   LIG    1       28.069 -13.078   5.071  0.00  0.00    +0.374 C 
ATOM      4  N   LIG    1       28.272 -13.756   3.998  0.00  0.00    -0.005 NA
BRANCH   3   5
ATOM      5  N   LIG    1       28.705 -11.900   5.265  0.00  0.00    -0.291 N 
ATOM      6  H   LIG    1       28.402 -11.201   4.594  0.00  0.00    +0.255 HD
ATOM      7  H   LIG    1       28.612 -11.563   6.216  0.00  0.00    +0.255 HD
ENDBRANCH   3   5
BRANCH   3   8
ATOM      8  N   LIG    1       27.260 -13.335   6.123  0.00  0.00    -0.291 N 
ATOM      9  H   LIG    1       26.610 -14.100   5.925  0.00  0.00    +0.255 HD
ATOM     10  H   LIG    1       27.772 -13.516   6.978  0.00  0.00    +0.255 HD
ENDBRANCH   3   8
ENDBRANCH   1   4
BRANCH   1  11
ATOM     11  C   LIG    1       26.456 -14.858   2.864  0.00  0.00    +0.155 C 
BRANCH  11  12
ATOM     12  C   LIG    1       25.131 -15.264   3.479  0.00  0.00    -0.001 A 
ATOM     13  C   LIG    1       24.240 -14.301   3.987  0.00  0.00    +0.046 A 
ATOM     14 CL   LIG    1       24.588 -12.606   3.924  0.00  0.00    -0.083 Cl
ATOM     15  C   LIG    1       23.027 -14.675   4.578  0.00  0.00    +0.020 A 
ATOM     16  C   LIG    1       22.689 -16.020   4.695  0.00  0.00    +0.003 A 
ATOM     17  C   LIG    1       23.567 -16.991   4.222  0.00  0.00    +0.020 A 
ATOM     18  C   LIG    1       24.776 -16.619   3.621  0.00  0.00    +0.046 A 
ATOM     19 CL   LIG    1       25.797 -17.901   3.068  0.00  0.00    -0.083 Cl
ENDBRANCH  11  12
ENDBRANCH   1  11
TORSDOF 5
ENDMDL
