MODEL 1
REMARK VINA RESULT:      -9.3      0.000      0.000
REMARK  Name = *****
REMARK                            x       y       z     vdW  Elec       q    Type
REMARK                         _______ _______ _______ _____ _____    ______ ____
ROOT
ATOM      1  C   LIG    1       29.459 -20.040   7.468  0.00  0.00    +0.017 A 
ATOM      2  C   LIG    1       28.460 -20.616   8.255  0.00  0.00    +0.012 A 
ATOM      3  C   LIG    1       27.164 -20.757   7.752  0.00  0.00    +0.009 A 
ATOM      4  C   LIG    1       26.840 -20.342   6.447  0.00  0.00    -0.018 A 
ATOM      5  C   LIG    1       27.868 -19.774   5.674  0.00  0.00    +0.009 A 
ATOM      6  C   LIG    1       29.159 -19.614   6.175  0.00  0.00    +0.012 A 
ENDROOT
BRANCH   4   7
ATOM      7  C   LIG    1       25.474 -20.495   5.905  0.00  0.00    -0.018 A 
ATOM      8  C   LIG    1       24.383 -20.784   6.746  0.00  0.00    +0.008 A 
ATOM      9  C   LIG    1       23.088 -20.911   6.241  0.00  0.00    +0.001 A 
ATOM     10  C   LIG    1       22.857 -20.768   4.877  0.00  0.00    +0.000 A 
ATOM     11  C   LIG    1       23.918 -20.494   4.021  0.00  0.00    +0.001 A 
ATOM     12  C   LIG    1       25.210 -20.352   4.532  0.00  0.00    +0.008 A 
ENDBRANCH   4   7
BRANCH   1  13
ATOM     13  C   LIG    1       30.821 -19.889   8.037  0.00  0.00    +0.164 C 
ATOM     14  O   LIG    1       31.493 -20.892   8.282  0.00  0.00    -0.292 OA
BRANCH  13  15
ATOM     15  C   LIG    1       31.337 -18.497   8.354  0.00  0.00    +0.091 C 
BRANCH  15  16
ATOM     16  C   LIG    1       30.289 -17.639   9.051  0.00  0.00    +0.128 C 
BRANCH  16  18
ATOM     17  O   LIG    1       30.688 -18.566  11.234  0.00  0.00    -0.251 OA
ATOM     18  C   LIG    1       30.440 -17.577  10.551  0.00  0.00    +0.305 C 
BRANCH  18  19
ATOM     19  O   LIG    1       30.250 -16.366  11.107  0.00  0.00    -0.481 OA
ATOM     20  H   LIG    1       30.182 -16.385  12.098  0.00  0.00    +0.295 HD
ENDBRANCH  18  19
ENDBRANCH  16  18
ENDBRANCH  15  16
ENDBRANCH  13  15
ENDBRANCH   1  13
TORSDOF 6
ENDMDL
MODEL 2
REMARK VINA RESULT:      -9.3      0.044      1.104
REMARK  Name = *****
REMARK                            x       y       z     vdW  Elec       q    Type
REMARK                         _______ _______ _______ _____ _____    ______ ____
ROOT
ATOM      1  C   LIG    1       29.436 -20.015   7.479  0.00  0.00    +0.017 A 
ATOM      2  C   LIG    1       28.420 -20.535   8.284  0.00  0.00    +0.012 A 
ATOM      3  C   LIG    1       27.126 -20.675   7.776  0.00  0.00    +0.009 A 
ATOM      4  C   LIG    1       26.819 -20.316   6.452  0.00  0.00    -0.018 A 
ATOM      5  C   LIG    1       27.863 -19.803   5.662  0.00  0.00    +0.009 A 
ATOM      6  C   LIG    1       29.153 -19.643   6.165  0.00  0.00    +0.012 A 
ENDROOT
BRANCH   4   7
ATOM      7  C   LIG    1       25.455 -20.468   5.907  0.00  0.00    -0.018 A 
ATOM      8  C   LIG    1       25.194 -20.302   4.533  0.00  0.00    +0.008 A 
ATOM      9  C   LIG    1       23.910 -20.464   4.010  0.00  0.00    +0.001 A 
ATOM     10  C   LIG    1       22.852 -20.780   4.854  0.00  0.00    +0.000 A 
ATOM     11  C   LIG    1       23.077 -20.939   6.218  0.00  0.00    +0.001 A 
ATOM     12  C   LIG    1       24.366 -20.792   6.735  0.00  0.00    +0.008 A 
ENDBRANCH   4   7
BRANCH   1  13
ATOM     13  C   LIG    1       30.797 -19.862   8.051  0.00  0.00    +0.164 C 
ATOM     14  O   LIG    1       31.465 -20.865   8.307  0.00  0.00    -0.292 OA
BRANCH  13  15
ATOM     15  C   LIG    1       31.315 -18.470   8.359  0.00  0.00    +0.091 C 
BRANCH  15  16
ATOM     16  C   LIG    1       30.275 -17.611   9.067  0.00  0.00    +0.128 C 
BRANCH  16  18
ATOM     17  O   LIG    1       30.690 -18.552  11.241  0.00  0.00    -0.251 OA
ATOM     18  C   LIG    1       30.437 -17.559  10.566  0.00  0.00    +0.305 C 
BRANCH  18  19
ATOM     19  O   LIG    1       30.252 -16.351  11.131  0.00  0.00    -0.481 OA
ATOM     20  H   LIG    1       31.080 -15.950  11.505  0.00  0.00    +0.295 HD
ENDBRANCH  18  19
ENDBRANCH  16  18
ENDBRANCH  15  16
ENDBRANCH  13  15
ENDBRANCH   1  13
TORSDOF 6
ENDMDL
MODEL 3
REMARK VINA RESULT:      -9.3      1.297      1.698
REMARK  Name = *****
REMARK                            x       y       z     vdW  Elec       q    Type
REMARK                         _______ _______ _______ _____ _____    ______ ____
ROOT
ATOM      1  C   LIG    1       29.412 -19.736   7.267  0.00  0.00    +0.017 A 
ATOM      2  C   LIG    1       28.479 -20.131   8.228  0.00  0.00    +0.012 A 
ATOM      3  C   LIG    1       27.155 -20.378   7.858  0.00  0.00    +0.009 A 
ATOM      4  C   LIG    1       26.735 -20.253   6.522  0.00  0.00    -0.018 A 
ATOM      5  C   LIG    1       27.698 -19.863   5.575  0.00  0.00    +0.009 A 
ATOM      6  C   LIG    1       29.018 -19.597   5.937  0.00  0.00    +0.012 A 
ENDROOT
BRANCH   4   7
ATOM      7  C   LIG    1       25.338 -20.521   6.122  0.00  0.00    -0.018 A 
ATOM      8  C   LIG    1       24.903 -20.309   4.801  0.00  0.00    +0.008 A 
ATOM      9  C   LIG    1       23.589 -20.578   4.414  0.00  0.00    +0.001 A 
ATOM     10  C   LIG    1       22.673 -21.051   5.348  0.00  0.00    +0.000 A 
ATOM     11  C   LIG    1       23.072 -21.259   6.665  0.00  0.00    +0.001 A 
ATOM     12  C   LIG    1       24.392 -21.003   7.044  0.00  0.00    +0.008 A 
ENDBRANCH   4   7
BRANCH   1  13
ATOM     13  C   LIG    1       30.808 -19.464   7.693  0.00  0.00    +0.164 C 
ATOM     14  O   LIG    1       31.719 -19.530   6.867  0.00  0.00    -0.292 OA
BRANCH  13  15
ATOM     15  C   LIG    1       31.088 -19.161   9.154  0.00  0.00    +0.091 C 
BRANCH  15  16
ATOM     16  C   LIG    1       30.983 -17.674   9.464  0.00  0.00    +0.128 C 
BRANCH  16  18
ATOM     17  O   LIG    1       33.021 -17.188  10.644  0.00  0.00    -0.251 OA
ATOM     18  C   LIG    1       32.313 -16.990   9.661  0.00  0.00    +0.305 C 
BRANCH  18  19
ATOM     19  O   LIG    1       32.666 -16.112   8.703  0.00  0.00    -0.481 OA
ATOM     20  H   LIG    1       33.302 -16.481   8.035  0.00  0.00    +0.295 HD
ENDBRANCH  18  19
ENDBRANCH  16  18
ENDBRANCH  15  16
ENDBRANCH  13  15
ENDBRANCH   1  13
TORSDOF 6
ENDMDL
MODEL 4
REMARK VINA RESULT:      -9.1      2.169      2.651
REMARK  Name = *****
REMARK                            x       y       z     vdW  Elec       q    Type
REMARK                         _______ _______ _______ _____ _____    ______ ____
ROOT
ATOM      1  C   LIG    1       28.814 -19.821   6.580  0.00  0.00    +0.017 A 
ATOM      2  C   LIG    1       27.743 -19.610   5.710  0.00  0.00    +0.012 A 
ATOM      3  C   LIG    1       26.642 -20.469   5.733  0.00  0.00    +0.009 A 
ATOM      4  C   LIG    1       26.576 -21.546   6.634  0.00  0.00    -0.018 A 
ATOM      5  C   LIG    1       27.665 -21.730   7.505  0.00  0.00    +0.009 A 
ATOM      6  C   LIG    1       28.775 -20.888   7.477  0.00  0.00    +0.012 A 
ENDROOT
BRANCH   4   7
ATOM      7  C   LIG    1       25.410 -22.454   6.669  0.00  0.00    -0.018 A 
ATOM      8  C   LIG    1       24.110 -21.964   6.893  0.00  0.00    +0.008 A 
ATOM      9  C   LIG    1       23.004 -22.815   6.908  0.00  0.00    +0.001 A 
ATOM     10  C   LIG    1       23.176 -24.181   6.717  0.00  0.00    +0.000 A 
ATOM     11  C   LIG    1       24.451 -24.696   6.505  0.00  0.00    +0.001 A 
ATOM     12  C   LIG    1       25.553 -23.839   6.474  0.00  0.00    +0.008 A 
ENDBRANCH   4   7
BRANCH   1  13
ATOM     13  C   LIG    1       29.978 -18.902   6.521  0.00  0.00    +0.164 C 
ATOM     14  O   LIG    1       30.088 -18.120   5.575  0.00  0.00    -0.292 OA
BRANCH  13  15
ATOM     15  C   LIG    1       31.039 -18.984   7.603  0.00  0.00    +0.091 C 
BRANCH  15  16
ATOM     16  C   LIG    1       30.759 -18.029   8.757  0.00  0.00    +0.128 C 
BRANCH  16  18
ATOM     17  O   LIG    1       32.415 -17.705  10.470  0.00  0.00    -0.251 OA
ATOM     18  C   LIG    1       31.996 -17.407   9.356  0.00  0.00    +0.305 C 
BRANCH  18  19
ATOM     19  O   LIG    1       32.601 -16.469   8.603  0.00  0.00    -0.481 OA
ATOM     20  H   LIG    1       32.004 -15.720   8.338  0.00  0.00    +0.295 HD
ENDBRANCH  18  19
ENDBRANCH  16  18
ENDBRANCH  15  16
ENDBRANCH  13  15
ENDBRANCH   1  13
TORSDOF 6
ENDMDL
MODEL 5
REMARK VINA RESULT:      -9.0      1.486      2.012
REMARK  Name = *****
REMARK                            x       y       z     vdW  Elec       q    Type
REMARK                         _______ _______ _______ _____ _____    ______ ____
ROOT
ATOM      1  C   LIG    1       29.420 -19.958   7.118  0.00  0.00    +0.017 A 
ATOM      2  C   LIG    1       29.124 -20.975   8.028  0.00  0.00    +0.012 A 
ATOM      3  C   LIG    1       27.887 -21.622   7.978  0.00  0.00    +0.009 A 
ATOM      4  C   LIG    1       26.924 -21.282   7.011  0.00  0.00    -0.018 A 
ATOM      5  C   LIG    1       27.252 -20.260   6.102  0.00  0.00    +0.009 A 
ATOM      6  C   LIG    1       28.478 -19.597   6.156  0.00  0.00    +0.012 A 
ENDROOT
BRANCH   4   7
ATOM      7  C   LIG    1       25.617 -21.968   6.947  0.00  0.00    -0.018 A 
ATOM      8  C   LIG    1       25.522 -23.326   6.592  0.00  0.00    +0.008 A 
ATOM      9  C   LIG    1       24.292 -23.984   6.549  0.00  0.00    +0.001 A 
ATOM     10  C   LIG    1       23.123 -23.290   6.844  0.00  0.00    +0.000 A 
ATOM     11  C   LIG    1       23.185 -21.943   7.187  0.00  0.00    +0.001 A 
ATOM     12  C   LIG    1       24.420 -21.293   7.245  0.00  0.00    +0.008 A 
ENDBRANCH   4   7
BRANCH   1  13
ATOM     13  C   LIG    1       30.736 -19.276   7.207  0.00  0.00    +0.164 C 
ATOM     14  O   LIG    1       31.445 -19.192   6.204  0.00  0.00    -0.292 OA
BRANCH  13  15
ATOM     15  C   LIG    1       31.202 -18.745   8.549  0.00  0.00    +0.091 C 
BRANCH  15  16
ATOM     16  C   LIG    1       30.272 -17.670   9.098  0.00  0.00    +0.128 C 
BRANCH  16  18
ATOM     17  O   LIG    1       30.232 -16.370  11.120  0.00  0.00    -0.251 OA
ATOM     18  C   LIG    1       30.377 -17.467  10.589  0.00  0.00    +0.305 C 
BRANCH  18  19
ATOM     19  O   LIG    1       30.676 -18.565  11.308  0.00  0.00    -0.481 OA
ATOM     20  H   LIG    1       31.643 -18.795  11.306  0.00  0.00    +0.295 HD
ENDBRANCH  18  19
ENDBRANCH  16  18
ENDBRANCH  15  16
ENDBRANCH  13  15
ENDBRANCH   1  13
TORSDOF 6
ENDMDL
MODEL 6
REMARK VINA RESULT:      -8.6      4.361      7.441
REMARK  Name = *****
REMARK                            x       y       z     vdW  Elec       q    Type
REMARK                         _______ _______ _______ _____ _____    ______ ____
ROOT
ATOM      1  C   LIG    1       24.706 -23.219   6.559  0.00  0.00    +0.017 A 
ATOM      2  C   LIG    1       25.740 -23.362   7.487  0.00  0.00    +0.012 A 
ATOM      3  C   LIG    1       26.769 -22.418   7.541  0.00  0.00    +0.009 A 
ATOM      4  C   LIG    1       26.782 -21.304   6.682  0.00  0.00    -0.018 A 
ATOM      5  C   LIG    1       25.725 -21.182   5.764  0.00  0.00    +0.009 A 
ATOM      6  C   LIG    1       24.703 -22.128   5.692  0.00  0.00    +0.012 A 
ENDROOT
BRANCH   4   7
ATOM      7  C   LIG    1       27.863 -20.299   6.739  0.00  0.00    -0.018 A 
ATOM      8  C   LIG    1       28.578 -20.061   7.928  0.00  0.00    +0.008 A 
ATOM      9  C   LIG    1       29.612 -19.125   7.981  0.00  0.00    +0.001 A 
ATOM     10  C   LIG    1       29.945 -18.392   6.848  0.00  0.00    +0.000 A 
ATOM     11  C   LIG    1       29.248 -18.598   5.661  0.00  0.00    +0.001 A 
ATOM     12  C   LIG    1       28.224 -19.546   5.608  0.00  0.00    +0.008 A 
ENDBRANCH   4   7
BRANCH   1  13
ATOM     13  C   LIG    1       23.636 -24.247   6.515  0.00  0.00    +0.164 C 
ATOM     14  O   LIG    1       22.480 -23.933   6.800  0.00  0.00    -0.292 OA
BRANCH  13  15
ATOM     15  C   LIG    1       24.002 -25.678   6.168  0.00  0.00    +0.091 C 
BRANCH  15  16
ATOM     16  C   LIG    1       25.109 -25.753   5.124  0.00  0.00    +0.128 C 
BRANCH  16  18
ATOM     17  O   LIG    1       27.038 -27.117   4.673  0.00  0.00    -0.251 OA
ATOM     18  C   LIG    1       26.249 -26.668   5.499  0.00  0.00    +0.305 C 
BRANCH  18  19
ATOM     19  O   LIG    1       26.330 -26.995   6.802  0.00  0.00    -0.481 OA
ATOM     20  H   LIG    1       26.611 -27.934   6.964  0.00  0.00    +0.295 HD
ENDBRANCH  18  19
ENDBRANCH  16  18
ENDBRANCH  15  16
ENDBRANCH  13  15
ENDBRANCH   1  13
TORSDOF 6
ENDMDL
MODEL 7
REMARK VINA RESULT:      -8.4      3.944      7.548
REMARK  Name = *****
REMARK                            x       y       z     vdW  Elec       q    Type
REMARK                         _______ _______ _______ _____ _____    ______ ____
ROOT
ATOM      1  C   LIG    1       24.977 -21.071   6.819  0.00  0.00    +0.017 A 
ATOM      2  C   LIG    1       25.822 -20.729   5.762  0.00  0.00    +0.012 A 
ATOM      3  C   LIG    1       27.108 -20.246   6.020  0.00  0.00    +0.009 A 
ATOM      4  C   LIG    1       27.585 -20.110   7.335  0.00  0.00    -0.018 A 
ATOM      5  C   LIG    1       26.716 -20.471   8.380  0.00  0.00    +0.009 A 
ATOM      6  C   LIG    1       25.425 -20.936   8.133  0.00  0.00    +0.012 A 
ENDROOT
BRANCH   4   7
ATOM      7  C   LIG    1       28.946 -19.608   7.615  0.00  0.00    -0.018 A 
ATOM      8  C   LIG    1       29.996 -19.794   6.696  0.00  0.00    +0.008 A 
ATOM      9  C   LIG    1       31.279 -19.305   6.948  0.00  0.00    +0.001 A 
ATOM     10  C   LIG    1       31.546 -18.633   8.135  0.00  0.00    +0.000 A 
ATOM     11  C   LIG    1       30.530 -18.444   9.067  0.00  0.00    +0.001 A 
ATOM     12  C   LIG    1       29.244 -18.921   8.805  0.00  0.00    +0.008 A 
ENDBRANCH   4   7
BRANCH   1  13
ATOM     13  C   LIG    1       23.611 -21.565   6.514  0.00  0.00    +0.164 C 
ATOM     14  O   LIG    1       22.781 -20.795   6.029  0.00  0.00    -0.292 OA
BRANCH  13  15
ATOM     15  C   LIG    1       23.251 -22.998   6.859  0.00  0.00    +0.091 C 
BRANCH  15  16
ATOM     16  C   LIG    1       24.457 -23.927   6.795  0.00  0.00    +0.128 C 
BRANCH  16  18
ATOM     17  O   LIG    1       23.890 -26.168   6.133  0.00  0.00    -0.251 OA
ATOM     18  C   LIG    1       24.310 -25.061   5.811  0.00  0.00    +0.305 C 
BRANCH  18  19
ATOM     19  O   LIG    1       24.706 -24.795   4.552  0.00  0.00    -0.481 OA
ATOM     20  H   LIG    1       23.956 -24.685   3.910  0.00  0.00    +0.295 HD
ENDBRANCH  18  19
ENDBRANCH  16  18
ENDBRANCH  15  16
ENDBRANCH  13  15
ENDBRANCH   1  13
TORSDOF 6
ENDMDL
MODEL 8
REMARK VINA RESULT:      -8.3      3.913      7.403
REMARK  Name = *****
REMARK                            x       y       z     vdW  Elec       q    Type
REMARK                         _______ _______ _______ _____ _____    ______ ____
ROOT
ATOM      1  C   LIG    1       24.898 -20.889   6.736  0.00  0.00    +0.017 A 
ATOM      2  C   LIG    1       25.249 -20.784   8.083  0.00  0.00    +0.012 A 
ATOM      3  C   LIG    1       26.566 -20.488   8.443  0.00  0.00    +0.009 A 
ATOM      4  C   LIG    1       27.558 -20.274   7.469  0.00  0.00    -0.018 A 
ATOM      5  C   LIG    1       27.174 -20.377   6.120  0.00  0.00    +0.009 A 
ATOM      6  C   LIG    1       25.866 -20.689   5.752  0.00  0.00    +0.012 A 
ENDROOT
BRANCH   4   7
ATOM      7  C   LIG    1       28.951 -19.953   7.843  0.00  0.00    -0.018 A 
ATOM      8  C   LIG    1       29.865 -20.965   8.192  0.00  0.00    +0.008 A 
ATOM      9  C   LIG    1       31.187 -20.668   8.527  0.00  0.00    +0.001 A 
ATOM     10  C   LIG    1       31.621 -19.347   8.538  0.00  0.00    +0.000 A 
ATOM     11  C   LIG    1       30.737 -18.325   8.209  0.00  0.00    +0.001 A 
ATOM     12  C   LIG    1       29.419 -18.627   7.858  0.00  0.00    +0.008 A 
ENDBRANCH   4   7
BRANCH   1  13
ATOM     13  C   LIG    1       23.495 -21.221   6.384  0.00  0.00    +0.164 C 
ATOM     14  O   LIG    1       22.771 -20.356   5.891  0.00  0.00    -0.292 OA
BRANCH  13  15
ATOM     15  C   LIG    1       22.967 -22.610   6.692  0.00  0.00    +0.091 C 
BRANCH  15  16
ATOM     16  C   LIG    1       24.088 -23.608   6.952  0.00  0.00    +0.128 C 
BRANCH  16  18
ATOM     17  O   LIG    1       23.827 -25.864   6.161  0.00  0.00    -0.251 OA
ATOM     18  C   LIG    1       24.181 -24.712   5.928  0.00  0.00    +0.305 C 
BRANCH  18  19
ATOM     19  O   LIG    1       24.713 -24.364   4.741  0.00  0.00    -0.481 OA
ATOM     20  H   LIG    1       25.697 -24.228   4.766  0.00  0.00    +0.295 HD
ENDBRANCH  18  19
ENDBRANCH  16  18
ENDBRANCH  15  16
ENDBRANCH  13  15
ENDBRANCH   1  13
TORSDOF 6
ENDMDL
MODEL 9
REMARK VINA RESULT:      -8.2      5.829      8.039
REMARK  Name = *****
REMARK                            x       y       z     vdW  Elec       q    Type
REMARK                         _______ _______ _______ _____ _____    ______ ____
ROOT
ATOM      1  C   LIG    1       25.821 -25.134   5.929  0.00  0.00    +0.017 A 
ATOM      2  C   LIG    1       25.128 -24.941   4.732  0.00  0.00    +0.012 A 
ATOM      3  C   LIG    1       24.557 -23.698   4.445  0.00  0.00    +0.009 A 
ATOM      4  C   LIG    1       24.678 -22.617   5.337  0.00  0.00    -0.018 A 
ATOM      5  C   LIG    1       25.388 -22.839   6.530  0.00  0.00    +0.009 A 
ATOM      6  C   LIG    1       25.946 -24.080   6.832  0.00  0.00    +0.012 A 
ENDROOT
BRANCH   4   7
ATOM      7  C   LIG    1       24.084 -21.298   5.037  0.00  0.00    -0.018 A 
ATOM      8  C   LIG    1       24.572 -20.500   3.986  0.00  0.00    +0.008 A 
ATOM      9  C   LIG    1       24.002 -19.261   3.687  0.00  0.00    +0.001 A 
ATOM     10  C   LIG    1       22.939 -18.785   4.445  0.00  0.00    +0.000 A 
ATOM     11  C   LIG    1       22.442 -19.548   5.497  0.00  0.00    +0.001 A 
ATOM     12  C   LIG    1       23.005 -20.793   5.783  0.00  0.00    +0.008 A 
ENDBRANCH   4   7
BRANCH   1  13
ATOM     13  C   LIG    1       26.401 -26.471   6.213  0.00  0.00    +0.164 C 
ATOM     14  O   LIG    1       27.457 -26.802   5.671  0.00  0.00    -0.292 OA
BRANCH  13  15
ATOM     15  C   LIG    1       25.651 -27.422   7.126  0.00  0.00    +0.091 C 
BRANCH  15  16
ATOM     16  C   LIG    1       24.313 -27.851   6.536  0.00  0.00    +0.128 C 
BRANCH  16  18
ATOM     17  O   LIG    1       25.415 -29.708   5.477  0.00  0.00    -0.251 OA
ATOM     18  C   LIG    1       24.362 -29.159   5.786  0.00  0.00    +0.305 C 
BRANCH  18  19
ATOM     19  O   LIG    1       23.169 -29.678   5.440  0.00  0.00    -0.481 OA
ATOM     20  H   LIG    1       22.889 -29.460   4.512  0.00  0.00    +0.295 HD
ENDBRANCH  18  19
ENDBRANCH  16  18
ENDBRANCH  15  16
ENDBRANCH  13  15
ENDBRANCH   1  13
TORSDOF 6
ENDMDL
