MODEL 1
REMARK VINA RESULT:      -7.4      0.000      0.000
REMARK  Name = *****
REMARK                            x       y       z     vdW  Elec       q    Type
REMARK                         _______ _______ _______ _____ _____    ______ ____
ROOT
ATOM      1  C   LIG    1       26.105 -28.273   7.508  0.00  0.00    +0.102 C 
ATOM      2  N   LIG    1       26.421 -27.899   8.881  0.00  0.00    -0.309 N 
ATOM      3  H   LIG    1       26.191 -26.967   9.199  0.00  0.00    +0.149 HD
ATOM      4  C   LIG    1       26.924 -28.815   9.781  0.00  0.00    +0.216 C 
ATOM      5  O   LIG    1       27.189 -29.975   9.479  0.00  0.00    -0.276 OA
ATOM      6  C   LIG    1       27.149 -28.229  11.163  0.00  0.00    +0.128 C 
ATOM      7  C   LIG    1       27.552 -29.287  12.206  0.00  0.00    +0.136 C 
ATOM      8  C   LIG    1       26.473 -29.720  13.257  0.00  0.00    +0.050 C 
ATOM      9  C   LIG    1       27.139 -30.730  14.218  0.00  0.00    +0.021 C 
ATOM     10  C   LIG    1       25.986 -28.533  14.113  0.00  0.00    +0.021 C 
ATOM     11  C   LIG    1       25.230 -30.294  12.525  0.00  0.00    +0.147 C 
ATOM     12  O   LIG    1       24.614 -29.589  11.714  0.00  0.00    -0.296 OA
ATOM     13  C   LIG    1       24.678 -31.679  12.886  0.00  0.00    +0.082 C 
ATOM     14  C   LIG    1       23.727 -31.535  14.080  0.00  0.00    +0.018 C 
ATOM     15  C   LIG    1       23.946 -32.343  11.691  0.00  0.00    +0.127 C 
ATOM     16  C   LIG    1       24.760 -32.496  10.383  0.00  0.00    +0.015 C 
ATOM     17  C   LIG    1       26.146 -33.106  10.627  0.00  0.00    +0.010 C 
ATOM     18  C   LIG    1       23.981 -33.360   9.354  0.00  0.00    +0.006 C 
ATOM     19  C   LIG    1       24.377 -33.051   7.903  0.00  0.00    +0.003 C 
ATOM     20  C   LIG    1       23.468 -31.986   7.274  0.00  0.00    +0.037 C 
ATOM     21  C   LIG    1       24.102 -31.335   6.066  0.00  0.00    +0.093 C 
ATOM     22  C   LIG    1       24.442 -32.230   4.911  0.00  0.00    +0.044 C 
ATOM     23  C   LIG    1       24.778 -29.969   6.155  0.00  0.00    +0.153 C 
ATOM     24  O   LIG    1       23.437 -30.128   5.668  0.00  0.00    -0.365 OA
ATOM     25  C   LIG    1       24.872 -29.199   7.443  0.00  0.00    +0.061 C 
ENDROOT
BRANCH   1  27
ATOM     26  C   LIG    1       26.283 -27.135   5.241  0.00  0.00    +0.041 C 
ATOM     27  C   LIG    1       25.962 -26.982   6.708  0.00  0.00    -0.051 C 
ATOM     28  C   LIG    1       25.564 -25.822   7.281  0.00  0.00    +0.029 C 
BRANCH  28  29
ATOM     29  C   LIG    1       25.447 -24.532   6.682  0.00  0.00    +0.071 A 
ATOM     30  N   LIG    1       26.116 -23.452   7.219  0.00  0.00    -0.245 NA
ATOM     31  C   LIG    1       25.849 -22.370   6.518  0.00  0.00    +0.076 A 
ATOM     32  C   LIG    1       26.441 -21.032   6.785  0.00  0.00    +0.074 C 
ATOM     33  S   LIG    1       24.750 -22.586   5.213  0.00  0.00    -0.080 S 
ATOM     34  C   LIG    1       24.628 -24.249   5.609  0.00  0.00    +0.074 A 
ENDBRANCH  28  29
ENDBRANCH   1  27
BRANCH   7  35
ATOM     35  O   LIG    1       28.719 -28.796  12.897  0.00  0.00    -0.390 OA
ATOM     36  H   LIG    1       28.752 -29.198  13.781  0.00  0.00    +0.210 HD
ENDBRANCH   7  35
BRANCH  15  37
ATOM     37  O   LIG    1       22.741 -31.624  11.399  0.00  0.00    -0.391 OA
ATOM     38  H   LIG    1       22.503 -31.140  12.218  0.00  0.00    +0.210 HD
ENDBRANCH  15  37
TORSDOF 4
ENDMDL
MODEL 2
REMARK VINA RESULT:      -6.7      0.930      1.089
REMARK  Name = *****
REMARK                            x       y       z     vdW  Elec       q    Type
REMARK                         _______ _______ _______ _____ _____    ______ ____
ROOT
ATOM      1  C   LIG    1       26.220 -27.830   7.464  0.00  0.00    +0.102 C 
ATOM      2  N   LIG    1       26.329 -27.537   8.887  0.00  0.00    -0.309 N 
ATOM      3  H   LIG    1       25.991 -26.647   9.230  0.00  0.00    +0.149 HD
ATOM      4  C   LIG    1       26.781 -28.480   9.786  0.00  0.00    +0.216 C 
ATOM      5  O   LIG    1       27.169 -29.594   9.449  0.00  0.00    -0.276 OA
ATOM      6  C   LIG    1       26.783 -27.980  11.220  0.00  0.00    +0.128 C 
ATOM      7  C   LIG    1       27.130 -29.082  12.239  0.00  0.00    +0.136 C 
ATOM      8  C   LIG    1       25.961 -29.660  13.108  0.00  0.00    +0.050 C 
ATOM      9  C   LIG    1       26.573 -30.690  14.084  0.00  0.00    +0.021 C 
ATOM     10  C   LIG    1       25.281 -28.574  13.965  0.00  0.00    +0.021 C 
ATOM     11  C   LIG    1       24.869 -30.262  12.184  0.00  0.00    +0.147 C 
ATOM     12  O   LIG    1       24.309 -29.543  11.345  0.00  0.00    -0.296 OA
ATOM     13  C   LIG    1       24.381 -31.703  12.381  0.00  0.00    +0.082 C 
ATOM     14  C   LIG    1       23.278 -31.709  13.445  0.00  0.00    +0.018 C 
ATOM     15  C   LIG    1       23.860 -32.327  11.061  0.00  0.00    +0.127 C 
ATOM     16  C   LIG    1       24.844 -32.331   9.865  0.00  0.00    +0.015 C 
ATOM     17  C   LIG    1       26.229 -32.862  10.251  0.00  0.00    +0.010 C 
ATOM     18  C   LIG    1       24.270 -33.168   8.690  0.00  0.00    +0.006 C 
ATOM     19  C   LIG    1       24.823 -32.730   7.326  0.00  0.00    +0.003 C 
ATOM     20  C   LIG    1       23.923 -31.685   6.651  0.00  0.00    +0.037 C 
ATOM     21  C   LIG    1       24.654 -30.909   5.580  0.00  0.00    +0.093 C 
ATOM     22  C   LIG    1       25.205 -31.693   4.426  0.00  0.00    +0.044 C 
ATOM     23  C   LIG    1       25.208 -29.510   5.843  0.00  0.00    +0.153 C 
ATOM     24  O   LIG    1       23.956 -29.723   5.174  0.00  0.00    -0.365 OA
ATOM     25  C   LIG    1       25.079 -28.830   7.178  0.00  0.00    +0.061 C 
ENDROOT
BRANCH   1  27
ATOM     26  C   LIG    1       26.398 -26.574   5.260  0.00  0.00    +0.041 C 
ATOM     27  C   LIG    1       26.083 -26.498   6.734  0.00  0.00    -0.051 C 
ATOM     28  C   LIG    1       25.693 -25.368   7.369  0.00  0.00    +0.029 C 
BRANCH  28  29
ATOM     29  C   LIG    1       25.583 -24.047   6.841  0.00  0.00    +0.071 A 
ATOM     30  N   LIG    1       24.822 -23.808   5.715  0.00  0.00    -0.245 NA
ATOM     31  C   LIG    1       24.881 -22.531   5.403  0.00  0.00    +0.076 A 
ATOM     32  C   LIG    1       24.137 -21.911   4.272  0.00  0.00    +0.074 C 
ATOM     33  S   LIG    1       25.884 -21.566   6.411  0.00  0.00    -0.080 S 
ATOM     34  C   LIG    1       26.263 -22.956   7.341  0.00  0.00    +0.074 A 
ENDBRANCH  28  29
ENDBRANCH   1  27
BRANCH   7  35
ATOM     35  O   LIG    1       28.158 -28.564  13.107  0.00  0.00    -0.390 OA
ATOM     36  H   LIG    1       29.025 -28.741  12.704  0.00  0.00    +0.210 HD
ENDBRANCH   7  35
BRANCH  15  37
ATOM     37  O   LIG    1       22.651 -31.671  10.657  0.00  0.00    -0.391 OA
ATOM     38  H   LIG    1       22.226 -32.259   9.997  0.00  0.00    +0.210 HD
ENDBRANCH  15  37
TORSDOF 4
ENDMDL
MODEL 3
REMARK VINA RESULT:      -6.3      3.900      6.168
REMARK  Name = *****
REMARK                            x       y       z     vdW  Elec       q    Type
REMARK                         _______ _______ _______ _____ _____    ______ ____
ROOT
ATOM      1  C   LIG    1       24.372 -30.921   9.937  0.00  0.00    +0.102 C 
ATOM      2  N   LIG    1       25.433 -30.006  10.337  0.00  0.00    -0.309 N 
ATOM      3  H   LIG    1       25.859 -29.415   9.635  0.00  0.00    +0.149 HD
ATOM      4  C   LIG    1       25.793 -29.852  11.659  0.00  0.00    +0.216 C 
ATOM      5  O   LIG    1       25.292 -30.504  12.570  0.00  0.00    -0.276 OA
ATOM      6  C   LIG    1       26.893 -28.825  11.859  0.00  0.00    +0.128 C 
ATOM      7  C   LIG    1       27.180 -28.534  13.344  0.00  0.00    +0.136 C 
ATOM      8  C   LIG    1       26.671 -27.171  13.927  0.00  0.00    +0.050 C 
ATOM      9  C   LIG    1       27.136 -27.093  15.399  0.00  0.00    +0.021 C 
ATOM     10  C   LIG    1       27.282 -25.960  13.195  0.00  0.00    +0.021 C 
ATOM     11  C   LIG    1       25.131 -27.074  13.763  0.00  0.00    +0.147 C 
ATOM     12  O   LIG    1       24.628 -27.137  12.633  0.00  0.00    -0.296 OA
ATOM     13  C   LIG    1       24.230 -26.770  14.968  0.00  0.00    +0.082 C 
ATOM     14  C   LIG    1       24.160 -25.251  15.161  0.00  0.00    +0.018 C 
ATOM     15  C   LIG    1       22.806 -27.358  14.793  0.00  0.00    +0.127 C 
ATOM     16  C   LIG    1       22.717 -28.880  14.520  0.00  0.00    +0.015 C 
ATOM     17  C   LIG    1       23.567 -29.698  15.500  0.00  0.00    +0.010 C 
ATOM     18  C   LIG    1       21.241 -29.359  14.580  0.00  0.00    +0.006 C 
ATOM     19  C   LIG    1       20.996 -30.623  13.743  0.00  0.00    +0.003 C 
ATOM     20  C   LIG    1       20.535 -30.287  12.318  0.00  0.00    +0.037 C 
ATOM     21  C   LIG    1       20.743 -31.441  11.364  0.00  0.00    +0.093 C 
ATOM     22  C   LIG    1       20.021 -32.719  11.673  0.00  0.00    +0.044 C 
ATOM     23  C   LIG    1       21.939 -31.489  10.415  0.00  0.00    +0.153 C 
ATOM     24  O   LIG    1       20.640 -31.053   9.987  0.00  0.00    -0.365 OA
ATOM     25  C   LIG    1       22.985 -30.409  10.383  0.00  0.00    +0.061 C 
ENDROOT
BRANCH   1  27
ATOM     26  C   LIG    1       24.403 -29.875   7.620  0.00  0.00    +0.041 C 
ATOM     27  C   LIG    1       24.504 -31.141   8.433  0.00  0.00    -0.051 C 
ATOM     28  C   LIG    1       24.711 -32.370   7.904  0.00  0.00    +0.029 C 
BRANCH  28  29
ATOM     29  C   LIG    1       24.790 -32.739   6.527  0.00  0.00    +0.071 A 
ATOM     30  N   LIG    1       25.990 -32.661   5.852  0.00  0.00    -0.245 NA
ATOM     31  C   LIG    1       25.820 -33.031   4.601  0.00  0.00    +0.076 A 
ATOM     32  C   LIG    1       26.916 -33.117   3.597  0.00  0.00    +0.074 C 
ATOM     33  S   LIG    1       24.211 -33.447   4.161  0.00  0.00    -0.080 S 
ATOM     34  C   LIG    1       23.703 -33.114   5.765  0.00  0.00    +0.074 A 
ENDBRANCH  28  29
ENDBRANCH   1  27
BRANCH   7  35
ATOM     35  O   LIG    1       28.605 -28.633  13.541  0.00  0.00    -0.390 OA
ATOM     36  H   LIG    1       28.803 -29.486  13.964  0.00  0.00    +0.210 HD
ENDBRANCH   7  35
BRANCH  15  37
ATOM     37  O   LIG    1       22.119 -26.664  13.743  0.00  0.00    -0.391 OA
ATOM     38  H   LIG    1       21.571 -27.334  13.283  0.00  0.00    +0.210 HD
ENDBRANCH  15  37
TORSDOF 4
ENDMDL
