MODEL 1
REMARK VINA RESULT:     -10.2      0.000      0.000
REMARK  Name = *****
REMARK                            x       y       z     vdW  Elec       q    Type
REMARK                         _______ _______ _______ _____ _____    ______ ____
ROOT
ATOM      1  C   LIG    1       24.621 -23.049   6.267  0.00  0.00    +0.119 C 
ENDROOT
BRANCH   1   5
ATOM      2  C   LIG    1       25.347 -27.362   5.953  0.00  0.00    -0.010 A 
ATOM      3  C   LIG    1       24.045 -26.845   5.975  0.00  0.00    +0.007 A 
ATOM      4  C   LIG    1       23.817 -25.466   6.083  0.00  0.00    +0.005 A 
ATOM      5  C   LIG    1       24.888 -24.562   6.177  0.00  0.00    -0.034 A 
ATOM      6  C   LIG    1       26.188 -25.099   6.177  0.00  0.00    +0.005 A 
ATOM      7  C   LIG    1       26.415 -26.476   6.083  0.00  0.00    +0.007 A 
BRANCH   2   8
ATOM      8  C   LIG    1       25.588 -28.848   5.879  0.00  0.00    +0.268 C 
BRANCH   8   9
ATOM      9  O   LIG    1       24.801 -29.457   6.900  0.00  0.00    -0.456 OA
BRANCH   9  10
ATOM     10  C   LIG    1       25.500 -30.266   7.746  0.00  0.00    +0.340 C 
ATOM     11  O   LIG    1       26.006 -31.328   7.479  0.00  0.00    -0.245 OA
BRANCH  10  17
ATOM     12  C   LIG    1       26.039 -28.080  13.058  0.00  0.00    +0.044 C 
ATOM     13  C   LIG    1       25.830 -28.547  11.649  0.00  0.00    -0.050 A 
ATOM     14  C   LIG    1       24.746 -29.386  11.343  0.00  0.00    +0.007 A 
ATOM     15  C   LIG    1       24.565 -29.901  10.049  0.00  0.00    -0.036 A 
ATOM     16  C   LIG    1       23.385 -30.791   9.770  0.00  0.00    +0.044 C 
ATOM     17  C   LIG    1       25.527 -29.597   9.075  0.00  0.00    +0.062 A 
ATOM     18  C   LIG    1       26.562 -28.690   9.356  0.00  0.00    +0.015 A 
ATOM     19  C   LIG    1       26.721 -28.178  10.641  0.00  0.00    +0.004 A 
ENDBRANCH  10  17
ENDBRANCH   9  10
ENDBRANCH   8   9
ENDBRANCH   2   8
ENDBRANCH   1   5
BRANCH   1  20
ATOM     20  C   LIG    1       25.766 -22.307   6.989  0.00  0.00    +0.226 C 
ATOM     21  N   LIG    1       26.574 -21.566   6.123  0.00  0.00    -0.285 N 
ATOM     22  H   LIG    1       26.294 -21.544   5.150  0.00  0.00    +0.155 HD
ATOM     23  O   LIG    1       25.891 -22.357   8.210  0.00  0.00    -0.275 OA
BRANCH  21  24
ATOM     24  C   LIG    1       27.739 -20.823   6.437  0.00  0.00    +0.034 A 
ATOM     25  C   LIG    1       28.570 -21.309   7.464  0.00  0.00    +0.031 A 
ATOM     26  C   LIG    1       29.745 -20.625   7.853  0.00  0.00    -0.013 A 
ATOM     27  C   LIG    1       30.084 -19.429   7.197  0.00  0.00    +0.000 A 
ATOM     28  C   LIG    1       31.252 -18.773   7.597  0.00  0.00    +0.119 A 
ATOM     29  N   LIG    1       32.082 -19.211   8.571  0.00  0.00    -0.263 NA
ATOM     30  C   LIG    1       31.734 -20.361   9.182  0.00  0.00    +0.111 A 
ATOM     31  C   LIG    1       29.256 -18.944   6.173  0.00  0.00    +0.012 A 
ATOM     32  C   LIG    1       30.595 -21.090   8.870  0.00  0.00    +0.028 A 
ATOM     33  C   LIG    1       28.098 -19.637   5.798  0.00  0.00    +0.024 A 
ENDBRANCH  21  24
ENDBRANCH   1  20
BRANCH   1  34
ATOM     34  C   LIG    1       23.265 -22.704   6.939  0.00  0.00    +0.095 C 
BRANCH  34  35
ATOM     35  N   LIG    1       23.232 -21.446   7.697  0.00  0.00    -0.329 NA
ATOM     36  H   LIG    1       22.431 -21.484   8.333  0.00  0.00    +0.118 HD
ATOM     37  H   LIG    1       24.040 -21.416   8.326  0.00  0.00    +0.118 HD
ENDBRANCH  34  35
ENDBRANCH   1  34
TORSDOF 9
ENDMDL
MODEL 2
REMARK VINA RESULT:     -10.1      0.921      1.455
REMARK  Name = *****
REMARK                            x       y       z     vdW  Elec       q    Type
REMARK                         _______ _______ _______ _____ _____    ______ ____
ROOT
ATOM      1  C   LIG    1       25.009 -22.547   6.744  0.00  0.00    +0.119 C 
ENDROOT
BRANCH   1   5
ATOM      2  C   LIG    1       25.095 -26.870   6.016  0.00  0.00    -0.010 A 
ATOM      3  C   LIG    1       23.889 -26.158   6.013  0.00  0.00    +0.007 A 
ATOM      4  C   LIG    1       23.865 -24.777   6.254  0.00  0.00    +0.005 A 
ATOM      5  C   LIG    1       25.050 -24.067   6.509  0.00  0.00    -0.034 A 
ATOM      6  C   LIG    1       26.250 -24.801   6.530  0.00  0.00    +0.005 A 
ATOM      7  C   LIG    1       26.272 -26.181   6.303  0.00  0.00    +0.007 A 
BRANCH   2   8
ATOM      8  C   LIG    1       25.113 -28.361   5.798  0.00  0.00    +0.268 C 
BRANCH   8   9
ATOM      9  O   LIG    1       24.458 -28.961   6.914  0.00  0.00    -0.456 OA
BRANCH   9  10
ATOM     10  C   LIG    1       25.204 -29.893   7.572  0.00  0.00    +0.340 C 
ATOM     11  O   LIG    1       25.638 -30.924   7.122  0.00  0.00    -0.245 OA
BRANCH  10  17
ATOM     12  C   LIG    1       26.357 -28.433  13.034  0.00  0.00    +0.044 C 
ATOM     13  C   LIG    1       25.989 -28.707  11.607  0.00  0.00    -0.050 A 
ATOM     14  C   LIG    1       24.853 -29.476  11.312  0.00  0.00    +0.007 A 
ATOM     15  C   LIG    1       24.522 -29.814   9.990  0.00  0.00    -0.036 A 
ATOM     16  C   LIG    1       23.291 -30.636   9.725  0.00  0.00    +0.044 C 
ATOM     17  C   LIG    1       25.389 -29.404   8.967  0.00  0.00    +0.062 A 
ATOM     18  C   LIG    1       26.478 -28.563   9.250  0.00  0.00    +0.015 A 
ATOM     19  C   LIG    1       26.784 -28.228  10.566  0.00  0.00    +0.004 A 
ENDBRANCH  10  17
ENDBRANCH   9  10
ENDBRANCH   8   9
ENDBRANCH   2   8
ENDBRANCH   1   5
BRANCH   1  20
ATOM     20  C   LIG    1       26.126 -22.085   7.704  0.00  0.00    +0.226 C 
ATOM     21  N   LIG    1       27.193 -21.466   7.050  0.00  0.00    -0.285 N 
ATOM     22  H   LIG    1       27.096 -21.332   6.051  0.00  0.00    +0.155 HD
ATOM     23  O   LIG    1       26.024 -22.231   8.920  0.00  0.00    -0.275 OA
BRANCH  21  24
ATOM     24  C   LIG    1       28.401 -20.983   7.613  0.00  0.00    +0.034 A 
ATOM     25  C   LIG    1       28.515 -19.597   7.831  0.00  0.00    +0.031 A 
ATOM     26  C   LIG    1       29.689 -19.027   8.375  0.00  0.00    -0.013 A 
ATOM     27  C   LIG    1       30.767 -19.869   8.699  0.00  0.00    +0.000 A 
ATOM     28  C   LIG    1       31.915 -19.281   9.239  0.00  0.00    +0.119 A 
ATOM     29  N   LIG    1       32.060 -17.957   9.475  0.00  0.00    -0.263 NA
ATOM     30  C   LIG    1       31.011 -17.173   9.156  0.00  0.00    +0.111 A 
ATOM     31  C   LIG    1       30.654 -21.250   8.481  0.00  0.00    +0.012 A 
ATOM     32  C   LIG    1       29.827 -17.649   8.609  0.00  0.00    +0.028 A 
ATOM     33  C   LIG    1       29.482 -21.798   7.946  0.00  0.00    +0.024 A 
ENDBRANCH  21  24
ENDBRANCH   1  20
BRANCH   1  34
ATOM     34  C   LIG    1       23.633 -22.041   7.254  0.00  0.00    +0.095 C 
BRANCH  34  35
ATOM     35  N   LIG    1       23.640 -20.721   7.900  0.00  0.00    -0.329 NA
ATOM     36  H   LIG    1       23.813 -20.862   8.899  0.00  0.00    +0.118 HD
ATOM     37  H   LIG    1       24.463 -20.200   7.583  0.00  0.00    +0.118 HD
ENDBRANCH  34  35
ENDBRANCH   1  34
TORSDOF 9
ENDMDL
MODEL 3
REMARK VINA RESULT:      -9.9      0.663      1.635
REMARK  Name = *****
REMARK                            x       y       z     vdW  Elec       q    Type
REMARK                         _______ _______ _______ _____ _____    ______ ____
ROOT
ATOM      1  C   LIG    1       24.576 -22.907   6.266  0.00  0.00    +0.119 C 
ENDROOT
BRANCH   1   5
ATOM      2  C   LIG    1       25.213 -27.245   6.314  0.00  0.00    -0.010 A 
ATOM      3  C   LIG    1       26.231 -26.358   6.688  0.00  0.00    +0.007 A 
ATOM      4  C   LIG    1       26.025 -24.971   6.664  0.00  0.00    +0.005 A 
ATOM      5  C   LIG    1       24.794 -24.429   6.260  0.00  0.00    -0.034 A 
ATOM      6  C   LIG    1       23.791 -25.333   5.865  0.00  0.00    +0.005 A 
ATOM      7  C   LIG    1       24.000 -26.716   5.877  0.00  0.00    +0.007 A 
BRANCH   2   8
ATOM      8  C   LIG    1       25.451 -28.733   6.301  0.00  0.00    +0.268 C 
BRANCH   8   9
ATOM      9  O   LIG    1       24.517 -29.319   7.205  0.00  0.00    -0.456 OA
BRANCH   9  10
ATOM     10  C   LIG    1       25.024 -30.333   7.962  0.00  0.00    +0.340 C 
ATOM     11  O   LIG    1       25.703 -31.253   7.580  0.00  0.00    -0.245 OA
BRANCH  10  17
ATOM     12  C   LIG    1       22.999 -28.938  13.182  0.00  0.00    +0.044 C 
ATOM     13  C   LIG    1       23.564 -29.409  11.876  0.00  0.00    -0.050 A 
ATOM     14  C   LIG    1       24.885 -29.086  11.527  0.00  0.00    +0.007 A 
ATOM     15  C   LIG    1       25.420 -29.447  10.280  0.00  0.00    -0.036 A 
ATOM     16  C   LIG    1       26.843 -29.084   9.956  0.00  0.00    +0.044 C 
ATOM     17  C   LIG    1       24.581 -30.100   9.365  0.00  0.00    +0.062 A 
ATOM     18  C   LIG    1       23.288 -30.499   9.743  0.00  0.00    +0.015 A 
ATOM     19  C   LIG    1       22.778 -30.143  10.987  0.00  0.00    +0.004 A 
ENDBRANCH  10  17
ENDBRANCH   9  10
ENDBRANCH   8   9
ENDBRANCH   2   8
ENDBRANCH   1   5
BRANCH   1  20
ATOM     20  C   LIG    1       25.725 -22.165   6.982  0.00  0.00    +0.226 C 
ATOM     21  N   LIG    1       26.570 -21.480   6.107  0.00  0.00    -0.285 N 
ATOM     22  H   LIG    1       26.311 -21.490   5.128  0.00  0.00    +0.155 HD
ATOM     23  O   LIG    1       25.822 -22.170   8.207  0.00  0.00    -0.275 OA
BRANCH  21  24
ATOM     24  C   LIG    1       27.747 -20.755   6.417  0.00  0.00    +0.034 A 
ATOM     25  C   LIG    1       28.571 -21.250   7.445  0.00  0.00    +0.031 A 
ATOM     26  C   LIG    1       29.757 -20.584   7.830  0.00  0.00    -0.013 A 
ATOM     27  C   LIG    1       30.114 -19.396   7.170  0.00  0.00    +0.000 A 
ATOM     28  C   LIG    1       31.293 -18.758   7.567  0.00  0.00    +0.119 A 
ATOM     29  N   LIG    1       32.117 -19.206   8.541  0.00  0.00    -0.263 NA
ATOM     30  C   LIG    1       31.752 -20.348   9.156  0.00  0.00    +0.111 A 
ATOM     31  C   LIG    1       29.293 -18.901   6.146  0.00  0.00    +0.012 A 
ATOM     32  C   LIG    1       30.600 -21.059   8.848  0.00  0.00    +0.028 A 
ATOM     33  C   LIG    1       28.124 -19.577   5.774  0.00  0.00    +0.024 A 
ENDBRANCH  21  24
ENDBRANCH   1  20
BRANCH   1  34
ATOM     34  C   LIG    1       23.213 -22.484   6.878  0.00  0.00    +0.095 C 
BRANCH  34  35
ATOM     35  N   LIG    1       23.211 -21.207   7.605  0.00  0.00    -0.329 NA
ATOM     36  H   LIG    1       23.912 -21.269   8.348  0.00  0.00    +0.118 HD
ATOM     37  H   LIG    1       23.575 -20.473   6.990  0.00  0.00    +0.118 HD
ENDBRANCH  34  35
ENDBRANCH   1  34
TORSDOF 9
ENDMDL
MODEL 4
REMARK VINA RESULT:      -9.8      3.904      5.403
REMARK  Name = *****
REMARK                            x       y       z     vdW  Elec       q    Type
REMARK                         _______ _______ _______ _____ _____    ______ ____
ROOT
ATOM      1  C   LIG    1       26.016 -26.613   6.280  0.00  0.00    +0.119 C 
ENDROOT
BRANCH   1   5
ATOM      2  C   LIG    1       24.994 -29.864   9.039  0.00  0.00    -0.010 A 
ATOM      3  C   LIG    1       24.292 -29.682   7.841  0.00  0.00    +0.007 A 
ATOM      4  C   LIG    1       24.617 -28.637   6.964  0.00  0.00    +0.005 A 
ATOM      5  C   LIG    1       25.654 -27.738   7.264  0.00  0.00    -0.034 A 
ATOM      6  C   LIG    1       26.333 -27.920   8.482  0.00  0.00    +0.005 A 
ATOM      7  C   LIG    1       26.001 -28.955   9.363  0.00  0.00    +0.007 A 
BRANCH   2   8
ATOM      8  C   LIG    1       24.615 -30.963   9.998  0.00  0.00    +0.268 C 
BRANCH   8   9
ATOM      9  O   LIG    1       23.504 -30.496  10.761  0.00  0.00    -0.456 OA
BRANCH   9  10
ATOM     10  C   LIG    1       23.713 -30.475  12.108  0.00  0.00    +0.340 C 
ATOM     11  O   LIG    1       23.753 -31.425  12.850  0.00  0.00    -0.245 OA
BRANCH  10  17
ATOM     12  C   LIG    1       24.491 -25.161  14.216  0.00  0.00    +0.044 C 
ATOM     13  C   LIG    1       24.290 -26.490  13.553  0.00  0.00    -0.050 A 
ATOM     14  C   LIG    1       22.990 -26.975  13.338  0.00  0.00    +0.007 A 
ATOM     15  C   LIG    1       22.767 -28.248  12.788  0.00  0.00    -0.036 A 
ATOM     16  C   LIG    1       21.356 -28.720  12.570  0.00  0.00    +0.044 C 
ATOM     17  C   LIG    1       23.883 -29.050  12.505  0.00  0.00    +0.062 A 
ATOM     18  C   LIG    1       25.183 -28.534  12.640  0.00  0.00    +0.015 A 
ATOM     19  C   LIG    1       25.385 -27.266  13.174  0.00  0.00    +0.004 A 
ENDBRANCH  10  17
ENDBRANCH   9  10
ENDBRANCH   8   9
ENDBRANCH   2   8
ENDBRANCH   1   5
BRANCH   1  20
ATOM     20  C   LIG    1       24.894 -25.558   6.176  0.00  0.00    +0.226 C 
ATOM     21  N   LIG    1       25.375 -24.254   6.037  0.00  0.00    -0.285 N 
ATOM     22  H   LIG    1       26.379 -24.148   5.957  0.00  0.00    +0.155 HD
ATOM     23  O   LIG    1       23.709 -25.882   6.179  0.00  0.00    -0.275 OA
BRANCH  21  24
ATOM     24  C   LIG    1       24.631 -23.049   5.979  0.00  0.00    +0.034 A 
ATOM     25  C   LIG    1       24.803 -22.226   4.851  0.00  0.00    +0.031 A 
ATOM     26  C   LIG    1       24.112 -21.000   4.716  0.00  0.00    -0.013 A 
ATOM     27  C   LIG    1       23.237 -20.596   5.740  0.00  0.00    +0.000 A 
ATOM     28  C   LIG    1       22.563 -19.382   5.581  0.00  0.00    +0.119 A 
ATOM     29  N   LIG    1       22.691 -18.568   4.508  0.00  0.00    -0.263 NA
ATOM     30  C   LIG    1       23.535 -18.980   3.542  0.00  0.00    +0.111 A 
ATOM     31  C   LIG    1       23.066 -21.416   6.865  0.00  0.00    +0.012 A 
ATOM     32  C   LIG    1       24.260 -20.162   3.598  0.00  0.00    +0.028 A 
ATOM     33  C   LIG    1       23.755 -22.630   6.979  0.00  0.00    +0.024 A 
ENDBRANCH  21  24
ENDBRANCH   1  20
BRANCH   1  34
ATOM     34  C   LIG    1       26.382 -27.132   4.863  0.00  0.00    +0.095 C 
BRANCH  34  35
ATOM     35  N   LIG    1       27.813 -27.361   4.619  0.00  0.00    -0.329 NA
ATOM     36  H   LIG    1       27.920 -28.313   4.258  0.00  0.00    +0.118 HD
ATOM     37  H   LIG    1       28.116 -26.770   3.840  0.00  0.00    +0.118 HD
ENDBRANCH  34  35
ENDBRANCH   1  34
TORSDOF 9
ENDMDL
MODEL 5
REMARK VINA RESULT:      -9.7      1.810      2.811
REMARK  Name = *****
REMARK                            x       y       z     vdW  Elec       q    Type
REMARK                         _______ _______ _______ _____ _____    ______ ____
ROOT
ATOM      1  C   LIG    1       24.656 -21.957   5.503  0.00  0.00    +0.119 C 
ENDROOT
BRANCH   1   5
ATOM      2  C   LIG    1       25.550 -26.211   6.075  0.00  0.00    -0.010 A 
ATOM      3  C   LIG    1       25.772 -25.279   7.097  0.00  0.00    +0.007 A 
ATOM      4  C   LIG    1       25.492 -23.918   6.907  0.00  0.00    +0.005 A 
ATOM      5  C   LIG    1       24.984 -23.449   5.685  0.00  0.00    -0.034 A 
ATOM      6  C   LIG    1       24.788 -24.394   4.662  0.00  0.00    +0.005 A 
ATOM      7  C   LIG    1       25.079 -25.749   4.847  0.00  0.00    +0.007 A 
BRANCH   2   8
ATOM      8  C   LIG    1       25.891 -27.666   6.268  0.00  0.00    +0.268 C 
BRANCH   8   9
ATOM      9  O   LIG    1       25.188 -28.403   5.270  0.00  0.00    -0.456 OA
BRANCH   9  10
ATOM     10  C   LIG    1       24.412 -29.414   5.755  0.00  0.00    +0.340 C 
ATOM     11  O   LIG    1       23.207 -29.472   5.741  0.00  0.00    -0.245 OA
BRANCH  10  17
ATOM     12  C   LIG    1       27.522 -33.825   7.794  0.00  0.00    +0.044 C 
ATOM     13  C   LIG    1       26.819 -32.609   7.270  0.00  0.00    -0.050 A 
ATOM     14  C   LIG    1       26.173 -31.736   8.161  0.00  0.00    +0.007 A 
ATOM     15  C   LIG    1       25.442 -30.630   7.697  0.00  0.00    -0.036 A 
ATOM     16  C   LIG    1       24.773 -29.720   8.691  0.00  0.00    +0.044 C 
ATOM     17  C   LIG    1       25.329 -30.446   6.311  0.00  0.00    +0.062 A 
ATOM     18  C   LIG    1       26.045 -31.267   5.423  0.00  0.00    +0.015 A 
ATOM     19  C   LIG    1       26.774 -32.351   5.900  0.00  0.00    +0.004 A 
ENDBRANCH  10  17
ENDBRANCH   9  10
ENDBRANCH   8   9
ENDBRANCH   2   8
ENDBRANCH   1   5
BRANCH   1  20
ATOM     20  C   LIG    1       25.632 -21.055   6.287  0.00  0.00    +0.226 C 
ATOM     21  N   LIG    1       26.916 -21.025   5.739  0.00  0.00    -0.285 N 
ATOM     22  H   LIG    1       27.051 -21.534   4.874  0.00  0.00    +0.155 HD
ATOM     23  O   LIG    1       25.261 -20.412   7.267  0.00  0.00    -0.275 OA
BRANCH  21  24
ATOM     24  C   LIG    1       28.063 -20.357   6.236  0.00  0.00    +0.034 A 
ATOM     25  C   LIG    1       28.756 -20.951   7.307  0.00  0.00    +0.031 A 
ATOM     26  C   LIG    1       29.902 -20.348   7.874  0.00  0.00    -0.013 A 
ATOM     27  C   LIG    1       30.352 -19.121   7.355  0.00  0.00    +0.000 A 
ATOM     28  C   LIG    1       31.488 -18.547   7.932  0.00  0.00    +0.119 A 
ATOM     29  N   LIG    1       32.189 -19.090   8.953  0.00  0.00    -0.263 NA
ATOM     30  C   LIG    1       31.737 -20.267   9.429  0.00  0.00    +0.111 A 
ATOM     31  C   LIG    1       29.660 -18.528   6.289  0.00  0.00    +0.012 A 
ATOM     32  C   LIG    1       30.616 -20.922   8.939  0.00  0.00    +0.028 A 
ATOM     33  C   LIG    1       28.530 -19.142   5.736  0.00  0.00    +0.024 A 
ENDBRANCH  21  24
ENDBRANCH   1  20
BRANCH   1  34
ATOM     34  C   LIG    1       23.192 -21.600   5.878  0.00  0.00    +0.095 C 
BRANCH  34  35
ATOM     35  N   LIG    1       22.796 -20.205   5.639  0.00  0.00    -0.329 NA
ATOM     36  H   LIG    1       21.780 -20.145   5.747  0.00  0.00    +0.118 HD
ATOM     37  H   LIG    1       23.156 -19.622   6.401  0.00  0.00    +0.118 HD
ENDBRANCH  34  35
ENDBRANCH   1  34
TORSDOF 9
ENDMDL
MODEL 6
REMARK VINA RESULT:      -9.5      3.300      9.939
REMARK  Name = *****
REMARK                            x       y       z     vdW  Elec       q    Type
REMARK                         _______ _______ _______ _____ _____    ______ ____
ROOT
ATOM      1  C   LIG    1       25.125 -22.241   6.917  0.00  0.00    +0.119 C 
ENDROOT
BRANCH   1   5
ATOM      2  C   LIG    1       28.650 -19.774   6.074  0.00  0.00    -0.010 A 
ATOM      3  C   LIG    1       27.441 -19.565   5.399  0.00  0.00    +0.007 A 
ATOM      4  C   LIG    1       26.318 -20.361   5.666  0.00  0.00    +0.005 A 
ATOM      5  C   LIG    1       26.373 -21.394   6.616  0.00  0.00    -0.034 A 
ATOM      6  C   LIG    1       27.602 -21.606   7.268  0.00  0.00    +0.005 A 
ATOM      7  C   LIG    1       28.726 -20.820   6.992  0.00  0.00    +0.007 A 
BRANCH   2   8
ATOM      8  C   LIG    1       29.867 -18.943   5.755  0.00  0.00    +0.268 C 
BRANCH   8   9
ATOM      9  O   LIG    1       30.177 -18.180   6.919  0.00  0.00    -0.456 OA
BRANCH   9  10
ATOM     10  C   LIG    1       31.256 -18.631   7.619  0.00  0.00    +0.340 C 
ATOM     11  O   LIG    1       32.012 -19.513   7.297  0.00  0.00    -0.245 OA
BRANCH  10  17
ATOM     12  C   LIG    1       31.977 -15.932  12.668  0.00  0.00    +0.044 C 
ATOM     13  C   LIG    1       31.727 -16.532  11.317  0.00  0.00    -0.050 A 
ATOM     14  C   LIG    1       30.594 -17.334  11.107  0.00  0.00    +0.007 A 
ATOM     15  C   LIG    1       30.368 -17.972   9.876  0.00  0.00    -0.036 A 
ATOM     16  C   LIG    1       29.137 -18.816   9.698  0.00  0.00    +0.044 C 
ATOM     17  C   LIG    1       31.336 -17.827   8.871  0.00  0.00    +0.062 A 
ATOM     18  C   LIG    1       32.424 -16.957   9.049  0.00  0.00    +0.015 A 
ATOM     19  C   LIG    1       32.626 -16.324  10.272  0.00  0.00    +0.004 A 
ENDBRANCH  10  17
ENDBRANCH   9  10
ENDBRANCH   8   9
ENDBRANCH   2   8
ENDBRANCH   1   5
BRANCH   1  20
ATOM     20  C   LIG    1       25.072 -23.516   6.048  0.00  0.00    +0.226 C 
ATOM     21  N   LIG    1       25.264 -24.690   6.779  0.00  0.00    -0.285 N 
ATOM     22  H   LIG    1       25.351 -24.588   7.783  0.00  0.00    +0.155 HD
ATOM     23  O   LIG    1       24.841 -23.458   4.842  0.00  0.00    -0.275 OA
BRANCH  21  24
ATOM     24  C   LIG    1       25.339 -26.019   6.294  0.00  0.00    +0.034 A 
ATOM     25  C   LIG    1       24.806 -27.042   7.101  0.00  0.00    +0.031 A 
ATOM     26  C   LIG    1       24.850 -28.399   6.702  0.00  0.00    -0.013 A 
ATOM     27  C   LIG    1       25.446 -28.726   5.472  0.00  0.00    +0.000 A 
ATOM     28  C   LIG    1       25.474 -30.074   5.100  0.00  0.00    +0.119 A 
ATOM     29  N   LIG    1       24.964 -31.085   5.839  0.00  0.00    -0.263 NA
ATOM     30  C   LIG    1       24.397 -30.742   7.013  0.00  0.00    +0.111 A 
ATOM     31  C   LIG    1       25.978 -27.707   4.669  0.00  0.00    +0.012 A 
ATOM     32  C   LIG    1       24.321 -29.439   7.484  0.00  0.00    +0.028 A 
ATOM     33  C   LIG    1       25.921 -26.369   5.077  0.00  0.00    +0.024 A 
ENDBRANCH  21  24
ENDBRANCH   1  20
BRANCH   1  34
ATOM     34  C   LIG    1       23.797 -21.450   6.771  0.00  0.00    +0.095 C 
BRANCH  34  35
ATOM     35  N   LIG    1       22.705 -22.159   6.091  0.00  0.00    -0.329 NA
ATOM     36  H   LIG    1       22.168 -22.663   6.802  0.00  0.00    +0.118 HD
ATOM     37  H   LIG    1       22.039 -21.472   5.725  0.00  0.00    +0.118 HD
ENDBRANCH  34  35
ENDBRANCH   1  34
TORSDOF 9
ENDMDL
MODEL 7
REMARK VINA RESULT:      -9.4      3.905      8.935
REMARK  Name = *****
REMARK                            x       y       z     vdW  Elec       q    Type
REMARK                         _______ _______ _______ _____ _____    ______ ____
ROOT
ATOM      1  C   LIG    1       24.772 -29.621   6.261  0.00  0.00    +0.119 C 
ENDROOT
BRANCH   1   5
ATOM      2  C   LIG    1       25.095 -25.336   5.392  0.00  0.00    -0.010 A 
ATOM      3  C   LIG    1       24.158 -25.821   6.314  0.00  0.00    +0.007 A 
ATOM      4  C   LIG    1       24.053 -27.193   6.583  0.00  0.00    +0.005 A 
ATOM      5  C   LIG    1       24.882 -28.122   5.934  0.00  0.00    -0.034 A 
ATOM      6  C   LIG    1       25.801 -27.621   4.994  0.00  0.00    +0.005 A 
ATOM      7  C   LIG    1       25.897 -26.254   4.716  0.00  0.00    +0.007 A 
BRANCH   2   8
ATOM      8  C   LIG    1       25.177 -23.865   5.075  0.00  0.00    +0.268 C 
BRANCH   8   9
ATOM      9  O   LIG    1       25.243 -23.166   6.316  0.00  0.00    -0.456 OA
BRANCH   9  10
ATOM     10  C   LIG    1       25.758 -21.906   6.228  0.00  0.00    +0.340 C 
ATOM     11  O   LIG    1       26.854 -21.545   6.580  0.00  0.00    -0.245 OA
BRANCH  10  17
ATOM     12  C   LIG    1       22.015 -18.083   4.069  0.00  0.00    +0.044 C 
ATOM     13  C   LIG    1       22.930 -19.164   4.560  0.00  0.00    -0.050 A 
ATOM     14  C   LIG    1       22.613 -19.870   5.731  0.00  0.00    +0.007 A 
ATOM     15  C   LIG    1       23.484 -20.837   6.260  0.00  0.00    -0.036 A 
ATOM     16  C   LIG    1       23.097 -21.571   7.514  0.00  0.00    +0.044 C 
ATOM     17  C   LIG    1       24.711 -21.044   5.613  0.00  0.00    +0.062 A 
ATOM     18  C   LIG    1       24.992 -20.401   4.395  0.00  0.00    +0.015 A 
ATOM     19  C   LIG    1       24.112 -19.456   3.880  0.00  0.00    +0.004 A 
ENDBRANCH  10  17
ENDBRANCH   9  10
ENDBRANCH   8   9
ENDBRANCH   2   8
ENDBRANCH   1   5
BRANCH   1  20
ATOM     20  C   LIG    1       25.044 -29.904   7.753  0.00  0.00    +0.226 C 
ATOM     21  N   LIG    1       26.076 -29.126   8.283  0.00  0.00    -0.285 N 
ATOM     22  H   LIG    1       26.483 -28.433   7.666  0.00  0.00    +0.155 HD
ATOM     23  O   LIG    1       24.367 -30.713   8.384  0.00  0.00    -0.275 OA
BRANCH  21  24
ATOM     24  C   LIG    1       26.623 -29.172   9.589  0.00  0.00    +0.034 A 
ATOM     25  C   LIG    1       26.383 -28.077  10.440  0.00  0.00    +0.031 A 
ATOM     26  C   LIG    1       26.902 -28.032  11.755  0.00  0.00    -0.013 A 
ATOM     27  C   LIG    1       27.680 -29.109  12.215  0.00  0.00    +0.000 A 
ATOM     28  C   LIG    1       28.179 -29.041  13.520  0.00  0.00    +0.119 A 
ATOM     29  N   LIG    1       27.962 -28.014  14.372  0.00  0.00    -0.263 NA
ATOM     30  C   LIG    1       27.212 -26.996  13.905  0.00  0.00    +0.111 A 
ATOM     31  C   LIG    1       27.921 -30.200  11.367  0.00  0.00    +0.012 A 
ATOM     32  C   LIG    1       26.673 -26.955  12.627  0.00  0.00    +0.028 A 
ATOM     33  C   LIG    1       27.394 -30.230  10.070  0.00  0.00    +0.024 A 
ENDBRANCH  21  24
ENDBRANCH   1  20
BRANCH   1  34
ATOM     34  C   LIG    1       25.692 -30.511   5.380  0.00  0.00    +0.095 C 
BRANCH  34  35
ATOM     35  N   LIG    1       26.415 -31.575   6.089  0.00  0.00    -0.329 NA
ATOM     36  H   LIG    1       26.111 -32.472   5.701  0.00  0.00    +0.118 HD
ATOM     37  H   LIG    1       27.407 -31.527   5.839  0.00  0.00    +0.118 HD
ENDBRANCH  34  35
ENDBRANCH   1  34
TORSDOF 9
ENDMDL
MODEL 8
REMARK VINA RESULT:      -9.4      3.147      8.708
REMARK  Name = *****
REMARK                            x       y       z     vdW  Elec       q    Type
REMARK                         _______ _______ _______ _____ _____    ______ ____
ROOT
ATOM      1  C   LIG    1       24.532 -29.000   6.164  0.00  0.00    +0.119 C 
ENDROOT
BRANCH   1   5
ATOM      2  C   LIG    1       24.799 -24.721   5.250  0.00  0.00    -0.010 A 
ATOM      3  C   LIG    1       25.466 -25.672   4.468  0.00  0.00    +0.007 A 
ATOM      4  C   LIG    1       25.384 -27.040   4.768  0.00  0.00    +0.005 A 
ATOM      5  C   LIG    1       24.634 -27.495   5.865  0.00  0.00    -0.034 A 
ATOM      6  C   LIG    1       23.990 -26.525   6.654  0.00  0.00    +0.005 A 
ATOM      7  C   LIG    1       24.082 -25.160   6.362  0.00  0.00    +0.007 A 
BRANCH   2   8
ATOM      8  C   LIG    1       24.923 -23.249   4.950  0.00  0.00    +0.268 C 
BRANCH   8   9
ATOM      9  O   LIG    1       24.943 -22.561   6.199  0.00  0.00    -0.456 OA
BRANCH   9  10
ATOM     10  C   LIG    1       24.772 -21.212   6.104  0.00  0.00    +0.340 C 
ATOM     11  O   LIG    1       23.746 -20.627   5.856  0.00  0.00    -0.245 OA
BRANCH  10  17
ATOM     12  C   LIG    1       30.153 -19.295   6.916  0.00  0.00    +0.044 C 
ATOM     13  C   LIG    1       28.716 -19.674   6.723  0.00  0.00    -0.050 A 
ATOM     14  C   LIG    1       27.953 -20.105   7.820  0.00  0.00    +0.007 A 
ATOM     15  C   LIG    1       26.626 -20.539   7.661  0.00  0.00    -0.036 A 
ATOM     16  C   LIG    1       25.847 -20.985   8.868  0.00  0.00    +0.044 C 
ATOM     17  C   LIG    1       26.095 -20.580   6.363  0.00  0.00    +0.062 A 
ATOM     18  C   LIG    1       26.827 -20.070   5.278  0.00  0.00    +0.015 A 
ATOM     19  C   LIG    1       28.136 -19.632   5.455  0.00  0.00    +0.004 A 
ENDBRANCH  10  17
ENDBRANCH   9  10
ENDBRANCH   8   9
ENDBRANCH   2   8
ENDBRANCH   1   5
BRANCH   1  20
ATOM     20  C   LIG    1       24.749 -29.304   7.662  0.00  0.00    +0.226 C 
ATOM     21  N   LIG    1       25.966 -28.824   8.152  0.00  0.00    -0.285 N 
ATOM     22  H   LIG    1       26.533 -28.287   7.506  0.00  0.00    +0.155 HD
ATOM     23  O   LIG    1       23.890 -29.877   8.329  0.00  0.00    -0.275 OA
BRANCH  21  24
ATOM     24  C   LIG    1       26.508 -28.980   9.451  0.00  0.00    +0.034 A 
ATOM     25  C   LIG    1       26.371 -27.908  10.353  0.00  0.00    +0.031 A 
ATOM     26  C   LIG    1       26.894 -27.971  11.665  0.00  0.00    -0.013 A 
ATOM     27  C   LIG    1       27.569 -29.135  12.072  0.00  0.00    +0.000 A 
ATOM     28  C   LIG    1       28.073 -29.174  13.375  0.00  0.00    +0.119 A 
ATOM     29  N   LIG    1       27.954 -28.171  14.275  0.00  0.00    -0.263 NA
ATOM     30  C   LIG    1       27.300 -27.068  13.859  0.00  0.00    +0.111 A 
ATOM     31  C   LIG    1       27.706 -30.204  11.174  0.00  0.00    +0.012 A 
ATOM     32  C   LIG    1       26.767 -26.919  12.586  0.00  0.00    +0.028 A 
ATOM     33  C   LIG    1       27.178 -30.125   9.879  0.00  0.00    +0.024 A 
ENDBRANCH  21  24
ENDBRANCH   1  20
BRANCH   1  34
ATOM     34  C   LIG    1       25.498 -29.864   5.308  0.00  0.00    +0.095 C 
BRANCH  34  35
ATOM     35  N   LIG    1       26.111 -31.006   5.997  0.00  0.00    -0.329 NA
ATOM     36  H   LIG    1       26.274 -31.741   5.303  0.00  0.00    +0.118 HD
ATOM     37  H   LIG    1       27.054 -30.745   6.300  0.00  0.00    +0.118 HD
ENDBRANCH  34  35
ENDBRANCH   1  34
TORSDOF 9
ENDMDL
MODEL 9
REMARK VINA RESULT:      -9.1      3.295      5.652
REMARK  Name = *****
REMARK                            x       y       z     vdW  Elec       q    Type
REMARK                         _______ _______ _______ _____ _____    ______ ____
ROOT
ATOM      1  C   LIG    1       25.346 -28.251   6.398  0.00  0.00    +0.119 C 
ENDROOT
BRANCH   1   5
ATOM      2  C   LIG    1       25.943 -29.532  10.548  0.00  0.00    -0.010 A 
ATOM      3  C   LIG    1       24.921 -30.077   9.761  0.00  0.00    +0.007 A 
ATOM      4  C   LIG    1       24.729 -29.659   8.436  0.00  0.00    +0.005 A 
ATOM      5  C   LIG    1       25.553 -28.678   7.861  0.00  0.00    -0.034 A 
ATOM      6  C   LIG    1       26.560 -28.125   8.672  0.00  0.00    +0.005 A 
ATOM      7  C   LIG    1       26.744 -28.533   9.998  0.00  0.00    +0.007 A 
BRANCH   2   8
ATOM      8  C   LIG    1       26.121 -29.953  11.984  0.00  0.00    +0.268 C 
BRANCH   8   9
ATOM      9  O   LIG    1       25.817 -28.823  12.799  0.00  0.00    -0.456 OA
BRANCH   9  10
ATOM     10  C   LIG    1       24.898 -29.063  13.778  0.00  0.00    +0.340 C 
ATOM     11  O   LIG    1       25.058 -29.721  14.776  0.00  0.00    -0.245 OA
BRANCH  10  17
ATOM     12  C   LIG    1       19.902 -26.323  12.872  0.00  0.00    +0.044 C 
ATOM     13  C   LIG    1       21.229 -27.010  12.987  0.00  0.00    -0.050 A 
ATOM     14  C   LIG    1       21.328 -28.388  12.736  0.00  0.00    +0.007 A 
ATOM     15  C   LIG    1       22.541 -29.076  12.907  0.00  0.00    -0.036 A 
ATOM     16  C   LIG    1       22.598 -30.551  12.619  0.00  0.00    +0.044 C 
ATOM     17  C   LIG    1       23.645 -28.358  13.389  0.00  0.00    +0.062 A 
ATOM     18  C   LIG    1       23.571 -26.965  13.559  0.00  0.00    +0.015 A 
ATOM     19  C   LIG    1       22.365 -26.297  13.372  0.00  0.00    +0.004 A 
ENDBRANCH  10  17
ENDBRANCH   9  10
ENDBRANCH   8   9
ENDBRANCH   2   8
ENDBRANCH   1   5
BRANCH   1  20
ATOM     20  C   LIG    1       25.919 -26.844   6.125  0.00  0.00    +0.226 C 
ATOM     21  N   LIG    1       25.082 -25.814   6.562  0.00  0.00    -0.285 N 
ATOM     22  H   LIG    1       24.242 -26.092   7.055  0.00  0.00    +0.155 HD
ATOM     23  O   LIG    1       27.024 -26.692   5.609  0.00  0.00    -0.275 OA
BRANCH  21  24
ATOM     24  C   LIG    1       25.267 -24.417   6.416  0.00  0.00    +0.034 A 
ATOM     25  C   LIG    1       24.668 -23.789   5.307  0.00  0.00    +0.031 A 
ATOM     26  C   LIG    1       24.812 -22.402   5.074  0.00  0.00    -0.013 A 
ATOM     27  C   LIG    1       25.576 -21.637   5.973  0.00  0.00    +0.000 A 
ATOM     28  C   LIG    1       25.699 -20.267   5.722  0.00  0.00    +0.119 A 
ATOM     29  N   LIG    1       25.132 -19.624   4.677  0.00  0.00    -0.263 NA
ATOM     30  C   LIG    1       24.404 -20.381   3.832  0.00  0.00    +0.111 A 
ATOM     31  C   LIG    1       26.173 -22.263   7.077  0.00  0.00    +0.012 A 
ATOM     32  C   LIG    1       24.221 -21.749   3.980  0.00  0.00    +0.028 A 
ATOM     33  C   LIG    1       26.016 -23.637   7.295  0.00  0.00    +0.024 A 
ENDBRANCH  21  24
ENDBRANCH   1  20
BRANCH   1  34
ATOM     34  C   LIG    1       23.863 -28.313   5.944  0.00  0.00    +0.095 C 
BRANCH  34  35
ATOM     35  N   LIG    1       23.397 -29.623   5.469  0.00  0.00    -0.329 NA
ATOM     36  H   LIG    1       23.845 -30.342   6.044  0.00  0.00    +0.118 HD
ATOM     37  H   LIG    1       22.402 -29.722   5.689  0.00  0.00    +0.118 HD
ENDBRANCH  34  35
ENDBRANCH   1  34
TORSDOF 9
ENDMDL
