MODEL 1
REMARK VINA RESULT:      -9.1      0.000      0.000
REMARK  Name = *****
REMARK                            x       y       z     vdW  Elec       q    Type
REMARK                         _______ _______ _______ _____ _____    ______ ____
ROOT
ATOM      1  C   LIG    1       24.998 -24.068   6.747  0.00  0.00    -0.008 A 
ATOM      2  C   LIG    1       23.855 -24.819   6.474  0.00  0.00    +0.008 A 
ATOM      3  C   LIG    1       23.930 -26.221   6.331  0.00  0.00    +0.009 A 
ATOM      4  C   LIG    1       25.142 -26.940   6.421  0.00  0.00    -0.017 A 
ATOM      5  C   LIG    1       26.280 -26.131   6.571  0.00  0.00    +0.009 A 
ATOM      6  C   LIG    1       26.231 -24.719   6.654  0.00  0.00    +0.008 A 
ENDROOT
BRANCH   4   7
ATOM      7  C   LIG    1       25.158 -28.457   6.432  0.00  0.00    -0.007 A 
ATOM      8  C   LIG    1       25.456 -29.319   7.533  0.00  0.00    +0.030 A 
ATOM      9  C   LIG    1       25.493 -30.731   7.313  0.00  0.00    +0.012 A 
ATOM     10  C   LIG    1       25.263 -31.316   6.072  0.00  0.00    +0.001 A 
ATOM     11  C   LIG    1       24.950 -30.504   5.004  0.00  0.00    +0.001 A 
ATOM     12  C   LIG    1       24.883 -29.114   5.188  0.00  0.00    +0.009 A 
BRANCH   8  13
ATOM     13  C   LIG    1       25.804 -28.926   8.911  0.00  0.00    +0.205 A 
ATOM     14  N   LIG    1       26.836 -28.174   9.315  0.00  0.00    -0.133 NA
ATOM     15  N   LIG    1       26.694 -28.210  10.638  0.00  0.00    -0.176 N 
ATOM     16  H   LIG    1       27.362 -27.765  11.261  0.00  0.00    +0.214 HD
ATOM     17  N   LIG    1       25.645 -28.893  11.095  0.00  0.00    -0.049 NA
ATOM     18  N   LIG    1       25.062 -29.359  10.002  0.00  0.00    -0.108 NA
ENDBRANCH   8  13
ENDBRANCH   4   7
BRANCH   1  19
ATOM     19  C   LIG    1       24.893 -22.675   7.317  0.00  0.00    +0.270 C 
BRANCH  19  21
ATOM     20  C   LIG    1       25.978 -20.882   5.849  0.00  0.00    +0.292 C 
ATOM     21  N   LIG    1       25.913 -21.711   6.880  0.00  0.00    -0.153 N 
ATOM     22  C   LIG    1       27.041 -21.524   7.680  0.00  0.00    +0.356 C 
ATOM     23  O   LIG    1       27.338 -22.069   8.696  0.00  0.00    -0.242 OA
ATOM     24  C   LIG    1       27.879 -20.462   6.968  0.00  0.00    +0.249 C 
ATOM     25  C   LIG    1       29.258 -20.974   6.537  0.00  0.00    +0.069 C 
ATOM     26  C   LIG    1       30.256 -20.243   7.447  0.00  0.00    +0.005 C 
ATOM     27  C   LIG    1       29.414 -19.489   8.471  0.00  0.00    +0.005 C 
ATOM     28  C   LIG    1       28.131 -19.181   7.736  0.00  0.00    +0.069 C 
ATOM     29  N   LIG    1       27.026 -20.131   5.867  0.00  0.00    -0.069 NA
BRANCH  20  30
ATOM     30  C   LIG    1       25.101 -20.736   4.622  0.00  0.00    +0.128 C 
BRANCH  30  31
ATOM     31  C   LIG    1       23.585 -20.934   4.723  0.00  0.00    +0.012 C 
BRANCH  31  33
ATOM     32  C   LIG    1       22.245 -18.718   4.588  0.00  0.00    +0.004 C 
ATOM     33  C   LIG    1       22.810 -19.832   5.442  0.00  0.00    -0.003 C 
ENDBRANCH  31  33
ENDBRANCH  30  31
ENDBRANCH  20  30
ENDBRANCH  19  21
ENDBRANCH   1  19
TORSDOF 7
ENDMDL
MODEL 2
REMARK VINA RESULT:      -8.6      1.661      3.830
REMARK  Name = *****
REMARK                            x       y       z     vdW  Elec       q    Type
REMARK                         _______ _______ _______ _____ _____    ______ ____
ROOT
ATOM      1  C   LIG    1       25.135 -25.366   5.601  0.00  0.00    -0.008 A 
ATOM      2  C   LIG    1       26.343 -25.907   6.041  0.00  0.00    +0.008 A 
ATOM      3  C   LIG    1       26.388 -27.190   6.626  0.00  0.00    +0.009 A 
ATOM      4  C   LIG    1       25.238 -27.983   6.832  0.00  0.00    -0.017 A 
ATOM      5  C   LIG    1       24.033 -27.348   6.490  0.00  0.00    +0.009 A 
ATOM      6  C   LIG    1       23.963 -26.037   5.959  0.00  0.00    +0.008 A 
ENDROOT
BRANCH   4   7
ATOM      7  C   LIG    1       25.348 -29.420   7.306  0.00  0.00    -0.007 A 
ATOM      8  C   LIG    1       25.701 -29.884   8.611  0.00  0.00    +0.030 A 
ATOM      9  C   LIG    1       25.826 -31.291   8.833  0.00  0.00    +0.012 A 
ATOM     10  C   LIG    1       25.629 -32.241   7.835  0.00  0.00    +0.001 A 
ATOM     11  C   LIG    1       25.264 -31.815   6.577  0.00  0.00    +0.001 A 
ATOM     12  C   LIG    1       25.112 -30.442   6.329  0.00  0.00    +0.009 A 
BRANCH   8  13
ATOM     13  C   LIG    1       26.027 -29.068   9.796  0.00  0.00    +0.205 A 
ATOM     14  N   LIG    1       27.067 -28.241   9.963  0.00  0.00    -0.133 NA
ATOM     15  N   LIG    1       26.894 -27.841  11.220  0.00  0.00    -0.176 N 
ATOM     16  H   LIG    1       27.558 -27.227  11.683  0.00  0.00    +0.214 HD
ATOM     17  N   LIG    1       25.819 -28.322  11.844  0.00  0.00    -0.049 NA
ATOM     18  N   LIG    1       25.250 -29.110  10.946  0.00  0.00    -0.108 NA
ENDBRANCH   8  13
ENDBRANCH   4   7
BRANCH   1  19
ATOM     19  C   LIG    1       25.109 -24.226   4.613  0.00  0.00    +0.270 C 
BRANCH  19  21
ATOM     20  C   LIG    1       25.108 -22.320   6.320  0.00  0.00    +0.292 C 
ATOM     21  N   LIG    1       24.823 -22.892   5.160  0.00  0.00    -0.153 N 
ATOM     22  C   LIG    1       24.181 -21.960   4.343  0.00  0.00    +0.356 C 
ATOM     23  O   LIG    1       23.782 -22.089   3.229  0.00  0.00    -0.242 OA
ATOM     24  C   LIG    1       24.052 -20.693   5.187  0.00  0.00    +0.249 C 
ATOM     25  C   LIG    1       22.597 -20.282   5.437  0.00  0.00    +0.069 C 
ATOM     26  C   LIG    1       22.401 -18.996   4.620  0.00  0.00    +0.005 C 
ATOM     27  C   LIG    1       23.677 -18.822   3.802  0.00  0.00    +0.005 C 
ATOM     28  C   LIG    1       24.749 -19.458   4.655  0.00  0.00    +0.069 C 
ATOM     29  N   LIG    1       24.743 -21.085   6.379  0.00  0.00    -0.069 NA
BRANCH  20  30
ATOM     30  C   LIG    1       25.686 -22.884   7.601  0.00  0.00    +0.128 C 
BRANCH  30  31
ATOM     31  C   LIG    1       26.653 -22.052   8.450  0.00  0.00    +0.012 C 
BRANCH  31  33
ATOM     32  C   LIG    1       28.065 -20.083   7.526  0.00  0.00    +0.004 C 
ATOM     33  C   LIG    1       27.922 -21.573   7.748  0.00  0.00    -0.003 C 
ENDBRANCH  31  33
ENDBRANCH  30  31
ENDBRANCH  20  30
ENDBRANCH  19  21
ENDBRANCH   1  19
TORSDOF 7
ENDMDL
MODEL 3
REMARK VINA RESULT:      -8.6      4.015      6.233
REMARK  Name = *****
REMARK                            x       y       z     vdW  Elec       q    Type
REMARK                         _______ _______ _______ _____ _____    ______ ____
ROOT
ATOM      1  C   LIG    1       28.395 -21.293   8.087  0.00  0.00    -0.008 A 
ATOM      2  C   LIG    1       27.926 -22.353   7.310  0.00  0.00    +0.008 A 
ATOM      3  C   LIG    1       26.603 -22.358   6.821  0.00  0.00    +0.009 A 
ATOM      4  C   LIG    1       25.674 -21.333   7.102  0.00  0.00    -0.017 A 
ATOM      5  C   LIG    1       26.150 -20.353   7.989  0.00  0.00    +0.009 A 
ATOM      6  C   LIG    1       27.455 -20.364   8.539  0.00  0.00    +0.008 A 
ENDROOT
BRANCH   4   7
ATOM      7  C   LIG    1       24.319 -21.290   6.420  0.00  0.00    -0.007 A 
ATOM      8  C   LIG    1       23.592 -22.383   5.855  0.00  0.00    +0.030 A 
ATOM      9  C   LIG    1       22.359 -22.116   5.182  0.00  0.00    +0.012 A 
ATOM     10  C   LIG    1       21.828 -20.838   5.040  0.00  0.00    +0.001 A 
ATOM     11  C   LIG    1       22.502 -19.774   5.600  0.00  0.00    +0.001 A 
ATOM     12  C   LIG    1       23.705 -20.001   6.285  0.00  0.00    +0.009 A 
BRANCH   8  13
ATOM     13  C   LIG    1       23.990 -23.802   5.817  0.00  0.00    +0.205 A 
ATOM     14  N   LIG    1       24.915 -24.376   5.036  0.00  0.00    -0.133 NA
ATOM     15  N   LIG    1       24.799 -25.657   5.377  0.00  0.00    -0.176 N 
ATOM     16  H   LIG    1       25.341 -26.384   4.920  0.00  0.00    +0.214 HD
ATOM     17  N   LIG    1       23.904 -25.930   6.326  0.00  0.00    -0.049 NA
ATOM     18  N   LIG    1       23.376 -24.753   6.621  0.00  0.00    -0.108 NA
ENDBRANCH   8  13
ENDBRANCH   4   7
BRANCH   1  19
ATOM     19  C   LIG    1       29.874 -21.050   8.256  0.00  0.00    +0.270 C 
BRANCH  19  21
ATOM     20  C   LIG    1       30.326 -18.705   7.337  0.00  0.00    +0.292 C 
ATOM     21  N   LIG    1       30.309 -19.646   8.269  0.00  0.00    -0.153 N 
ATOM     22  C   LIG    1       30.752 -19.096   9.473  0.00  0.00    +0.356 C 
ATOM     23  O   LIG    1       30.866 -19.616  10.538  0.00  0.00    -0.242 OA
ATOM     24  C   LIG    1       31.105 -17.643   9.156  0.00  0.00    +0.249 C 
ATOM     25  C   LIG    1       32.585 -17.320   9.391  0.00  0.00    +0.069 C 
ATOM     26  C   LIG    1       32.600 -16.392  10.614  0.00  0.00    +0.005 C 
ATOM     27  C   LIG    1       31.167 -16.366  11.138  0.00  0.00    +0.005 C 
ATOM     28  C   LIG    1       30.322 -16.584   9.904  0.00  0.00    +0.069 C 
ATOM     29  N   LIG    1       30.717 -17.559   7.781  0.00  0.00    -0.069 NA
BRANCH  20  30
ATOM     30  C   LIG    1       30.066 -18.765   5.846  0.00  0.00    +0.128 C 
BRANCH  30  31
ATOM     31  C   LIG    1       28.700 -18.364   5.279  0.00  0.00    +0.012 C 
BRANCH  31  33
ATOM     32  C   LIG    1       26.472 -19.159   4.217  0.00  0.00    +0.004 C 
ATOM     33  C   LIG    1       27.742 -19.510   4.960  0.00  0.00    -0.003 C 
ENDBRANCH  31  33
ENDBRANCH  30  31
ENDBRANCH  20  30
ENDBRANCH  19  21
ENDBRANCH   1  19
TORSDOF 7
ENDMDL
MODEL 4
REMARK VINA RESULT:      -8.3      2.479      9.088
REMARK  Name = *****
REMARK                            x       y       z     vdW  Elec       q    Type
REMARK                         _______ _______ _______ _____ _____    ______ ____
ROOT
ATOM      1  C   LIG    1       25.271 -26.764   6.417  0.00  0.00    -0.008 A 
ATOM      2  C   LIG    1       23.941 -26.349   6.489  0.00  0.00    +0.008 A 
ATOM      3  C   LIG    1       23.607 -24.981   6.413  0.00  0.00    +0.009 A 
ATOM      4  C   LIG    1       24.575 -23.958   6.295  0.00  0.00    -0.017 A 
ATOM      5  C   LIG    1       25.902 -24.413   6.353  0.00  0.00    +0.009 A 
ATOM      6  C   LIG    1       26.256 -25.777   6.491  0.00  0.00    +0.008 A 
ENDROOT
BRANCH   4   7
ATOM      7  C   LIG    1       24.170 -22.518   6.045  0.00  0.00    -0.007 A 
ATOM      8  C   LIG    1       24.907 -21.335   6.366  0.00  0.00    +0.030 A 
ATOM      9  C   LIG    1       24.309 -20.061   6.119  0.00  0.00    +0.012 A 
ATOM     10  C   LIG    1       23.033 -19.908   5.586  0.00  0.00    +0.001 A 
ATOM     11  C   LIG    1       22.316 -21.034   5.247  0.00  0.00    +0.001 A 
ATOM     12  C   LIG    1       22.881 -22.302   5.456  0.00  0.00    +0.009 A 
BRANCH   8  13
ATOM     13  C   LIG    1       26.235 -21.252   7.003  0.00  0.00    +0.205 A 
ATOM     14  N   LIG    1       27.400 -20.917   6.433  0.00  0.00    -0.133 NA
ATOM     15  N   LIG    1       28.251 -21.078   7.443  0.00  0.00    -0.176 N 
ATOM     16  H   LIG    1       29.251 -20.947   7.326  0.00  0.00    +0.214 HD
ATOM     17  N   LIG    1       27.715 -21.455   8.603  0.00  0.00    -0.049 NA
ATOM     18  N   LIG    1       26.423 -21.571   8.341  0.00  0.00    -0.108 NA
ENDBRANCH   8  13
ENDBRANCH   4   7
BRANCH   1  19
ATOM     19  C   LIG    1       25.621 -28.190   6.068  0.00  0.00    +0.270 C 
BRANCH  19  21
ATOM     20  C   LIG    1       25.771 -29.180   8.423  0.00  0.00    +0.292 C 
ATOM     21  N   LIG    1       25.453 -29.185   7.137  0.00  0.00    -0.153 N 
ATOM     22  C   LIG    1       24.785 -30.375   6.843  0.00  0.00    +0.356 C 
ATOM     23  O   LIG    1       24.332 -30.742   5.805  0.00  0.00    -0.242 OA
ATOM     24  C   LIG    1       24.762 -31.168   8.149  0.00  0.00    +0.249 C 
ATOM     25  C   LIG    1       25.511 -32.502   8.054  0.00  0.00    +0.069 C 
ATOM     26  C   LIG    1       24.416 -33.578   8.121  0.00  0.00    +0.005 C 
ATOM     27  C   LIG    1       23.089 -32.828   8.069  0.00  0.00    +0.005 C 
ATOM     28  C   LIG    1       23.395 -31.495   8.712  0.00  0.00    +0.069 C 
ATOM     29  N   LIG    1       25.375 -30.236   9.047  0.00  0.00    -0.069 NA
BRANCH  20  30
ATOM     30  C   LIG    1       26.593 -28.213   9.249  0.00  0.00    +0.128 C 
BRANCH  30  31
ATOM     31  C   LIG    1       27.066 -28.599  10.655  0.00  0.00    +0.012 C 
BRANCH  31  33
ATOM     32  C   LIG    1       25.611 -27.871  12.674  0.00  0.00    +0.004 C 
ATOM     33  C   LIG    1       26.784 -27.585  11.761  0.00  0.00    -0.003 C 
ENDBRANCH  31  33
ENDBRANCH  30  31
ENDBRANCH  20  30
ENDBRANCH  19  21
ENDBRANCH   1  19
TORSDOF 7
ENDMDL
MODEL 5
REMARK VINA RESULT:      -8.2      2.318      8.807
REMARK  Name = *****
REMARK                            x       y       z     vdW  Elec       q    Type
REMARK                         _______ _______ _______ _____ _____    ______ ____
ROOT
ATOM      1  C   LIG    1       25.329 -26.233   6.617  0.00  0.00    -0.008 A 
ATOM      2  C   LIG    1       23.964 -26.001   6.442  0.00  0.00    +0.008 A 
ATOM      3  C   LIG    1       23.471 -24.690   6.278  0.00  0.00    +0.009 A 
ATOM      4  C   LIG    1       24.299 -23.546   6.310  0.00  0.00    -0.017 A 
ATOM      5  C   LIG    1       25.643 -23.818   6.614  0.00  0.00    +0.009 A 
ATOM      6  C   LIG    1       26.145 -25.122   6.843  0.00  0.00    +0.008 A 
ENDROOT
BRANCH   4   7
ATOM      7  C   LIG    1       23.757 -22.173   5.961  0.00  0.00    -0.007 A 
ATOM      8  C   LIG    1       24.275 -20.902   6.363  0.00  0.00    +0.030 A 
ATOM      9  C   LIG    1       23.565 -19.719   5.989  0.00  0.00    +0.012 A 
ATOM     10  C   LIG    1       22.382 -19.738   5.256  0.00  0.00    +0.001 A 
ATOM     11  C   LIG    1       21.880 -20.952   4.839  0.00  0.00    +0.001 A 
ATOM     12  C   LIG    1       22.562 -22.132   5.169  0.00  0.00    +0.009 A 
BRANCH   8  13
ATOM     13  C   LIG    1       25.461 -20.641   7.199  0.00  0.00    +0.205 A 
ATOM     14  N   LIG    1       26.706 -20.360   6.794  0.00  0.00    -0.133 NA
ATOM     15  N   LIG    1       27.358 -20.293   7.952  0.00  0.00    -0.176 N 
ATOM     16  H   LIG    1       28.361 -20.138   7.994  0.00  0.00    +0.214 HD
ATOM     17  N   LIG    1       26.622 -20.478   9.048  0.00  0.00    -0.049 NA
ATOM     18  N   LIG    1       25.403 -20.701   8.585  0.00  0.00    -0.108 NA
ENDBRANCH   8  13
ENDBRANCH   4   7
BRANCH   1  19
ATOM     19  C   LIG    1       25.922 -27.598   6.369  0.00  0.00    +0.270 C 
BRANCH  19  21
ATOM     20  C   LIG    1       24.854 -29.783   7.164  0.00  0.00    +0.292 C 
ATOM     21  N   LIG    1       25.540 -28.659   7.311  0.00  0.00    -0.153 N 
ATOM     22  C   LIG    1       25.996 -28.578   8.628  0.00  0.00    +0.356 C 
ATOM     23  O   LIG    1       26.654 -27.730   9.142  0.00  0.00    -0.242 OA
ATOM     24  C   LIG    1       25.450 -29.821   9.330  0.00  0.00    +0.249 C 
ATOM     25  C   LIG    1       24.499 -29.489  10.486  0.00  0.00    +0.069 C 
ATOM     26  C   LIG    1       25.265 -29.885  11.756  0.00  0.00    +0.005 C 
ATOM     27  C   LIG    1       26.674 -30.252  11.299  0.00  0.00    +0.005 C 
ATOM     28  C   LIG    1       26.478 -30.778   9.896  0.00  0.00    +0.069 C 
ATOM     29  N   LIG    1       24.807 -30.492   8.240  0.00  0.00    -0.069 NA
BRANCH  20  30
ATOM     30  C   LIG    1       24.046 -30.320   6.002  0.00  0.00    +0.128 C 
BRANCH  30  31
ATOM     31  C   LIG    1       23.718 -31.814   5.908  0.00  0.00    +0.012 C 
BRANCH  31  33
ATOM     32  C   LIG    1       25.826 -32.012   4.410  0.00  0.00    +0.004 C 
ATOM     33  C   LIG    1       24.788 -32.698   5.273  0.00  0.00    -0.003 C 
ENDBRANCH  31  33
ENDBRANCH  30  31
ENDBRANCH  20  30
ENDBRANCH  19  21
ENDBRANCH   1  19
TORSDOF 7
ENDMDL
MODEL 6
REMARK VINA RESULT:      -8.2      1.284      3.717
REMARK  Name = *****
REMARK                            x       y       z     vdW  Elec       q    Type
REMARK                         _______ _______ _______ _____ _____    ______ ____
ROOT
ATOM      1  C   LIG    1       24.907 -24.353   6.793  0.00  0.00    -0.008 A 
ATOM      2  C   LIG    1       23.855 -25.157   6.355  0.00  0.00    +0.008 A 
ATOM      3  C   LIG    1       24.020 -26.551   6.218  0.00  0.00    +0.009 A 
ATOM      4  C   LIG    1       25.242 -27.210   6.479  0.00  0.00    -0.017 A 
ATOM      5  C   LIG    1       26.305 -26.348   6.795  0.00  0.00    +0.009 A 
ATOM      6  C   LIG    1       26.172 -24.940   6.876  0.00  0.00    +0.008 A 
ENDROOT
BRANCH   4   7
ATOM      7  C   LIG    1       25.333 -28.724   6.485  0.00  0.00    -0.007 A 
ATOM      8  C   LIG    1       25.598 -29.578   7.601  0.00  0.00    +0.030 A 
ATOM      9  C   LIG    1       25.722 -30.985   7.379  0.00  0.00    +0.012 A 
ATOM     10  C   LIG    1       25.605 -31.572   6.123  0.00  0.00    +0.001 A 
ATOM     11  C   LIG    1       25.324 -30.769   5.039  0.00  0.00    +0.001 A 
ATOM     12  C   LIG    1       25.176 -29.386   5.224  0.00  0.00    +0.009 A 
BRANCH   8  13
ATOM     13  C   LIG    1       25.833 -29.178   9.001  0.00  0.00    +0.205 A 
ATOM     14  N   LIG    1       26.859 -28.472   9.493  0.00  0.00    -0.133 NA
ATOM     15  N   LIG    1       26.589 -28.476  10.796  0.00  0.00    -0.176 N 
ATOM     16  H   LIG    1       27.217 -28.054  11.474  0.00  0.00    +0.214 HD
ATOM     17  N   LIG    1       25.467 -29.097  11.159  0.00  0.00    -0.049 NA
ATOM     18  N   LIG    1       24.968 -29.553  10.020  0.00  0.00    -0.108 NA
ENDBRANCH   8  13
ENDBRANCH   4   7
BRANCH   1  19
ATOM     19  C   LIG    1       24.651 -22.973   7.348  0.00  0.00    +0.270 C 
BRANCH  19  21
ATOM     20  C   LIG    1       25.987 -21.125   6.187  0.00  0.00    +0.292 C 
ATOM     21  N   LIG    1       24.905 -21.846   6.440  0.00  0.00    -0.153 N 
ATOM     22  C   LIG    1       23.875 -21.423   5.597  0.00  0.00    +0.356 C 
ATOM     23  O   LIG    1       22.760 -21.831   5.513  0.00  0.00    -0.242 OA
ATOM     24  C   LIG    1       24.458 -20.268   4.782  0.00  0.00    +0.249 C 
ATOM     25  C   LIG    1       23.729 -18.940   5.016  0.00  0.00    +0.069 C 
ATOM     26  C   LIG    1       22.987 -18.657   3.702  0.00  0.00    +0.005 C 
ATOM     27  C   LIG    1       23.168 -19.904   2.842  0.00  0.00    +0.005 C 
ATOM     28  C   LIG    1       24.502 -20.462   3.281  0.00  0.00    +0.069 C 
ATOM     29  N   LIG    1       25.813 -20.262   5.245  0.00  0.00    -0.069 NA
BRANCH  20  30
ATOM     30  C   LIG    1       27.338 -21.071   6.869  0.00  0.00    +0.128 C 
BRANCH  30  31
ATOM     31  C   LIG    1       28.464 -20.204   6.297  0.00  0.00    +0.012 C 
BRANCH  31  33
ATOM     32  C   LIG    1       30.809 -19.274   6.898  0.00  0.00    +0.004 C 
ATOM     33  C   LIG    1       29.377 -19.529   7.318  0.00  0.00    -0.003 C 
ENDBRANCH  31  33
ENDBRANCH  30  31
ENDBRANCH  20  30
ENDBRANCH  19  21
ENDBRANCH   1  19
TORSDOF 7
ENDMDL
MODEL 7
REMARK VINA RESULT:      -8.2      2.990      9.218
REMARK  Name = *****
REMARK                            x       y       z     vdW  Elec       q    Type
REMARK                         _______ _______ _______ _____ _____    ______ ____
ROOT
ATOM      1  C   LIG    1       25.249 -27.348   5.948  0.00  0.00    -0.008 A 
ATOM      2  C   LIG    1       26.441 -26.626   5.887  0.00  0.00    +0.008 A 
ATOM      3  C   LIG    1       26.475 -25.261   6.241  0.00  0.00    +0.009 A 
ATOM      4  C   LIG    1       25.328 -24.540   6.642  0.00  0.00    -0.017 A 
ATOM      5  C   LIG    1       24.133 -25.274   6.566  0.00  0.00    +0.009 A 
ATOM      6  C   LIG    1       24.071 -26.627   6.154  0.00  0.00    +0.008 A 
ENDROOT
BRANCH   4   7
ATOM      7  C   LIG    1       25.435 -23.125   7.176  0.00  0.00    -0.007 A 
ATOM      8  C   LIG    1       24.472 -22.074   7.064  0.00  0.00    +0.030 A 
ATOM      9  C   LIG    1       24.802 -20.779   7.571  0.00  0.00    +0.012 A 
ATOM     10  C   LIG    1       26.024 -20.481   8.167  0.00  0.00    +0.001 A 
ATOM     11  C   LIG    1       26.956 -21.487   8.307  0.00  0.00    +0.001 A 
ATOM     12  C   LIG    1       26.658 -22.776   7.839  0.00  0.00    +0.009 A 
BRANCH   8  13
ATOM     13  C   LIG    1       23.151 -22.134   6.411  0.00  0.00    +0.205 A 
ATOM     14  N   LIG    1       22.156 -22.998   6.649  0.00  0.00    -0.133 NA
ATOM     15  N   LIG    1       21.257 -22.631   5.738  0.00  0.00    -0.176 N 
ATOM     16  H   LIG    1       20.382 -23.132   5.618  0.00  0.00    +0.214 HD
ATOM     17  N   LIG    1       21.592 -21.594   4.971  0.00  0.00    -0.049 NA
ATOM     18  N   LIG    1       22.803 -21.261   5.389  0.00  0.00    -0.108 NA
ENDBRANCH   8  13
ENDBRANCH   4   7
BRANCH   1  19
ATOM     19  C   LIG    1       25.258 -28.857   5.995  0.00  0.00    +0.270 C 
BRANCH  19  21
ATOM     20  C   LIG    1       25.488 -29.193   8.521  0.00  0.00    +0.292 C 
ATOM     21  N   LIG    1       25.029 -29.472   7.310  0.00  0.00    -0.153 N 
ATOM     22  C   LIG    1       24.117 -30.525   7.404  0.00  0.00    +0.356 C 
ATOM     23  O   LIG    1       23.487 -31.049   6.542  0.00  0.00    -0.242 OA
ATOM     24  C   LIG    1       24.095 -30.919   8.881  0.00  0.00    +0.249 C 
ATOM     25  C   LIG    1       24.561 -32.358   9.126  0.00  0.00    +0.069 C 
ATOM     26  C   LIG    1       23.297 -33.116   9.558  0.00  0.00    +0.005 C 
ATOM     27  C   LIG    1       22.139 -32.141   9.371  0.00  0.00    +0.005 C 
ATOM     28  C   LIG    1       22.764 -30.783   9.591  0.00  0.00    +0.069 C 
ATOM     29  N   LIG    1       24.972 -29.935   9.441  0.00  0.00    -0.069 NA
BRANCH  20  30
ATOM     30  C   LIG    1       26.567 -28.241   8.990  0.00  0.00    +0.128 C 
BRANCH  30  31
ATOM     31  C   LIG    1       27.247 -28.444  10.348  0.00  0.00    +0.012 C 
BRANCH  31  33
ATOM     32  C   LIG    1       25.840 -28.105  12.500  0.00  0.00    +0.004 C 
ATOM     33  C   LIG    1       26.787 -27.521  11.474  0.00  0.00    -0.003 C 
ENDBRANCH  31  33
ENDBRANCH  30  31
ENDBRANCH  20  30
ENDBRANCH  19  21
ENDBRANCH   1  19
TORSDOF 7
ENDMDL
MODEL 8
REMARK VINA RESULT:      -7.9      5.235      9.114
REMARK  Name = *****
REMARK                            x       y       z     vdW  Elec       q    Type
REMARK                         _______ _______ _______ _____ _____    ______ ____
ROOT
ATOM      1  C   LIG    1       26.363 -30.523  10.069  0.00  0.00    -0.008 A 
ATOM      2  C   LIG    1       25.205 -30.957  10.714  0.00  0.00    +0.008 A 
ATOM      3  C   LIG    1       24.522 -30.114  11.615  0.00  0.00    +0.009 A 
ATOM      4  C   LIG    1       24.969 -28.814  11.943  0.00  0.00    -0.017 A 
ATOM      5  C   LIG    1       26.203 -28.469  11.368  0.00  0.00    +0.009 A 
ATOM      6  C   LIG    1       26.934 -29.327  10.510  0.00  0.00    +0.008 A 
ENDROOT
BRANCH   4   7
ATOM      7  C   LIG    1       24.120 -27.878  12.781  0.00  0.00    -0.007 A 
ATOM      8  C   LIG    1       24.557 -26.756  13.553  0.00  0.00    +0.030 A 
ATOM      9  C   LIG    1       23.600 -26.046  14.341  0.00  0.00    +0.012 A 
ATOM     10  C   LIG    1       22.255 -26.395  14.406  0.00  0.00    +0.001 A 
ATOM     11  C   LIG    1       21.809 -27.458  13.650  0.00  0.00    +0.001 A 
ATOM     12  C   LIG    1       22.717 -28.165  12.848  0.00  0.00    +0.009 A 
BRANCH   8  13
ATOM     13  C   LIG    1       25.935 -26.251  13.697  0.00  0.00    +0.205 A 
ATOM     14  N   LIG    1       26.936 -26.785  14.409  0.00  0.00    -0.133 NA
ATOM     15  N   LIG    1       27.901 -25.885  14.234  0.00  0.00    -0.176 N 
ATOM     16  H   LIG    1       28.803 -25.971  14.694  0.00  0.00    +0.214 HD
ATOM     17  N   LIG    1       27.601 -24.851  13.450  0.00  0.00    -0.049 NA
ATOM     18  N   LIG    1       26.344 -25.068  13.096  0.00  0.00    -0.108 NA
ENDBRANCH   8  13
ENDBRANCH   4   7
BRANCH   1  19
ATOM     19  C   LIG    1       26.857 -31.207   8.818  0.00  0.00    +0.270 C 
BRANCH  19  21
ATOM     20  C   LIG    1       25.236 -30.212   7.106  0.00  0.00    +0.292 C 
ATOM     21  N   LIG    1       25.956 -31.178   7.657  0.00  0.00    -0.153 N 
ATOM     22  C   LIG    1       25.817 -32.337   6.891  0.00  0.00    +0.356 C 
ATOM     23  O   LIG    1       26.315 -33.406   7.053  0.00  0.00    -0.242 OA
ATOM     24  C   LIG    1       24.844 -31.975   5.769  0.00  0.00    +0.249 C 
ATOM     25  C   LIG    1       23.556 -32.804   5.801  0.00  0.00    +0.069 C 
ATOM     26  C   LIG    1       23.641 -33.719   4.570  0.00  0.00    +0.005 C 
ATOM     27  C   LIG    1       25.037 -33.512   3.991  0.00  0.00    +0.005 C 
ATOM     28  C   LIG    1       25.378 -32.086   4.356  0.00  0.00    +0.069 C 
ATOM     29  N   LIG    1       24.631 -30.583   6.029  0.00  0.00    -0.069 NA
BRANCH  20  30
ATOM     30  C   LIG    1       24.926 -28.804   7.568  0.00  0.00    +0.128 C 
BRANCH  30  31
ATOM     31  C   LIG    1       25.990 -27.705   7.478  0.00  0.00    +0.012 C 
BRANCH  31  33
ATOM     32  C   LIG    1       24.283 -26.417   6.012  0.00  0.00    +0.004 C 
ATOM     33  C   LIG    1       25.712 -26.580   6.484  0.00  0.00    -0.003 C 
ENDBRANCH  31  33
ENDBRANCH  30  31
ENDBRANCH  20  30
ENDBRANCH  19  21
ENDBRANCH   1  19
TORSDOF 7
ENDMDL
MODEL 9
REMARK VINA RESULT:      -7.8      2.367      3.272
REMARK  Name = *****
REMARK                            x       y       z     vdW  Elec       q    Type
REMARK                         _______ _______ _______ _____ _____    ______ ____
ROOT
ATOM      1  C   LIG    1       24.783 -25.323   5.017  0.00  0.00    -0.008 A 
ATOM      2  C   LIG    1       23.957 -25.656   6.091  0.00  0.00    +0.008 A 
ATOM      3  C   LIG    1       24.296 -26.713   6.961  0.00  0.00    +0.009 A 
ATOM      4  C   LIG    1       25.451 -27.509   6.792  0.00  0.00    -0.017 A 
ATOM      5  C   LIG    1       26.183 -27.220   5.630  0.00  0.00    +0.009 A 
ATOM      6  C   LIG    1       25.824 -26.203   4.712  0.00  0.00    +0.008 A 
ENDROOT
BRANCH   4   7
ATOM      7  C   LIG    1       25.869 -28.521   7.842  0.00  0.00    -0.007 A 
ATOM      8  C   LIG    1       25.640 -29.933   7.834  0.00  0.00    +0.030 A 
ATOM      9  C   LIG    1       26.048 -30.704   8.966  0.00  0.00    +0.012 A 
ATOM     10  C   LIG    1       26.653 -30.149  10.090  0.00  0.00    +0.001 A 
ATOM     11  C   LIG    1       26.904 -28.794  10.106  0.00  0.00    +0.001 A 
ATOM     12  C   LIG    1       26.537 -28.009   9.003  0.00  0.00    +0.009 A 
BRANCH   8  13
ATOM     13  C   LIG    1       24.955 -30.724   6.795  0.00  0.00    +0.205 A 
ATOM     14  N   LIG    1       25.419 -31.072   5.588  0.00  0.00    -0.133 NA
ATOM     15  N   LIG    1       24.369 -31.704   5.068  0.00  0.00    -0.176 N 
ATOM     16  H   LIG    1       24.376 -32.059   4.116  0.00  0.00    +0.214 HD
ATOM     17  N   LIG    1       23.300 -31.808   5.856  0.00  0.00    -0.049 NA
ATOM     18  N   LIG    1       23.658 -31.186   6.969  0.00  0.00    -0.108 NA
ENDBRANCH   8  13
ENDBRANCH   4   7
BRANCH   1  19
ATOM     19  C   LIG    1       24.682 -23.974   4.349  0.00  0.00    +0.270 C 
BRANCH  19  21
ATOM     20  C   LIG    1       23.908 -21.741   5.332  0.00  0.00    +0.292 C 
ATOM     21  N   LIG    1       24.696 -22.802   5.237  0.00  0.00    -0.153 N 
ATOM     22  C   LIG    1       25.657 -22.741   6.247  0.00  0.00    +0.356 C 
ATOM     23  O   LIG    1       26.530 -23.512   6.499  0.00  0.00    -0.242 OA
ATOM     24  C   LIG    1       25.391 -21.432   6.990  0.00  0.00    +0.249 C 
ATOM     25  C   LIG    1       26.566 -20.451   6.917  0.00  0.00    +0.069 C 
ATOM     26  C   LIG    1       27.137 -20.406   8.342  0.00  0.00    +0.005 C 
ATOM     27  C   LIG    1       26.394 -21.485   9.124  0.00  0.00    +0.005 C 
ATOM     28  C   LIG    1       25.040 -21.554   8.458  0.00  0.00    +0.069 C 
ATOM     29  N   LIG    1       24.219 -20.966   6.314  0.00  0.00    -0.069 NA
BRANCH  20  30
ATOM     30  C   LIG    1       22.791 -21.239   4.442  0.00  0.00    +0.128 C 
BRANCH  30  31
ATOM     31  C   LIG    1       22.035 -19.954   4.794  0.00  0.00    +0.012 C 
BRANCH  31  33
ATOM     32  C   LIG    1       23.986 -18.716   3.616  0.00  0.00    +0.004 C 
ATOM     33  C   LIG    1       22.588 -18.663   4.195  0.00  0.00    -0.003 C 
ENDBRANCH  31  33
ENDBRANCH  30  31
ENDBRANCH  20  30
ENDBRANCH  19  21
ENDBRANCH   1  19
TORSDOF 7
ENDMDL
