MODEL 1
REMARK VINA RESULT:      -5.2      0.000      0.000
REMARK  Name = *****
REMARK                            x       y       z     vdW  Elec       q    Type
REMARK                         _______ _______ _______ _____ _____    ______ ____
ROOT
ATOM      1  C   LIG    1       25.942 -20.656   8.175  0.00  0.00    +0.117 A 
ATOM      2  C   LIG    1       24.788 -20.802   7.410  0.00  0.00    +0.049 A 
ATOM      3  C   LIG    1       24.860 -20.665   6.024  0.00  0.00    +0.049 A 
ATOM      4  C   LIG    1       26.082 -20.384   5.423  0.00  0.00    +0.117 A 
ATOM      5  C   LIG    1       27.241 -20.247   6.186  0.00  0.00    +0.049 A 
ATOM      6  C   LIG    1       27.169 -20.385   7.574  0.00  0.00    +0.049 A 
ENDROOT
BRANCH   1   7
ATOM      7  O   LIG    1       25.825 -20.784   9.527  0.00  0.00    -0.507 OA
ATOM      8  H   LIG    1       26.704 -20.673   9.926  0.00  0.00    +0.292 HD
ENDBRANCH   1   7
BRANCH   4   9
ATOM      9  O   LIG    1       26.105 -20.242   4.067  0.00  0.00    -0.507 OA
ATOM     10  H   LIG    1       26.830 -20.781   3.711  0.00  0.00    +0.292 HD
ENDBRANCH   4   9
TORSDOF 2
ENDMDL
MODEL 2
REMARK VINA RESULT:      -5.2      0.145      3.659
REMARK  Name = *****
REMARK                            x       y       z     vdW  Elec       q    Type
REMARK                         _______ _______ _______ _____ _____    ______ ____
ROOT
ATOM      1  C   LIG    1       25.896 -20.414   5.396  0.00  0.00    +0.117 A 
ATOM      2  C   LIG    1       27.074 -20.275   6.123  0.00  0.00    +0.049 A 
ATOM      3  C   LIG    1       27.044 -20.402   7.511  0.00  0.00    +0.049 A 
ATOM      4  C   LIG    1       25.838 -20.665   8.152  0.00  0.00    +0.117 A 
ATOM      5  C   LIG    1       24.658 -20.815   7.425  0.00  0.00    +0.049 A 
ATOM      6  C   LIG    1       24.689 -20.689   6.034  0.00  0.00    +0.049 A 
ENDROOT
BRANCH   1   7
ATOM      7  O   LIG    1       25.967 -20.269   4.041  0.00  0.00    -0.507 OA
ATOM      8  H   LIG    1       26.901 -20.197   3.786  0.00  0.00    +0.292 HD
ENDBRANCH   1   7
BRANCH   4   9
ATOM      9  O   LIG    1       25.850 -20.767   9.512  0.00  0.00    -0.507 OA
ATOM     10  H   LIG    1       25.186 -20.159   9.875  0.00  0.00    +0.292 HD
ENDBRANCH   4   9
TORSDOF 2
ENDMDL
MODEL 3
REMARK VINA RESULT:      -5.2      0.026      3.231
REMARK  Name = *****
REMARK                            x       y       z     vdW  Elec       q    Type
REMARK                         _______ _______ _______ _____ _____    ______ ____
ROOT
ATOM      1  C   LIG    1       26.072 -20.382   5.434  0.00  0.00    +0.117 A 
ATOM      2  C   LIG    1       24.845 -20.645   6.036  0.00  0.00    +0.049 A 
ATOM      3  C   LIG    1       24.776 -20.788   7.421  0.00  0.00    +0.049 A 
ATOM      4  C   LIG    1       25.932 -20.668   8.184  0.00  0.00    +0.117 A 
ATOM      5  C   LIG    1       27.160 -20.395   7.585  0.00  0.00    +0.049 A 
ATOM      6  C   LIG    1       27.230 -20.250   6.197  0.00  0.00    +0.049 A 
ENDROOT
BRANCH   1   7
ATOM      7  O   LIG    1       26.099 -20.262   4.076  0.00  0.00    -0.507 OA
ATOM      8  H   LIG    1       25.253 -20.581   3.720  0.00  0.00    +0.292 HD
ENDBRANCH   1   7
BRANCH   4   9
ATOM      9  O   LIG    1       25.822 -20.832   9.534  0.00  0.00    -0.507 OA
ATOM     10  H   LIG    1       26.505 -21.456   9.828  0.00  0.00    +0.292 HD
ENDBRANCH   4   9
TORSDOF 2
ENDMDL
MODEL 4
REMARK VINA RESULT:      -5.2      0.094      1.715
REMARK  Name = *****
REMARK                            x       y       z     vdW  Elec       q    Type
REMARK                         _______ _______ _______ _____ _____    ______ ____
ROOT
ATOM      1  C   LIG    1       25.846 -20.682   8.160  0.00  0.00    +0.117 A 
ATOM      2  C   LIG    1       27.069 -20.407   7.555  0.00  0.00    +0.049 A 
ATOM      3  C   LIG    1       27.134 -20.263   6.169  0.00  0.00    +0.049 A 
ATOM      4  C   LIG    1       25.977 -20.397   5.409  0.00  0.00    +0.117 A 
ATOM      5  C   LIG    1       24.749 -20.662   6.014  0.00  0.00    +0.049 A 
ATOM      6  C   LIG    1       24.685 -20.804   7.402  0.00  0.00    +0.049 A 
ENDROOT
BRANCH   1   7
ATOM      7  O   LIG    1       25.829 -20.828   9.516  0.00  0.00    -0.507 OA
ATOM      8  H   LIG    1       26.631 -21.304   9.787  0.00  0.00    +0.292 HD
ENDBRANCH   1   7
BRANCH   4   9
ATOM      9  O   LIG    1       26.087 -20.265   4.057  0.00  0.00    -0.507 OA
ATOM     10  H   LIG    1       26.744 -19.576   3.864  0.00  0.00    +0.292 HD
ENDBRANCH   4   9
TORSDOF 2
ENDMDL
MODEL 5
REMARK VINA RESULT:      -5.1      3.504      4.475
REMARK  Name = *****
REMARK                            x       y       z     vdW  Elec       q    Type
REMARK                         _______ _______ _______ _____ _____    ______ ____
ROOT
ATOM      1  C   LIG    1       30.946 -20.131   8.195  0.00  0.00    +0.117 A 
ATOM      2  C   LIG    1       30.932 -19.103   7.257  0.00  0.00    +0.049 A 
ATOM      3  C   LIG    1       29.936 -19.074   6.282  0.00  0.00    +0.049 A 
ATOM      4  C   LIG    1       28.968 -20.073   6.259  0.00  0.00    +0.117 A 
ATOM      5  C   LIG    1       28.973 -21.098   7.203  0.00  0.00    +0.049 A 
ATOM      6  C   LIG    1       29.971 -21.125   8.180  0.00  0.00    +0.049 A 
ENDROOT
BRANCH   1   7
ATOM      7  O   LIG    1       31.945 -20.129   9.123  0.00  0.00    -0.507 OA
ATOM      8  H   LIG    1       31.577 -20.413   9.976  0.00  0.00    +0.292 HD
ENDBRANCH   1   7
BRANCH   4   9
ATOM      9  O   LIG    1       28.021 -20.016   5.279  0.00  0.00    -0.507 OA
ATOM     10  H   LIG    1       27.368 -19.338   5.518  0.00  0.00    +0.292 HD
ENDBRANCH   4   9
TORSDOF 2
ENDMDL
MODEL 6
REMARK VINA RESULT:      -5.1      3.501      5.188
REMARK  Name = *****
REMARK                            x       y       z     vdW  Elec       q    Type
REMARK                         _______ _______ _______ _____ _____    ______ ____
ROOT
ATOM      1  C   LIG    1       28.967 -20.080   6.257  0.00  0.00    +0.117 A 
ATOM      2  C   LIG    1       29.946 -19.091   6.266  0.00  0.00    +0.049 A 
ATOM      3  C   LIG    1       30.942 -19.117   7.241  0.00  0.00    +0.049 A 
ATOM      4  C   LIG    1       30.945 -20.130   8.193  0.00  0.00    +0.117 A 
ATOM      5  C   LIG    1       29.972 -21.128   8.181  0.00  0.00    +0.049 A 
ATOM      6  C   LIG    1       28.975 -21.102   7.202  0.00  0.00    +0.049 A 
ENDROOT
BRANCH   1   7
ATOM      7  O   LIG    1       28.004 -20.010   5.294  0.00  0.00    -0.507 OA
ATOM      8  H   LIG    1       27.448 -19.233   5.468  0.00  0.00    +0.292 HD
ENDBRANCH   1   7
BRANCH   4   9
ATOM      9  O   LIG    1       31.927 -20.110   9.139  0.00  0.00    -0.507 OA
ATOM     10  H   LIG    1       32.074 -19.190   9.414  0.00  0.00    +0.292 HD
ENDBRANCH   4   9
TORSDOF 2
ENDMDL
MODEL 7
REMARK VINA RESULT:      -5.1      3.168      4.019
REMARK  Name = *****
REMARK                            x       y       z     vdW  Elec       q    Type
REMARK                         _______ _______ _______ _____ _____    ______ ____
ROOT
ATOM      1  C   LIG    1       23.966 -24.185   6.550  0.00  0.00    +0.117 A 
ATOM      2  C   LIG    1       23.027 -23.186   6.789  0.00  0.00    +0.049 A 
ATOM      3  C   LIG    1       23.429 -21.997   7.396  0.00  0.00    +0.049 A 
ATOM      4  C   LIG    1       24.761 -21.824   7.755  0.00  0.00    +0.117 A 
ATOM      5  C   LIG    1       25.705 -22.819   7.507  0.00  0.00    +0.049 A 
ATOM      6  C   LIG    1       25.302 -24.010   6.898  0.00  0.00    +0.049 A 
ENDROOT
BRANCH   1   7
ATOM      7  O   LIG    1       23.529 -25.338   5.967  0.00  0.00    -0.507 OA
ATOM      8  H   LIG    1       23.046 -25.111   5.155  0.00  0.00    +0.292 HD
ENDBRANCH   1   7
BRANCH   4   9
ATOM      9  O   LIG    1       25.109 -20.652   8.360  0.00  0.00    -0.507 OA
ATOM     10  H   LIG    1       24.449 -19.977   8.132  0.00  0.00    +0.292 HD
ENDBRANCH   4   9
TORSDOF 2
ENDMDL
MODEL 8
REMARK VINA RESULT:      -5.1      3.161      3.551
REMARK  Name = *****
REMARK                            x       y       z     vdW  Elec       q    Type
REMARK                         _______ _______ _______ _____ _____    ______ ____
ROOT
ATOM      1  C   LIG    1       24.793 -21.809   7.738  0.00  0.00    +0.117 A 
ATOM      2  C   LIG    1       23.452 -21.981   7.404  0.00  0.00    +0.049 A 
ATOM      3  C   LIG    1       23.038 -23.174   6.814  0.00  0.00    +0.049 A 
ATOM      4  C   LIG    1       23.969 -24.177   6.564  0.00  0.00    +0.117 A 
ATOM      5  C   LIG    1       25.310 -24.011   6.906  0.00  0.00    +0.049 A 
ATOM      6  C   LIG    1       25.724 -22.816   7.499  0.00  0.00    +0.049 A 
ENDROOT
BRANCH   1   7
ATOM      7  O   LIG    1       25.158 -20.622   8.302  0.00  0.00    -0.507 OA
ATOM      8  H   LIG    1       25.825 -20.796   8.987  0.00  0.00    +0.292 HD
ENDBRANCH   1   7
BRANCH   4   9
ATOM      9  O   LIG    1       23.525 -25.321   5.970  0.00  0.00    -0.507 OA
ATOM     10  H   LIG    1       24.215 -25.647   5.369  0.00  0.00    +0.292 HD
ENDBRANCH   4   9
TORSDOF 2
ENDMDL
MODEL 9
REMARK VINA RESULT:      -5.1      3.165      3.910
REMARK  Name = *****
REMARK                            x       y       z     vdW  Elec       q    Type
REMARK                         _______ _______ _______ _____ _____    ______ ____
ROOT
ATOM      1  C   LIG    1       24.710 -21.811   7.766  0.00  0.00    +0.117 A 
ATOM      2  C   LIG    1       25.646 -22.814   7.526  0.00  0.00    +0.049 A 
ATOM      3  C   LIG    1       25.241 -24.000   6.916  0.00  0.00    +0.049 A 
ATOM      4  C   LIG    1       23.908 -24.168   6.556  0.00  0.00    +0.117 A 
ATOM      5  C   LIG    1       22.972 -23.163   6.787  0.00  0.00    +0.049 A 
ATOM      6  C   LIG    1       23.378 -21.973   7.396  0.00  0.00    +0.049 A 
ENDROOT
BRANCH   1   7
ATOM      7  O   LIG    1       25.145 -20.672   8.377  0.00  0.00    -0.507 OA
ATOM      8  H   LIG    1       24.507 -19.962   8.199  0.00  0.00    +0.292 HD
ENDBRANCH   1   7
BRANCH   4   9
ATOM      9  O   LIG    1       23.552 -25.350   5.977  0.00  0.00    -0.507 OA
ATOM     10  H   LIG    1       23.720 -25.292   5.022  0.00  0.00    +0.292 HD
ENDBRANCH   4   9
TORSDOF 2
ENDMDL
