MODEL 1
REMARK VINA RESULT:      -8.3      0.000      0.000
REMARK  Name = *****
REMARK                            x       y       z     vdW  Elec       q    Type
REMARK                         _______ _______ _______ _____ _____    ______ ____
ROOT
ATOM      1  C   LIG    1       25.777 -21.166   7.769  0.00  0.00    +0.341 C 
ATOM      2  O   LIG    1       25.390 -20.531   8.742  0.00  0.00    -0.247 OA
ENDROOT
BRANCH   1   3
ATOM      3  O   LIG    1       27.080 -21.409   7.438  0.00  0.00    -0.459 OA
BRANCH   3  11
ATOM      4  C   LIG    1       29.011 -17.843   5.377  0.00  0.00    +0.007 C 
ATOM      5  C   LIG    1       29.573 -19.249   5.580  0.00  0.00    -0.010 C 
ATOM      6  C   LIG    1       30.679 -19.337   6.643  0.00  0.00    +0.010 C 
ATOM      7  C   LIG    1       30.218 -19.390   8.119  0.00  0.00    -0.031 C 
ATOM      8  C   LIG    1       31.419 -19.844   8.979  0.00  0.00    +0.011 C 
ATOM      9  C   LIG    1       29.794 -18.003   8.633  0.00  0.00    +0.011 C 
ATOM     10  C   LIG    1       29.074 -20.411   8.291  0.00  0.00    +0.051 C 
ATOM     11  C   LIG    1       27.936 -20.258   7.277  0.00  0.00    +0.177 C 
ATOM     12  C   LIG    1       28.469 -20.271   5.843  0.00  0.00    +0.048 C 
ENDBRANCH   3  11
ENDBRANCH   1   3
BRANCH   1  13
ATOM     13  C   LIG    1       24.837 -21.815   6.738  0.00  0.00    +0.253 C 
BRANCH  13  14
ATOM     14  C   LIG    1       24.284 -20.792   5.760  0.00  0.00    -0.008 A 
ATOM     15  C   LIG    1       25.016 -20.383   4.633  0.00  0.00    +0.007 A 
ATOM     16  C   LIG    1       24.496 -19.436   3.747  0.00  0.00    +0.000 A 
ATOM     17  C   LIG    1       23.231 -18.900   3.965  0.00  0.00    +0.000 A 
ATOM     18  C   LIG    1       22.482 -19.312   5.064  0.00  0.00    +0.000 A 
ATOM     19  C   LIG    1       23.003 -20.252   5.957  0.00  0.00    +0.007 A 
ENDBRANCH  13  14
BRANCH  13  20
ATOM     20  O   LIG    1       23.760 -22.505   7.373  0.00  0.00    -0.376 OA
ATOM     21  H   LIG    1       23.310 -23.010   6.670  0.00  0.00    +0.211 HD
ENDBRANCH  13  20
ENDBRANCH   1  13
TORSDOF 5
ENDMDL
MODEL 2
REMARK VINA RESULT:      -8.3      4.552      6.609
REMARK  Name = *****
REMARK                            x       y       z     vdW  Elec       q    Type
REMARK                         _______ _______ _______ _____ _____    ______ ____
ROOT
ATOM      1  C   LIG    1       24.441 -25.311   6.188  0.00  0.00    +0.341 C 
ATOM      2  O   LIG    1       23.310 -25.100   6.605  0.00  0.00    -0.247 OA
ENDROOT
BRANCH   1   3
ATOM      3  O   LIG    1       25.534 -24.519   6.398  0.00  0.00    -0.459 OA
BRANCH   3  11
ATOM      4  C   LIG    1       23.444 -20.481   6.282  0.00  0.00    +0.007 C 
ATOM      5  C   LIG    1       24.699 -20.928   5.535  0.00  0.00    -0.010 C 
ATOM      6  C   LIG    1       26.004 -20.329   6.082  0.00  0.00    +0.010 C 
ATOM      7  C   LIG    1       26.603 -21.003   7.338  0.00  0.00    -0.031 C 
ATOM      8  C   LIG    1       28.059 -20.511   7.497  0.00  0.00    +0.011 C 
ATOM      9  C   LIG    1       25.847 -20.599   8.617  0.00  0.00    +0.011 C 
ATOM     10  C   LIG    1       26.617 -22.537   7.174  0.00  0.00    +0.051 C 
ATOM     11  C   LIG    1       25.283 -23.133   6.710  0.00  0.00    +0.177 C 
ATOM     12  C   LIG    1       24.788 -22.450   5.433  0.00  0.00    +0.048 C 
ENDBRANCH   3  11
ENDBRANCH   1   3
BRANCH   1  13
ATOM     13  C   LIG    1       24.828 -26.536   5.340  0.00  0.00    +0.253 C 
BRANCH  13  14
ATOM     14  C   LIG    1       24.812 -27.815   6.160  0.00  0.00    -0.008 A 
ATOM     15  C   LIG    1       24.131 -28.962   5.719  0.00  0.00    +0.007 A 
ATOM     16  C   LIG    1       24.120 -30.128   6.488  0.00  0.00    +0.000 A 
ATOM     17  C   LIG    1       24.803 -30.170   7.700  0.00  0.00    +0.000 A 
ATOM     18  C   LIG    1       25.502 -29.049   8.142  0.00  0.00    +0.000 A 
ATOM     19  C   LIG    1       25.508 -27.879   7.378  0.00  0.00    +0.007 A 
ENDBRANCH  13  14
BRANCH  13  20
ATOM     20  O   LIG    1       26.111 -26.369   4.734  0.00  0.00    -0.376 OA
ATOM     21  H   LIG    1       26.479 -27.267   4.629  0.00  0.00    +0.211 HD
ENDBRANCH  13  20
ENDBRANCH   1  13
TORSDOF 5
ENDMDL
MODEL 3
REMARK VINA RESULT:      -8.2      2.064      6.769
REMARK  Name = *****
REMARK                            x       y       z     vdW  Elec       q    Type
REMARK                         _______ _______ _______ _____ _____    ______ ____
ROOT
ATOM      1  C   LIG    1       27.224 -21.136   8.032  0.00  0.00    +0.341 C 
ATOM      2  O   LIG    1       26.816 -20.200   8.708  0.00  0.00    -0.247 OA
ENDROOT
BRANCH   1   3
ATOM      3  O   LIG    1       26.740 -22.413   8.056  0.00  0.00    -0.459 OA
BRANCH   3  11
ATOM      4  C   LIG    1       22.960 -21.890   5.580  0.00  0.00    +0.007 C 
ATOM      5  C   LIG    1       23.159 -22.702   6.858  0.00  0.00    -0.010 C 
ATOM      6  C   LIG    1       23.191 -24.223   6.638  0.00  0.00    +0.010 C 
ATOM      7  C   LIG    1       24.526 -24.823   6.138  0.00  0.00    -0.031 C 
ATOM      8  C   LIG    1       24.466 -26.354   6.338  0.00  0.00    +0.011 C 
ATOM      9  C   LIG    1       24.734 -24.572   4.634  0.00  0.00    +0.011 C 
ATOM     10  C   LIG    1       25.709 -24.265   6.955  0.00  0.00    +0.051 C 
ATOM     11  C   LIG    1       25.714 -22.738   7.095  0.00  0.00    +0.177 C 
ATOM     12  C   LIG    1       24.380 -22.231   7.647  0.00  0.00    +0.048 C 
ENDBRANCH   3  11
ENDBRANCH   1   3
BRANCH   1  13
ATOM     13  C   LIG    1       28.374 -21.023   7.015  0.00  0.00    +0.253 C 
BRANCH  13  14
ATOM     14  C   LIG    1       29.542 -20.229   7.574  0.00  0.00    -0.008 A 
ATOM     15  C   LIG    1       29.714 -18.867   7.276  0.00  0.00    +0.007 A 
ATOM     16  C   LIG    1       30.798 -18.153   7.792  0.00  0.00    +0.000 A 
ATOM     17  C   LIG    1       31.714 -18.785   8.628  0.00  0.00    +0.000 A 
ATOM     18  C   LIG    1       31.545 -20.129   8.953  0.00  0.00    +0.000 A 
ATOM     19  C   LIG    1       30.467 -20.848   8.431  0.00  0.00    +0.007 A 
ENDBRANCH  13  14
BRANCH  13  20
ATOM     20  O   LIG    1       27.933 -20.434   5.791  0.00  0.00    -0.376 OA
ATOM     21  H   LIG    1       27.858 -21.167   5.150  0.00  0.00    +0.211 HD
ENDBRANCH  13  20
ENDBRANCH   1  13
TORSDOF 5
ENDMDL
MODEL 4
REMARK VINA RESULT:      -7.9      4.746      7.162
REMARK  Name = *****
REMARK                            x       y       z     vdW  Elec       q    Type
REMARK                         _______ _______ _______ _____ _____    ______ ____
ROOT
ATOM      1  C   LIG    1       25.736 -25.627   6.400  0.00  0.00    +0.341 C 
ATOM      2  O   LIG    1       26.667 -25.774   5.619  0.00  0.00    -0.247 OA
ENDROOT
BRANCH   1   3
ATOM      3  O   LIG    1       25.670 -24.702   7.403  0.00  0.00    -0.459 OA
BRANCH   3  11
ATOM      4  C   LIG    1       27.111 -20.388   7.421  0.00  0.00    +0.007 C 
ATOM      5  C   LIG    1       25.864 -20.980   8.074  0.00  0.00    -0.010 C 
ATOM      6  C   LIG    1       24.551 -20.624   7.359  0.00  0.00    +0.010 C 
ATOM      7  C   LIG    1       24.198 -21.456   6.103  0.00  0.00    -0.031 C 
ATOM      8  C   LIG    1       22.711 -21.207   5.766  0.00  0.00    +0.011 C 
ATOM      9  C   LIG    1       25.018 -21.014   4.878  0.00  0.00    +0.011 C 
ATOM     10  C   LIG    1       24.395 -22.962   6.379  0.00  0.00    +0.051 C 
ATOM     11  C   LIG    1       25.745 -23.314   7.015  0.00  0.00    +0.177 C 
ATOM     12  C   LIG    1       25.991 -22.489   8.279  0.00  0.00    +0.048 C 
ENDBRANCH   3  11
ENDBRANCH   1   3
BRANCH   1  13
ATOM     13  C   LIG    1       24.454 -26.477   6.376  0.00  0.00    +0.253 C 
BRANCH  13  14
ATOM     14  C   LIG    1       24.764 -27.963   6.407  0.00  0.00    -0.008 A 
ATOM     15  C   LIG    1       24.869 -28.716   5.226  0.00  0.00    +0.007 A 
ATOM     16  C   LIG    1       25.149 -30.084   5.272  0.00  0.00    +0.000 A 
ATOM     17  C   LIG    1       25.345 -30.715   6.497  0.00  0.00    +0.000 A 
ATOM     18  C   LIG    1       25.267 -29.978   7.677  0.00  0.00    +0.000 A 
ATOM     19  C   LIG    1       24.980 -28.612   7.634  0.00  0.00    +0.007 A 
ENDBRANCH  13  14
BRANCH  13  20
ATOM     20  O   LIG    1       23.648 -26.176   5.236  0.00  0.00    -0.376 OA
ATOM     21  H   LIG    1       24.268 -25.957   4.516  0.00  0.00    +0.211 HD
ENDBRANCH  13  20
ENDBRANCH   1  13
TORSDOF 5
ENDMDL
MODEL 5
REMARK VINA RESULT:      -7.9      1.995      6.814
REMARK  Name = *****
REMARK                            x       y       z     vdW  Elec       q    Type
REMARK                         _______ _______ _______ _____ _____    ______ ____
ROOT
ATOM      1  C   LIG    1       28.464 -20.039   7.481  0.00  0.00    +0.341 C 
ATOM      2  O   LIG    1       28.488 -19.556   6.357  0.00  0.00    -0.247 OA
ENDROOT
BRANCH   1   3
ATOM      3  O   LIG    1       27.348 -20.439   8.159  0.00  0.00    -0.459 OA
BRANCH   3  11
ATOM      4  C   LIG    1       23.195 -20.360   6.306  0.00  0.00    +0.007 C 
ATOM      5  C   LIG    1       23.681 -21.139   7.526  0.00  0.00    -0.010 C 
ATOM      6  C   LIG    1       23.849 -22.647   7.283  0.00  0.00    +0.010 C 
ATOM      7  C   LIG    1       25.149 -23.093   6.574  0.00  0.00    -0.031 C 
ATOM      8  C   LIG    1       25.295 -24.620   6.760  0.00  0.00    +0.011 C 
ATOM      9  C   LIG    1       25.092 -22.827   5.059  0.00  0.00    +0.011 C 
ATOM     10  C   LIG    1       26.375 -22.401   7.206  0.00  0.00    +0.051 C 
ATOM     11  C   LIG    1       26.228 -20.883   7.364  0.00  0.00    +0.177 C 
ATOM     12  C   LIG    1       24.948 -20.529   8.123  0.00  0.00    +0.048 C 
ENDBRANCH   3  11
ENDBRANCH   1   3
BRANCH   1  13
ATOM     13  C   LIG    1       29.720 -20.286   8.336  0.00  0.00    +0.253 C 
BRANCH  13  14
ATOM     14  C   LIG    1       30.380 -18.983   8.753  0.00  0.00    -0.008 A 
ATOM     15  C   LIG    1       29.748 -18.087   9.631  0.00  0.00    +0.007 A 
ATOM     16  C   LIG    1       30.365 -16.889  10.000  0.00  0.00    +0.000 A 
ATOM     17  C   LIG    1       31.631 -16.579   9.511  0.00  0.00    +0.000 A 
ATOM     18  C   LIG    1       32.283 -17.467   8.658  0.00  0.00    +0.000 A 
ATOM     19  C   LIG    1       31.663 -18.662   8.282  0.00  0.00    +0.007 A 
ENDBRANCH  13  14
BRANCH  13  20
ATOM     20  O   LIG    1       30.666 -21.108   7.651  0.00  0.00    -0.376 OA
ATOM     21  H   LIG    1       30.162 -21.593   6.971  0.00  0.00    +0.211 HD
ENDBRANCH  13  20
ENDBRANCH   1  13
TORSDOF 5
ENDMDL
MODEL 6
REMARK VINA RESULT:      -7.5      2.246      6.909
REMARK  Name = *****
REMARK                            x       y       z     vdW  Elec       q    Type
REMARK                         _______ _______ _______ _____ _____    ______ ____
ROOT
ATOM      1  C   LIG    1       29.529 -19.059   6.550  0.00  0.00    +0.341 C 
ATOM      2  O   LIG    1       29.555 -17.888   6.195  0.00  0.00    -0.247 OA
ENDROOT
BRANCH   1   3
ATOM      3  O   LIG    1       28.863 -20.072   5.921  0.00  0.00    -0.459 OA
BRANCH   3  11
ATOM      4  C   LIG    1       25.880 -21.829   8.871  0.00  0.00    +0.007 C 
ATOM      5  C   LIG    1       26.420 -22.442   7.581  0.00  0.00    -0.010 C 
ATOM      6  C   LIG    1       25.410 -22.461   6.423  0.00  0.00    +0.010 C 
ATOM      7  C   LIG    1       25.235 -21.142   5.634  0.00  0.00    -0.031 C 
ATOM      8  C   LIG    1       24.487 -21.465   4.322  0.00  0.00    +0.011 C 
ATOM      9  C   LIG    1       24.373 -20.127   6.407  0.00  0.00    +0.011 C 
ATOM     10  C   LIG    1       26.610 -20.536   5.282  0.00  0.00    +0.051 C 
ATOM     11  C   LIG    1       27.579 -20.443   6.466  0.00  0.00    +0.177 C 
ATOM     12  C   LIG    1       27.739 -21.800   7.155  0.00  0.00    +0.048 C 
ENDBRANCH   3  11
ENDBRANCH   1   3
BRANCH   1  13
ATOM     13  C   LIG    1       30.263 -19.596   7.792  0.00  0.00    +0.253 C 
BRANCH  13  14
ATOM     14  C   LIG    1       30.732 -18.471   8.698  0.00  0.00    -0.008 A 
ATOM     15  C   LIG    1       29.934 -17.995   9.751  0.00  0.00    +0.007 A 
ATOM     16  C   LIG    1       30.377 -16.955  10.572  0.00  0.00    +0.000 A 
ATOM     17  C   LIG    1       31.632 -16.389  10.363  0.00  0.00    +0.000 A 
ATOM     18  C   LIG    1       32.446 -16.865   9.337  0.00  0.00    +0.000 A 
ATOM     19  C   LIG    1       32.001 -17.900   8.510  0.00  0.00    +0.007 A 
ENDBRANCH  13  14
BRANCH  13  20
ATOM     20  O   LIG    1       31.374 -20.417   7.428  0.00  0.00    -0.376 OA
ATOM     21  H   LIG    1       31.442 -20.366   6.456  0.00  0.00    +0.211 HD
ENDBRANCH  13  20
ENDBRANCH   1  13
TORSDOF 5
ENDMDL
MODEL 7
REMARK VINA RESULT:      -7.3      1.596      6.595
REMARK  Name = *****
REMARK                            x       y       z     vdW  Elec       q    Type
REMARK                         _______ _______ _______ _____ _____    ______ ____
ROOT
ATOM      1  C   LIG    1       27.615 -20.819   7.806  0.00  0.00    +0.341 C 
ATOM      2  O   LIG    1       27.691 -21.678   8.675  0.00  0.00    -0.247 OA
ENDROOT
BRANCH   1   3
ATOM      3  O   LIG    1       26.498 -20.104   7.482  0.00  0.00    -0.459 OA
BRANCH   3  11
ATOM      4  C   LIG    1       23.671 -23.606   6.825  0.00  0.00    +0.007 C 
ATOM      5  C   LIG    1       24.856 -23.163   5.970  0.00  0.00    -0.010 C 
ATOM      6  C   LIG    1       24.460 -22.489   4.647  0.00  0.00    +0.010 C 
ATOM      7  C   LIG    1       24.053 -20.999   4.722  0.00  0.00    -0.031 C 
ATOM      8  C   LIG    1       24.059 -20.428   3.287  0.00  0.00    +0.011 C 
ATOM      9  C   LIG    1       22.626 -20.825   5.272  0.00  0.00    +0.011 C 
ATOM     10  C   LIG    1       25.067 -20.204   5.572  0.00  0.00    +0.051 C 
ATOM     11  C   LIG    1       25.389 -20.843   6.928  0.00  0.00    +0.177 C 
ATOM     12  C   LIG    1       25.836 -22.297   6.760  0.00  0.00    +0.048 C 
ENDBRANCH   3  11
ENDBRANCH   1   3
BRANCH   1  13
ATOM     13  C   LIG    1       28.796 -20.391   6.917  0.00  0.00    +0.253 C 
BRANCH  13  14
ATOM     14  C   LIG    1       29.744 -19.459   7.652  0.00  0.00    -0.008 A 
ATOM     15  C   LIG    1       29.300 -18.642   8.705  0.00  0.00    +0.007 A 
ATOM     16  C   LIG    1       30.182 -17.784   9.367  0.00  0.00    +0.000 A 
ATOM     17  C   LIG    1       31.524 -17.745   8.998  0.00  0.00    +0.000 A 
ATOM     18  C   LIG    1       31.985 -18.566   7.971  0.00  0.00    +0.000 A 
ATOM     19  C   LIG    1       31.103 -19.418   7.302  0.00  0.00    +0.007 A 
ENDBRANCH  13  14
BRANCH  13  20
ATOM     20  O   LIG    1       28.346 -19.769   5.712  0.00  0.00    -0.376 OA
ATOM     21  H   LIG    1       29.102 -19.795   5.096  0.00  0.00    +0.211 HD
ENDBRANCH  13  20
ENDBRANCH   1  13
TORSDOF 5
ENDMDL
MODEL 8
REMARK VINA RESULT:      -7.2      6.305      8.753
REMARK  Name = *****
REMARK                            x       y       z     vdW  Elec       q    Type
REMARK                         _______ _______ _______ _____ _____    ______ ____
ROOT
ATOM      1  C   LIG    1       25.899 -26.389   5.943  0.00  0.00    +0.341 C 
ATOM      2  O   LIG    1       26.981 -26.585   5.406  0.00  0.00    -0.247 OA
ENDROOT
BRANCH   1   3
ATOM      3  O   LIG    1       25.426 -27.034   7.051  0.00  0.00    -0.459 OA
BRANCH   3  11
ATOM      4  C   LIG    1       25.478 -31.290   5.448  0.00  0.00    +0.007 C 
ATOM      5  C   LIG    1       24.363 -30.567   6.199  0.00  0.00    -0.010 C 
ATOM      6  C   LIG    1       24.181 -31.030   7.653  0.00  0.00    +0.010 C 
ATOM      7  C   LIG    1       25.162 -30.442   8.695  0.00  0.00    -0.031 C 
ATOM      8  C   LIG    1       24.592 -30.727  10.103  0.00  0.00    +0.011 C 
ATOM      9  C   LIG    1       26.543 -31.118   8.622  0.00  0.00    +0.011 C 
ATOM     10  C   LIG    1       25.290 -28.915   8.516  0.00  0.00    +0.051 C 
ATOM     11  C   LIG    1       25.557 -28.471   7.073  0.00  0.00    +0.177 C 
ATOM     12  C   LIG    1       24.512 -29.048   6.116  0.00  0.00    +0.048 C 
ENDBRANCH   3  11
ENDBRANCH   1   3
BRANCH   1  13
ATOM     13  C   LIG    1       24.870 -25.356   5.450  0.00  0.00    +0.253 C 
BRANCH  13  14
ATOM     14  C   LIG    1       24.855 -24.116   6.326  0.00  0.00    -0.008 A 
ATOM     15  C   LIG    1       26.027 -23.626   6.926  0.00  0.00    +0.007 A 
ATOM     16  C   LIG    1       25.996 -22.487   7.735  0.00  0.00    +0.000 A 
ATOM     17  C   LIG    1       24.796 -21.812   7.940  0.00  0.00    +0.000 A 
ATOM     18  C   LIG    1       23.629 -22.270   7.334  0.00  0.00    +0.000 A 
ATOM     19  C   LIG    1       23.656 -23.414   6.531  0.00  0.00    +0.007 A 
ENDBRANCH  13  14
BRANCH  13  20
ATOM     20  O   LIG    1       23.557 -25.916   5.385  0.00  0.00    -0.376 OA
ATOM     21  H   LIG    1       23.258 -26.012   6.309  0.00  0.00    +0.211 HD
ENDBRANCH  13  20
ENDBRANCH   1  13
TORSDOF 5
ENDMDL
MODEL 9
REMARK VINA RESULT:      -6.8      7.246      9.581
REMARK  Name = *****
REMARK                            x       y       z     vdW  Elec       q    Type
REMARK                         _______ _______ _______ _____ _____    ______ ____
ROOT
ATOM      1  C   LIG    1       24.958 -27.758   5.810  0.00  0.00    +0.341 C 
ATOM      2  O   LIG    1       24.747 -27.853   4.608  0.00  0.00    -0.247 OA
ENDROOT
BRANCH   1   3
ATOM      3  O   LIG    1       24.402 -28.537   6.785  0.00  0.00    -0.459 OA
BRANCH   3  11
ATOM      4  C   LIG    1       26.879 -32.350   6.666  0.00  0.00    +0.007 C 
ATOM      5  C   LIG    1       25.416 -32.174   7.064  0.00  0.00    -0.010 C 
ATOM      6  C   LIG    1       25.156 -32.293   8.574  0.00  0.00    +0.010 C 
ATOM      7  C   LIG    1       25.460 -31.041   9.430  0.00  0.00    -0.031 C 
ATOM      8  C   LIG    1       24.797 -31.234  10.812  0.00  0.00    +0.011 C 
ATOM      9  C   LIG    1       26.971 -30.872   9.674  0.00  0.00    +0.011 C 
ATOM     10  C   LIG    1       24.867 -29.778   8.771  0.00  0.00    +0.051 C 
ATOM     11  C   LIG    1       25.206 -29.627   7.283  0.00  0.00    +0.177 C 
ATOM     12  C   LIG    1       24.823 -30.884   6.500  0.00  0.00    +0.048 C 
ENDBRANCH   3  11
ENDBRANCH   1   3
BRANCH   1  13
ATOM     13  C   LIG    1       25.910 -26.723   6.435  0.00  0.00    +0.253 C 
BRANCH  13  14
ATOM     14  C   LIG    1       25.238 -25.372   6.604  0.00  0.00    -0.008 A 
ATOM     15  C   LIG    1       23.852 -25.215   6.445  0.00  0.00    +0.007 A 
ATOM     16  C   LIG    1       23.250 -23.964   6.597  0.00  0.00    +0.000 A 
ATOM     17  C   LIG    1       24.023 -22.855   6.929  0.00  0.00    +0.000 A 
ATOM     18  C   LIG    1       25.396 -22.997   7.114  0.00  0.00    +0.000 A 
ATOM     19  C   LIG    1       26.001 -24.246   6.954  0.00  0.00    +0.007 A 
ENDBRANCH  13  14
BRANCH  13  20
ATOM     20  O   LIG    1       27.103 -26.576   5.663  0.00  0.00    -0.376 OA
ATOM     21  H   LIG    1       26.991 -25.756   5.147  0.00  0.00    +0.211 HD
ENDBRANCH  13  20
ENDBRANCH   1  13
TORSDOF 5
ENDMDL
