MODEL 1
REMARK VINA RESULT:     -10.3      0.000      0.000
REMARK  Name = *****
REMARK                            x       y       z     vdW  Elec       q    Type
REMARK                         _______ _______ _______ _____ _____    ______ ____
ROOT
ATOM      1  C   LIG    1       25.327 -25.418   6.562  0.00  0.00    -0.034 A 
ATOM      2  C   LIG    1       26.031 -24.270   6.961  0.00  0.00    +0.009 A 
ATOM      3  C   LIG    1       25.367 -23.045   7.149  0.00  0.00    -0.026 A 
ATOM      4  C   LIG    1       26.146 -21.805   7.500  0.00  0.00    +0.115 C 
ATOM      5  C   LIG    1       26.392 -20.918   6.302  0.00  0.00    +0.169 C 
ATOM      6  C   LIG    1       25.262 -20.331   5.503  0.00  0.00    +0.031 A 
ATOM      7  C   LIG    1       23.885 -20.483   5.763  0.00  0.00    +0.023 A 
ATOM      8  S   LIG    1       23.132 -21.415   7.096  0.00  0.00    -0.088 S 
ATOM      9  C   LIG    1       22.958 -19.836   4.918  0.00  0.00    +0.016 A 
ATOM     10  C   LIG    1       23.373 -19.065   3.831  0.00  0.00    +0.001 A 
ATOM     11  C   LIG    1       24.726 -18.923   3.566  0.00  0.00    +0.001 A 
ATOM     12  C   LIG    1       25.658 -19.548   4.394  0.00  0.00    +0.012 A 
ATOM     13  O   LIG    1       27.554 -20.654   5.976  0.00  0.00    -0.292 OA
ATOM     14  C   LIG    1       23.985 -22.969   6.944  0.00  0.00    +0.016 A 
ATOM     15  C   LIG    1       23.271 -24.119   6.605  0.00  0.00    +0.015 A 
ATOM     16  C   LIG    1       23.936 -25.333   6.410  0.00  0.00    +0.005 A 
ENDROOT
BRANCH   1  18
ATOM     17  C   LIG    1       25.948 -27.068   4.762  0.00  0.00    +0.024 C 
ATOM     18  C   LIG    1       26.047 -26.725   6.251  0.00  0.00    +0.124 C 
BRANCH  18  19
ATOM     19  C   LIG    1       25.592 -27.917   7.096  0.00  0.00    +0.312 C 
ATOM     20  O   LIG    1       24.669 -28.660   6.782  0.00  0.00    -0.250 OA
BRANCH  19  21
ATOM     21  O   LIG    1       26.335 -28.166   8.198  0.00  0.00    -0.480 OA
ATOM     22  H   LIG    1       26.136 -27.593   8.964  0.00  0.00    +0.295 HD
ENDBRANCH  19  21
ENDBRANCH  18  19
ENDBRANCH   1  18
TORSDOF 3
ENDMDL
MODEL 2
REMARK VINA RESULT:      -8.5      2.214      3.006
REMARK  Name = *****
REMARK                            x       y       z     vdW  Elec       q    Type
REMARK                         _______ _______ _______ _____ _____    ______ ____
ROOT
ATOM      1  C   LIG    1       24.520 -25.735   6.092  0.00  0.00    -0.034 A 
ATOM      2  C   LIG    1       24.197 -24.712   6.999  0.00  0.00    +0.009 A 
ATOM      3  C   LIG    1       24.242 -23.362   6.612  0.00  0.00    -0.026 A 
ATOM      4  C   LIG    1       23.969 -22.273   7.616  0.00  0.00    +0.115 C 
ATOM      5  C   LIG    1       25.236 -21.646   8.147  0.00  0.00    +0.169 C 
ATOM      6  C   LIG    1       26.223 -20.961   7.242  0.00  0.00    +0.031 A 
ATOM      7  C   LIG    1       26.098 -20.782   5.850  0.00  0.00    +0.023 A 
ATOM      8  S   LIG    1       24.747 -21.328   4.805  0.00  0.00    -0.088 S 
ATOM      9  C   LIG    1       27.115 -20.089   5.160  0.00  0.00    +0.016 A 
ATOM     10  C   LIG    1       28.240 -19.592   5.820  0.00  0.00    +0.001 A 
ATOM     11  C   LIG    1       28.370 -19.777   7.188  0.00  0.00    +0.001 A 
ATOM     12  C   LIG    1       27.373 -20.453   7.889  0.00  0.00    +0.012 A 
ATOM     13  O   LIG    1       25.464 -21.681   9.361  0.00  0.00    -0.292 OA
ATOM     14  C   LIG    1       24.604 -23.031   5.302  0.00  0.00    +0.016 A 
ATOM     15  C   LIG    1       24.870 -24.044   4.379  0.00  0.00    +0.015 A 
ATOM     16  C   LIG    1       24.834 -25.385   4.771  0.00  0.00    +0.005 A 
ENDROOT
BRANCH   1  18
ATOM     17  C   LIG    1       25.830 -27.467   7.369  0.00  0.00    +0.024 C 
ATOM     18  C   LIG    1       24.581 -27.195   6.527  0.00  0.00    +0.124 C 
BRANCH  18  19
ATOM     19  C   LIG    1       24.492 -28.203   5.379  0.00  0.00    +0.312 C 
ATOM     20  O   LIG    1       25.394 -28.395   4.571  0.00  0.00    -0.250 OA
BRANCH  19  21
ATOM     21  O   LIG    1       23.365 -28.951   5.348  0.00  0.00    -0.480 OA
ATOM     22  H   LIG    1       22.633 -28.611   5.898  0.00  0.00    +0.295 HD
ENDBRANCH  19  21
ENDBRANCH  18  19
ENDBRANCH   1  18
TORSDOF 3
ENDMDL
MODEL 3
REMARK VINA RESULT:      -8.2      3.723      6.698
REMARK  Name = *****
REMARK                            x       y       z     vdW  Elec       q    Type
REMARK                         _______ _______ _______ _____ _____    ______ ____
ROOT
ATOM      1  C   LIG    1       29.386 -19.094   7.997  0.00  0.00    -0.034 A 
ATOM      2  C   LIG    1       28.581 -20.239   8.100  0.00  0.00    +0.009 A 
ATOM      3  C   LIG    1       27.834 -20.699   7.002  0.00  0.00    -0.026 A 
ATOM      4  C   LIG    1       26.915 -21.882   7.149  0.00  0.00    +0.115 C 
ATOM      5  C   LIG    1       25.471 -21.474   7.324  0.00  0.00    +0.169 C 
ATOM      6  C   LIG    1       24.741 -20.671   6.282  0.00  0.00    +0.031 A 
ATOM      7  C   LIG    1       25.258 -20.239   5.044  0.00  0.00    +0.023 A 
ATOM      8  S   LIG    1       26.906 -20.523   4.401  0.00  0.00    -0.088 S 
ATOM      9  C   LIG    1       24.418 -19.512   4.174  0.00  0.00    +0.016 A 
ATOM     10  C   LIG    1       23.101 -19.203   4.516  0.00  0.00    +0.001 A 
ATOM     11  C   LIG    1       22.593 -19.617   5.738  0.00  0.00    +0.001 A 
ATOM     12  C   LIG    1       23.405 -20.343   6.609  0.00  0.00    +0.012 A 
ATOM     13  O   LIG    1       24.865 -21.821   8.342  0.00  0.00    -0.292 OA
ATOM     14  C   LIG    1       27.901 -20.012   5.785  0.00  0.00    +0.016 A 
ATOM     15  C   LIG    1       28.745 -18.907   5.658  0.00  0.00    +0.015 A 
ATOM     16  C   LIG    1       29.478 -18.447   6.756  0.00  0.00    +0.005 A 
ENDROOT
BRANCH   1  18
ATOM     17  C   LIG    1       30.129 -16.991   9.170  0.00  0.00    +0.024 C 
ATOM     18  C   LIG    1       30.116 -18.521   9.207  0.00  0.00    +0.124 C 
BRANCH  18  19
ATOM     19  C   LIG    1       31.537 -19.054   9.402  0.00  0.00    +0.312 C 
ATOM     20  O   LIG    1       31.903 -20.165   9.036  0.00  0.00    -0.250 OA
BRANCH  19  21
ATOM     21  O   LIG    1       32.417 -18.180   9.941  0.00  0.00    -0.480 OA
ATOM     22  H   LIG    1       33.343 -18.490   9.960  0.00  0.00    +0.295 HD
ENDBRANCH  19  21
ENDBRANCH  18  19
ENDBRANCH   1  18
TORSDOF 3
ENDMDL
MODEL 4
REMARK VINA RESULT:      -8.0      2.649      7.006
REMARK  Name = *****
REMARK                            x       y       z     vdW  Elec       q    Type
REMARK                         _______ _______ _______ _____ _____    ______ ____
ROOT
ATOM      1  C   LIG    1       24.405 -19.649   4.756  0.00  0.00    -0.034 A 
ATOM      2  C   LIG    1       23.629 -20.382   5.670  0.00  0.00    +0.009 A 
ATOM      3  C   LIG    1       24.217 -21.345   6.508  0.00  0.00    -0.026 A 
ATOM      4  C   LIG    1       23.362 -22.177   7.426  0.00  0.00    +0.115 C 
ATOM      5  C   LIG    1       23.087 -23.554   6.869  0.00  0.00    +0.169 C 
ATOM      6  C   LIG    1       24.196 -24.520   6.556  0.00  0.00    +0.031 A 
ATOM      7  C   LIG    1       25.574 -24.307   6.759  0.00  0.00    +0.023 A 
ATOM      8  S   LIG    1       26.355 -22.839   7.429  0.00  0.00    -0.088 S 
ATOM      9  C   LIG    1       26.478 -25.340   6.429  0.00  0.00    +0.016 A 
ATOM     10  C   LIG    1       26.039 -26.553   5.897  0.00  0.00    +0.001 A 
ATOM     11  C   LIG    1       24.685 -26.761   5.685  0.00  0.00    +0.001 A 
ATOM     12  C   LIG    1       23.776 -25.756   6.012  0.00  0.00    +0.012 A 
ATOM     13  O   LIG    1       21.918 -23.906   6.680  0.00  0.00    -0.292 OA
ATOM     14  C   LIG    1       25.596 -21.571   6.439  0.00  0.00    +0.016 A 
ATOM     15  C   LIG    1       26.382 -20.806   5.575  0.00  0.00    +0.015 A 
ATOM     16  C   LIG    1       25.792 -19.857   4.736  0.00  0.00    +0.005 A 
ENDROOT
BRANCH   1  18
ATOM     17  C   LIG    1       24.729 -17.544   3.412  0.00  0.00    +0.024 C 
ATOM     18  C   LIG    1       23.767 -18.680   3.767  0.00  0.00    +0.124 C 
BRANCH  18  19
ATOM     19  C   LIG    1       22.421 -18.108   4.217  0.00  0.00    +0.312 C 
ATOM     20  O   LIG    1       22.302 -17.051   4.827  0.00  0.00    -0.250 OA
BRANCH  19  21
ATOM     21  O   LIG    1       21.332 -18.807   3.825  0.00  0.00    -0.480 OA
ATOM     22  H   LIG    1       20.574 -18.763   4.439  0.00  0.00    +0.295 HD
ENDBRANCH  19  21
ENDBRANCH  18  19
ENDBRANCH   1  18
TORSDOF 3
ENDMDL
MODEL 5
REMARK VINA RESULT:      -7.8      4.083      6.471
REMARK  Name = *****
REMARK                            x       y       z     vdW  Elec       q    Type
REMARK                         _______ _______ _______ _____ _____    ______ ____
ROOT
ATOM      1  C   LIG    1       25.455 -20.910   6.770  0.00  0.00    -0.034 A 
ATOM      2  C   LIG    1       26.520 -20.400   6.010  0.00  0.00    +0.009 A 
ATOM      3  C   LIG    1       27.852 -20.575   6.423  0.00  0.00    -0.026 A 
ATOM      4  C   LIG    1       28.979 -19.955   5.640  0.00  0.00    +0.115 C 
ATOM      5  C   LIG    1       29.478 -18.672   6.262  0.00  0.00    +0.169 C 
ATOM      6  C   LIG    1       30.041 -18.633   7.656  0.00  0.00    +0.031 A 
ATOM      7  C   LIG    1       30.211 -19.731   8.522  0.00  0.00    +0.023 A 
ATOM      8  S   LIG    1       29.793 -21.443   8.194  0.00  0.00    -0.088 S 
ATOM      9  C   LIG    1       30.782 -19.512   9.793  0.00  0.00    +0.016 A 
ATOM     10  C   LIG    1       31.169 -18.238  10.213  0.00  0.00    +0.001 A 
ATOM     11  C   LIG    1       30.993 -17.154   9.367  0.00  0.00    +0.001 A 
ATOM     12  C   LIG    1       30.437 -17.351   8.103  0.00  0.00    +0.012 A 
ATOM     13  O   LIG    1       29.438 -17.627   5.604  0.00  0.00    -0.292 OA
ATOM     14  C   LIG    1       28.123 -21.275   7.604  0.00  0.00    +0.016 A 
ATOM     15  C   LIG    1       27.073 -21.835   8.334  0.00  0.00    +0.015 A 
ATOM     16  C   LIG    1       25.749 -21.651   7.924  0.00  0.00    +0.005 A 
ENDROOT
BRANCH   1  18
ATOM     17  C   LIG    1       23.056 -21.599   7.113  0.00  0.00    +0.024 C 
ATOM     18  C   LIG    1       24.004 -20.637   6.393  0.00  0.00    +0.124 C 
BRANCH  18  19
ATOM     19  C   LIG    1       23.725 -20.652   4.888  0.00  0.00    +0.312 C 
ATOM     20  O   LIG    1       23.475 -19.647   4.233  0.00  0.00    -0.250 OA
BRANCH  19  21
ATOM     21  O   LIG    1       23.853 -21.857   4.286  0.00  0.00    -0.480 OA
ATOM     22  H   LIG    1       23.845 -22.622   4.894  0.00  0.00    +0.295 HD
ENDBRANCH  19  21
ENDBRANCH  18  19
ENDBRANCH   1  18
TORSDOF 3
ENDMDL
