MODEL 1
REMARK VINA RESULT:      -6.2      0.000      0.000
REMARK  Name = *****
REMARK                            x       y       z     vdW  Elec       q    Type
REMARK                         _______ _______ _______ _____ _____    ______ ____
ROOT
ATOM      1  C   LIG    1       28.792 -20.798   7.603  0.00  0.00    -0.043 A 
ATOM      2  C   LIG    1       29.894 -21.202   8.370  0.00  0.00    +0.052 A 
ATOM      3  C   LIG    1       31.032 -20.409   8.407  0.00  0.00    +0.159 A 
ATOM      4  C   LIG    1       31.093 -19.212   7.696  0.00  0.00    +0.158 A 
ATOM      5  C   LIG    1       30.008 -18.792   6.939  0.00  0.00    +0.049 A 
ATOM      6  C   LIG    1       28.857 -19.584   6.896  0.00  0.00    +0.007 A 
ENDROOT
BRANCH   3   7
ATOM      7  O   LIG    1       32.102 -20.813   9.153  0.00  0.00    -0.503 OA
ATOM      8  H   LIG    1       31.995 -21.782   9.225  0.00  0.00    +0.292 HD
ENDBRANCH   3   7
BRANCH   4   9
ATOM      9  O   LIG    1       32.248 -18.484   7.775  0.00  0.00    -0.503 OA
ATOM     10  H   LIG    1       32.011 -17.541   7.737  0.00  0.00    +0.292 HD
ENDBRANCH   4   9
BRANCH   1  11
ATOM     11  C   LIG    1       27.544 -21.646   7.557  0.00  0.00    +0.050 C 
BRANCH  11  12
ATOM     12  C   LIG    1       26.279 -20.809   7.770  0.00  0.00    +0.082 C 
BRANCH  12  13
ATOM     13  N   LIG    1       25.975 -20.669   9.194  0.00  0.00    -0.330 NA
ATOM     14  H   LIG    1       26.804 -20.898   9.743  0.00  0.00    +0.118 HD
ATOM     15  H   LIG    1       25.766 -19.691   9.396  0.00  0.00    +0.118 HD
ENDBRANCH  12  13
ENDBRANCH  11  12
ENDBRANCH   1  11
TORSDOF 5
ENDMDL
MODEL 2
REMARK VINA RESULT:      -6.2      5.306      6.954
REMARK  Name = *****
REMARK                            x       y       z     vdW  Elec       q    Type
REMARK                         _______ _______ _______ _____ _____    ______ ____
ROOT
ATOM      1  C   LIG    1       25.185 -22.191   7.589  0.00  0.00    -0.043 A 
ATOM      2  C   LIG    1       23.812 -22.334   7.345  0.00  0.00    +0.052 A 
ATOM      3  C   LIG    1       23.336 -23.500   6.763  0.00  0.00    +0.159 A 
ATOM      4  C   LIG    1       24.204 -24.536   6.423  0.00  0.00    +0.158 A 
ATOM      5  C   LIG    1       25.566 -24.416   6.667  0.00  0.00    +0.049 A 
ATOM      6  C   LIG    1       26.054 -23.245   7.253  0.00  0.00    +0.007 A 
ENDROOT
BRANCH   3   7
ATOM      7  O   LIG    1       21.998 -23.628   6.524  0.00  0.00    -0.503 OA
ATOM      8  H   LIG    1       21.604 -22.825   6.920  0.00  0.00    +0.292 HD
ENDBRANCH   3   7
BRANCH   4   9
ATOM      9  O   LIG    1       23.666 -25.654   5.849  0.00  0.00    -0.503 OA
ATOM     10  H   LIG    1       24.180 -25.856   5.047  0.00  0.00    +0.292 HD
ENDBRANCH   4   9
BRANCH   1  11
ATOM     11  C   LIG    1       25.720 -20.932   8.227  0.00  0.00    +0.050 C 
BRANCH  11  12
ATOM     12  C   LIG    1       26.925 -20.373   7.463  0.00  0.00    +0.082 C 
BRANCH  12  13
ATOM     13  N   LIG    1       28.072 -20.191   8.352  0.00  0.00    -0.330 NA
ATOM     14  H   LIG    1       27.845 -20.554   9.279  0.00  0.00    +0.118 HD
ATOM     15  H   LIG    1       28.850 -20.756   8.013  0.00  0.00    +0.118 HD
ENDBRANCH  12  13
ENDBRANCH  11  12
ENDBRANCH   1  11
TORSDOF 5
ENDMDL
MODEL 3
REMARK VINA RESULT:      -6.0      1.467      2.452
REMARK  Name = *****
REMARK                            x       y       z     vdW  Elec       q    Type
REMARK                         _______ _______ _______ _____ _____    ______ ____
ROOT
ATOM      1  C   LIG    1       28.997 -20.039   6.671  0.00  0.00    -0.043 A 
ATOM      2  C   LIG    1       30.056 -19.125   6.750  0.00  0.00    +0.052 A 
ATOM      3  C   LIG    1       31.089 -19.346   7.649  0.00  0.00    +0.159 A 
ATOM      4  C   LIG    1       31.091 -20.470   8.472  0.00  0.00    +0.158 A 
ATOM      5  C   LIG    1       30.055 -21.392   8.400  0.00  0.00    +0.049 A 
ATOM      6  C   LIG    1       29.011 -21.177   7.497  0.00  0.00    +0.007 A 
ENDROOT
BRANCH   3   7
ATOM      7  O   LIG    1       32.113 -18.447   7.722  0.00  0.00    -0.503 OA
ATOM      8  H   LIG    1       32.211 -18.268   8.679  0.00  0.00    +0.292 HD
ENDBRANCH   3   7
BRANCH   4   9
ATOM      9  O   LIG    1       32.138 -20.622   9.338  0.00  0.00    -0.503 OA
ATOM     10  H   LIG    1       32.646 -19.792   9.341  0.00  0.00    +0.292 HD
ENDBRANCH   4   9
BRANCH   1  11
ATOM     11  C   LIG    1       27.868 -19.817   5.693  0.00  0.00    +0.050 C 
BRANCH  11  12
ATOM     12  C   LIG    1       26.572 -20.491   6.155  0.00  0.00    +0.082 C 
BRANCH  12  13
ATOM     13  N   LIG    1       25.743 -20.875   5.013  0.00  0.00    -0.330 NA
ATOM     14  H   LIG    1       24.920 -20.272   4.972  0.00  0.00    +0.118 HD
ATOM     15  H   LIG    1       26.261 -20.702   4.152  0.00  0.00    +0.118 HD
ENDBRANCH  12  13
ENDBRANCH  11  12
ENDBRANCH   1  11
TORSDOF 5
ENDMDL
MODEL 4
REMARK VINA RESULT:      -6.0      6.261      7.499
REMARK  Name = *****
REMARK                            x       y       z     vdW  Elec       q    Type
REMARK                         _______ _______ _______ _____ _____    ______ ____
ROOT
ATOM      1  C   LIG    1       25.297 -24.816   6.810  0.00  0.00    -0.043 A 
ATOM      2  C   LIG    1       23.926 -24.759   6.525  0.00  0.00    +0.052 A 
ATOM      3  C   LIG    1       23.227 -23.581   6.748  0.00  0.00    +0.159 A 
ATOM      4  C   LIG    1       23.871 -22.451   7.246  0.00  0.00    +0.158 A 
ATOM      5  C   LIG    1       25.231 -22.486   7.525  0.00  0.00    +0.049 A 
ATOM      6  C   LIG    1       25.943 -23.668   7.303  0.00  0.00    +0.007 A 
ENDROOT
BRANCH   3   7
ATOM      7  O   LIG    1       21.891 -23.537   6.472  0.00  0.00    -0.503 OA
ATOM      8  H   LIG    1       21.675 -22.583   6.470  0.00  0.00    +0.292 HD
ENDBRANCH   3   7
BRANCH   4   9
ATOM      9  O   LIG    1       23.119 -21.327   7.446  0.00  0.00    -0.503 OA
ATOM     10  H   LIG    1       22.281 -21.597   7.861  0.00  0.00    +0.292 HD
ENDBRANCH   4   9
BRANCH   1  11
ATOM     11  C   LIG    1       26.075 -26.087   6.568  0.00  0.00    +0.050 C 
BRANCH  11  12
ATOM     12  C   LIG    1       25.978 -26.545   5.109  0.00  0.00    +0.082 C 
BRANCH  12  13
ATOM     13  N   LIG    1       27.145 -27.341   4.730  0.00  0.00    -0.330 NA
ATOM     14  H   LIG    1       27.991 -26.897   5.090  0.00  0.00    +0.118 HD
ATOM     15  H   LIG    1       27.090 -28.252   5.185  0.00  0.00    +0.118 HD
ENDBRANCH  12  13
ENDBRANCH  11  12
ENDBRANCH   1  11
TORSDOF 5
ENDMDL
MODEL 5
REMARK VINA RESULT:      -6.0      5.101      6.058
REMARK  Name = *****
REMARK                            x       y       z     vdW  Elec       q    Type
REMARK                         _______ _______ _______ _____ _____    ______ ____
ROOT
ATOM      1  C   LIG    1       23.758 -20.787   5.656  0.00  0.00    -0.043 A 
ATOM      2  C   LIG    1       25.159 -20.817   5.647  0.00  0.00    +0.052 A 
ATOM      3  C   LIG    1       25.857 -20.015   4.756  0.00  0.00    +0.159 A 
ATOM      4  C   LIG    1       25.185 -19.175   3.872  0.00  0.00    +0.158 A 
ATOM      5  C   LIG    1       23.797 -19.124   3.873  0.00  0.00    +0.049 A 
ATOM      6  C   LIG    1       23.085 -19.929   4.767  0.00  0.00    +0.007 A 
ENDROOT
BRANCH   3   7
ATOM      7  O   LIG    1       27.222 -20.055   4.752  0.00  0.00    -0.503 OA
ATOM      8  H   LIG    1       27.493 -19.123   4.872  0.00  0.00    +0.292 HD
ENDBRANCH   3   7
BRANCH   4   9
ATOM      9  O   LIG    1       25.937 -18.416   3.019  0.00  0.00    -0.503 OA
ATOM     10  H   LIG    1       25.353 -17.753   2.613  0.00  0.00    +0.292 HD
ENDBRANCH   4   9
BRANCH   1  11
ATOM     11  C   LIG    1       22.982 -21.648   6.623  0.00  0.00    +0.050 C 
BRANCH  11  12
ATOM     12  C   LIG    1       23.687 -22.981   6.892  0.00  0.00    +0.082 C 
BRANCH  12  13
ATOM     13  N   LIG    1       22.805 -24.111   6.602  0.00  0.00    -0.330 NA
ATOM     14  H   LIG    1       21.976 -24.056   7.194  0.00  0.00    +0.118 HD
ATOM     15  H   LIG    1       22.469 -24.033   5.642  0.00  0.00    +0.118 HD
ENDBRANCH  12  13
ENDBRANCH  11  12
ENDBRANCH   1  11
TORSDOF 5
ENDMDL
MODEL 6
REMARK VINA RESULT:      -5.9      1.165      2.190
REMARK  Name = *****
REMARK                            x       y       z     vdW  Elec       q    Type
REMARK                         _______ _______ _______ _____ _____    ______ ____
ROOT
ATOM      1  C   LIG    1       28.245 -20.812   7.179  0.00  0.00    -0.043 A 
ATOM      2  C   LIG    1       28.510 -19.753   6.299  0.00  0.00    +0.052 A 
ATOM      3  C   LIG    1       29.749 -19.131   6.327  0.00  0.00    +0.159 A 
ATOM      4  C   LIG    1       30.739 -19.548   7.215  0.00  0.00    +0.158 A 
ATOM      5  C   LIG    1       30.499 -20.602   8.086  0.00  0.00    +0.049 A 
ATOM      6  C   LIG    1       29.252 -21.235   8.065  0.00  0.00    +0.007 A 
ENDROOT
BRANCH   3   7
ATOM      7  O   LIG    1       29.996 -18.097   5.470  0.00  0.00    -0.503 OA
ATOM      8  H   LIG    1       29.578 -18.373   4.630  0.00  0.00    +0.292 HD
ENDBRANCH   3   7
BRANCH   4   9
ATOM      9  O   LIG    1       31.935 -18.886   7.191  0.00  0.00    -0.503 OA
ATOM     10  H   LIG    1       31.777 -17.995   6.833  0.00  0.00    +0.292 HD
ENDBRANCH   4   9
BRANCH   1  11
ATOM     11  C   LIG    1       26.904 -21.505   7.157  0.00  0.00    +0.050 C 
BRANCH  11  12
ATOM     12  C   LIG    1       25.805 -20.639   7.780  0.00  0.00    +0.082 C 
BRANCH  12  13
ATOM     13  N   LIG    1       25.916 -20.617   9.239  0.00  0.00    -0.330 NA
ATOM     14  H   LIG    1       25.669 -21.534   9.612  0.00  0.00    +0.118 HD
ATOM     15  H   LIG    1       26.891 -20.463   9.496  0.00  0.00    +0.118 HD
ENDBRANCH  12  13
ENDBRANCH  11  12
ENDBRANCH   1  11
TORSDOF 5
ENDMDL
MODEL 7
REMARK VINA RESULT:      -5.9      6.725      8.127
REMARK  Name = *****
REMARK                            x       y       z     vdW  Elec       q    Type
REMARK                         _______ _______ _______ _____ _____    ______ ____
ROOT
ATOM      1  C   LIG    1       24.998 -26.173   6.000  0.00  0.00    -0.043 A 
ATOM      2  C   LIG    1       23.709 -25.628   6.088  0.00  0.00    +0.052 A 
ATOM      3  C   LIG    1       23.540 -24.340   6.575  0.00  0.00    +0.159 A 
ATOM      4  C   LIG    1       24.635 -23.577   6.974  0.00  0.00    +0.158 A 
ATOM      5  C   LIG    1       25.920 -24.096   6.885  0.00  0.00    +0.049 A 
ATOM      6  C   LIG    1       26.100 -25.393   6.395  0.00  0.00    +0.007 A 
ENDROOT
BRANCH   3   7
ATOM      7  O   LIG    1       22.280 -23.820   6.662  0.00  0.00    -0.503 OA
ATOM      8  H   LIG    1       21.917 -23.915   5.759  0.00  0.00    +0.292 HD
ENDBRANCH   3   7
BRANCH   4   9
ATOM      9  O   LIG    1       24.393 -22.318   7.450  0.00  0.00    -0.503 OA
ATOM     10  H   LIG    1       23.712 -22.385   8.141  0.00  0.00    +0.292 HD
ENDBRANCH   4   9
BRANCH   1  11
ATOM     11  C   LIG    1       25.201 -27.570   5.466  0.00  0.00    +0.050 C 
BRANCH  11  12
ATOM     12  C   LIG    1       24.375 -28.602   6.240  0.00  0.00    +0.082 C 
BRANCH  12  13
ATOM     13  N   LIG    1       23.404 -29.260   5.366  0.00  0.00    -0.330 NA
ATOM     14  H   LIG    1       23.726 -29.208   4.399  0.00  0.00    +0.118 HD
ATOM     15  H   LIG    1       23.367 -30.253   5.597  0.00  0.00    +0.118 HD
ENDBRANCH  12  13
ENDBRANCH  11  12
ENDBRANCH   1  11
TORSDOF 5
ENDMDL
MODEL 8
REMARK VINA RESULT:      -5.9      3.799      5.005
REMARK  Name = *****
REMARK                            x       y       z     vdW  Elec       q    Type
REMARK                         _______ _______ _______ _____ _____    ______ ____
ROOT
ATOM      1  C   LIG    1       27.815 -20.146   6.553  0.00  0.00    -0.043 A 
ATOM      2  C   LIG    1       27.480 -20.326   7.902  0.00  0.00    +0.052 A 
ATOM      3  C   LIG    1       26.166 -20.595   8.253  0.00  0.00    +0.159 A 
ATOM      4  C   LIG    1       25.173 -20.696   7.281  0.00  0.00    +0.158 A 
ATOM      5  C   LIG    1       25.487 -20.531   5.939  0.00  0.00    +0.049 A 
ATOM      6  C   LIG    1       26.810 -20.259   5.576  0.00  0.00    +0.007 A 
ENDROOT
BRANCH   3   7
ATOM      7  O   LIG    1       25.848 -20.763   9.570  0.00  0.00    -0.503 OA
ATOM      8  H   LIG    1       26.533 -21.375   9.908  0.00  0.00    +0.292 HD
ENDBRANCH   3   7
BRANCH   4   9
ATOM      9  O   LIG    1       23.898 -20.958   7.700  0.00  0.00    -0.503 OA
ATOM     10  H   LIG    1       23.562 -20.166   8.154  0.00  0.00    +0.292 HD
ENDBRANCH   4   9
BRANCH   1  11
ATOM     11  C   LIG    1       29.243 -19.859   6.152  0.00  0.00    +0.050 C 
BRANCH  11  12
ATOM     12  C   LIG    1       30.079 -19.369   7.338  0.00  0.00    +0.082 C 
BRANCH  12  13
ATOM     13  N   LIG    1       31.448 -19.879   7.261  0.00  0.00    -0.330 NA
ATOM     14  H   LIG    1       32.084 -19.212   7.701  0.00  0.00    +0.118 HD
ATOM     15  H   LIG    1       31.516 -20.736   7.811  0.00  0.00    +0.118 HD
ENDBRANCH  12  13
ENDBRANCH  11  12
ENDBRANCH   1  11
TORSDOF 5
ENDMDL
MODEL 9
REMARK VINA RESULT:      -5.9      2.951      4.206
REMARK  Name = *****
REMARK                            x       y       z     vdW  Elec       q    Type
REMARK                         _______ _______ _______ _____ _____    ______ ____
ROOT
ATOM      1  C   LIG    1       29.899 -20.183   7.645  0.00  0.00    -0.043 A 
ATOM      2  C   LIG    1       29.975 -19.182   6.666  0.00  0.00    +0.052 A 
ATOM      3  C   LIG    1       28.967 -19.069   5.720  0.00  0.00    +0.159 A 
ATOM      4  C   LIG    1       27.875 -19.933   5.732  0.00  0.00    +0.158 A 
ATOM      5  C   LIG    1       27.777 -20.924   6.700  0.00  0.00    +0.049 A 
ATOM      6  C   LIG    1       28.788 -21.046   7.657  0.00  0.00    +0.007 A 
ENDROOT
BRANCH   3   7
ATOM      7  O   LIG    1       29.053 -18.094   4.768  0.00  0.00    -0.503 OA
ATOM      8  H   LIG    1       29.167 -18.583   3.929  0.00  0.00    +0.292 HD
ENDBRANCH   3   7
BRANCH   4   9
ATOM      9  O   LIG    1       26.921 -19.766   4.766  0.00  0.00    -0.503 OA
ATOM     10  H   LIG    1       26.259 -19.138   5.104  0.00  0.00    +0.292 HD
ENDBRANCH   4   9
BRANCH   1  11
ATOM     11  C   LIG    1       30.984 -20.317   8.686  0.00  0.00    +0.050 C 
BRANCH  11  12
ATOM     12  C   LIG    1       31.364 -21.781   8.929  0.00  0.00    +0.082 C 
BRANCH  12  13
ATOM     13  N   LIG    1       30.889 -22.237  10.235  0.00  0.00    -0.330 NA
ATOM     14  H   LIG    1       31.387 -21.736  10.972  0.00  0.00    +0.118 HD
ATOM     15  H   LIG    1       29.906 -21.985  10.339  0.00  0.00    +0.118 HD
ENDBRANCH  12  13
ENDBRANCH  11  12
ENDBRANCH   1  11
TORSDOF 5
ENDMDL
