MODEL 1
REMARK VINA RESULT:       7.5      0.000      0.000
REMARK  Name = *****
REMARK                            x       y       z     vdW  Elec       q    Type
REMARK                         _______ _______ _______ _____ _____    ______ ____
ROOT
ATOM      1  C   LIG    1       27.492 -15.051   3.481  0.00  0.00    +0.065 C 
ATOM      2  C   LIG    1       26.275 -15.829   4.055  0.00  0.00    -0.019 C 
ATOM      3  C   LIG    1       25.461 -14.994   5.082  0.00  0.00    +0.012 C 
ATOM      4  C   LIG    1       26.949 -16.991   4.843  0.00  0.00    -0.001 C 
ATOM      5  C   LIG    1       27.247 -18.283   4.043  0.00  0.00    -0.003 C 
ATOM      6  C   LIG    1       26.109 -18.732   3.097  0.00  0.00    +0.002 C 
ATOM      7  C   LIG    1       25.743 -17.548   2.187  0.00  0.00    +0.005 C 
ATOM      8  C   LIG    1       24.902 -19.538   3.736  0.00  0.00    -0.007 C 
ATOM      9  C   LIG    1       24.186 -20.288   2.574  0.00  0.00    +0.016 C 
ATOM     10  C   LIG    1       25.401 -20.530   4.799  0.00  0.00    -0.060 C 
ATOM     11  C   LIG    1       24.550 -21.448   5.307  0.00  0.00    +0.046 C 
ATOM     12  C   LIG    1       23.440 -20.708   6.018  0.00  0.00    +0.156 C 
ATOM     13  O   LIG    1       22.973 -21.166   7.057  0.00  0.00    -0.293 OA
ATOM     14  C   LIG    1       22.836 -19.502   5.311  0.00  0.00    +0.080 C 
ATOM     15  C   LIG    1       26.500 -20.045   5.720  0.00  0.00    +0.032 C 
ATOM     16  C   LIG    1       23.839 -18.687   4.477  0.00  0.00    +0.019 C 
ATOM     17  C   LIG    1       27.669 -19.458   4.944  0.00  0.00    +0.008 C 
ATOM     18  C   LIG    1       28.246 -16.360   5.404  0.00  0.00    +0.005 C 
ATOM     19  C   LIG    1       25.326 -16.282   2.926  0.00  0.00    +0.008 C 
ATOM     20  C   LIG    1       28.519 -15.081   4.609  0.00  0.00    +0.012 C 
ENDROOT
BRANCH   1  21
ATOM     21  C   LIG    1       27.219 -13.629   2.975  0.00  0.00    +0.174 C 
ATOM     22  O   LIG    1       27.945 -12.670   3.251  0.00  0.00    -0.293 OA
BRANCH  21  23
ATOM     23  C   LIG    1       25.947 -13.416   2.155  0.00  0.00    +0.306 C 
BRANCH  23  24
ATOM     24  O   LIG    1       25.193 -12.309   2.658  0.00  0.00    -0.457 OA
BRANCH  24  26
ATOM     25  C   LIG    1       23.819 -11.878   4.535  0.00  0.00    +0.136 C 
ATOM     26  C   LIG    1       24.046 -12.678   3.284  0.00  0.00    +0.304 C 
ATOM     27  O   LIG    1       23.311 -13.599   2.915  0.00  0.00    -0.251 OA
ENDBRANCH  24  26
ENDBRANCH  23  24
ENDBRANCH  21  23
ENDBRANCH   1  21
TORSDOF 4
ENDMDL
MODEL 2
REMARK VINA RESULT:       8.9      1.580      2.928
REMARK  Name = *****
REMARK                            x       y       z     vdW  Elec       q    Type
REMARK                         _______ _______ _______ _____ _____    ______ ____
ROOT
ATOM      1  C   LIG    1       24.966 -14.213   3.093  0.00  0.00    +0.065 C 
ATOM      2  C   LIG    1       24.609 -15.252   4.193  0.00  0.00    -0.019 C 
ATOM      3  C   LIG    1       25.186 -14.873   5.585  0.00  0.00    +0.012 C 
ATOM      4  C   LIG    1       25.364 -16.529   3.719  0.00  0.00    -0.001 C 
ATOM      5  C   LIG    1       24.595 -17.464   2.752  0.00  0.00    -0.003 C 
ATOM      6  C   LIG    1       23.115 -17.704   3.130  0.00  0.00    +0.002 C 
ATOM      7  C   LIG    1       22.432 -16.336   3.293  0.00  0.00    +0.005 C 
ATOM      8  C   LIG    1       22.812 -18.789   4.246  0.00  0.00    -0.007 C 
ATOM      9  C   LIG    1       21.318 -19.202   4.089  0.00  0.00    +0.016 C 
ATOM     10  C   LIG    1       23.733 -20.010   4.095  0.00  0.00    -0.060 C 
ATOM     11  C   LIG    1       23.491 -21.123   4.821  0.00  0.00    +0.046 C 
ATOM     12  C   LIG    1       23.631 -20.763   6.282  0.00  0.00    +0.156 C 
ATOM     13  O   LIG    1       24.126 -21.571   7.062  0.00  0.00    -0.293 OA
ATOM     14  C   LIG    1       22.989 -19.464   6.749  0.00  0.00    +0.080 C 
ATOM     15  C   LIG    1       25.179 -19.733   3.747  0.00  0.00    +0.032 C 
ATOM     16  C   LIG    1       23.026 -18.329   5.711  0.00  0.00    +0.019 C 
ATOM     17  C   LIG    1       25.304 -18.814   2.540  0.00  0.00    +0.008 C 
ATOM     18  C   LIG    1       26.656 -15.979   3.067  0.00  0.00    +0.005 C 
ATOM     19  C   LIG    1       23.082 -15.419   4.322  0.00  0.00    +0.008 C 
ATOM     20  C   LIG    1       26.432 -14.494   2.776  0.00  0.00    +0.012 C 
ENDROOT
BRANCH   1  21
ATOM     21  C   LIG    1       24.712 -12.740   3.435  0.00  0.00    +0.174 C 
ATOM     22  O   LIG    1       23.717 -12.124   3.045  0.00  0.00    -0.293 OA
BRANCH  21  23
ATOM     23  C   LIG    1       25.795 -12.017   4.236  0.00  0.00    +0.306 C 
BRANCH  23  24
ATOM     24  O   LIG    1       27.083 -12.201   3.640  0.00  0.00    -0.457 OA
BRANCH  24  26
ATOM     25  C   LIG    1       29.397 -12.627   3.891  0.00  0.00    +0.136 C 
ATOM     26  C   LIG    1       28.037 -12.585   4.528  0.00  0.00    +0.304 C 
ATOM     27  O   LIG    1       27.813 -12.923   5.694  0.00  0.00    -0.251 OA
ENDBRANCH  24  26
ENDBRANCH  23  24
ENDBRANCH  21  23
ENDBRANCH   1  21
TORSDOF 4
ENDMDL
