MODEL 1
REMARK VINA RESULT:      -2.8      0.000      0.000
REMARK  Name = *****
REMARK                            x       y       z     vdW  Elec       q    Type
REMARK                         _______ _______ _______ _____ _____    ______ ____
ROOT
ATOM      1  C   LIG    1       22.094 -32.887  11.882  0.00  0.00    +0.166 C 
ATOM      2  N   LIG    1       21.678 -31.639  11.240  0.00  0.00    -0.285 N 
ATOM      3  C   LIG    1       20.906 -30.623  11.774  0.00  0.00    +0.237 C 
ATOM      4  C   LIG    1       20.958 -30.331  13.302  0.00  0.00    +0.168 C 
ATOM      5  N   LIG    1       21.938 -29.253  13.372  0.00  0.00    -0.269 N 
ATOM      6  H   LIG    1       21.887 -28.524  12.676  0.00  0.00    +0.153 HD
ATOM      7  C   LIG    1       22.758 -29.002  14.423  0.00  0.00    +0.401 C 
ATOM      8  O   LIG    1       23.242 -27.745  14.268  0.00  0.00    -0.447 OA
ATOM      9  C   LIG    1       24.663 -27.596  14.277  0.00  0.00    +0.182 C 
ATOM     10  C   LIG    1       25.089 -26.448  13.388  0.00  0.00    +0.033 C 
ATOM     11  C   LIG    1       26.195 -26.706  12.418  0.00  0.00    +0.007 C 
ATOM     12  C   LIG    1       25.628 -27.377  11.162  0.00  0.00    +0.000 C 
ATOM     13  C   LIG    1       26.737 -27.971  10.305  0.00  0.00    +0.000 C 
ATOM     14  C   LIG    1       26.228 -28.633   9.024  0.00  0.00    +0.006 C 
ATOM     15  C   LIG    1       25.212 -29.755   9.283  0.00  0.00    +0.061 C 
ATOM     16  C   LIG    1       25.063 -30.702   8.122  0.00  0.00    +0.103 A 
ATOM     17  C   LIG    1       24.511 -31.970   8.293  0.00  0.00    +0.238 A 
ATOM     18  O   LIG    1       24.104 -32.388   9.543  0.00  0.00    -0.470 OA
ATOM     19  C   LIG    1       22.756 -32.881   9.523  0.00  0.00    +0.195 C 
ATOM     20  N   LIG    1       24.419 -32.859   7.281  0.00  0.00    -0.210 NA
ATOM     21  C   LIG    1       24.859 -32.445   6.077  0.00  0.00    +0.097 A 
ATOM     22  C   LIG    1       25.361 -31.139   5.872  0.00  0.00    +0.090 A 
ATOM     23  C   LIG    1       25.781 -30.766   4.602  0.00  0.00    +0.033 A 
ATOM     24  C   LIG    1       25.722 -31.661   3.533  0.00  0.00    +0.048 A 
ATOM     25  C   LIG    1       25.223 -32.943   3.732  0.00  0.00    +0.122 A 
ATOM     26  C   LIG    1       24.813 -33.327   5.008  0.00  0.00    +0.075 A 
ATOM     27  N   LIG    1       25.450 -30.267   6.890  0.00  0.00    -0.245 NA
ATOM     28  C   LIG    1       25.271 -26.361  14.877  0.00  0.00    +0.052 C 
ATOM     29  O   LIG    1       22.980 -29.730  15.365  0.00  0.00    -0.227 OA
ATOM     30  O   LIG    1       20.345 -29.831  11.008  0.00  0.00    -0.274 OA
ATOM     31  C   LIG    1       21.774 -31.745   9.789  0.00  0.00    +0.153 C 
ATOM     32  C   LIG    1       22.517 -33.812  10.719  0.00  0.00    +0.078 C 
ENDROOT
BRANCH   1  35
ATOM     33  N   LIG    1       24.416 -32.325  12.355  0.00  0.00    -0.299 N 
ATOM     34  H   LIG    1       24.434 -32.051  11.382  0.00  0.00    +0.150 HD
ATOM     35  C   LIG    1       23.240 -32.820  12.913  0.00  0.00    +0.234 C 
ATOM     36  O   LIG    1       23.103 -33.142  14.088  0.00  0.00    -0.274 OA
BRANCH  33  38
ATOM     37  C   LIG    1       25.618 -32.198  14.630  0.00  0.00    +0.046 C 
ATOM     38  C   LIG    1       25.646 -32.099  13.105  0.00  0.00    +0.118 C 
ATOM     39  C   LIG    1       26.209 -33.320  13.835  0.00  0.00    +0.046 C 
BRANCH  37  41
ATOM     40  C   LIG    1       26.587 -30.064  15.487  0.00  0.00    +0.004 C 
ATOM     41  C   LIG    1       26.493 -31.401  15.500  0.00  0.00    -0.028 C 
ENDBRANCH  37  41
BRANCH  38  42
ATOM     42  C   LIG    1       26.657 -31.219  12.401  0.00  0.00    +0.231 C 
ATOM     43  N   LIG    1       27.467 -30.495  13.088  0.00  0.00    -0.098 NA
BRANCH  43  44
ATOM     44  S   LIG    1       28.581 -29.556  12.413  0.00  0.00    +0.075 S 
ATOM     45  O   LIG    1       28.358 -28.186  12.830  0.00  0.00    -0.151 OA
ATOM     46  O   LIG    1       28.697 -29.896  11.008  0.00  0.00    -0.151 OA
BRANCH  44  47
ATOM     47  C   LIG    1       30.147 -30.048  13.215  0.00  0.00    +0.155 C 
ATOM     48  C   LIG    1       30.885 -28.946  13.931  0.00  0.00    +0.030 C 
ATOM     49  C   LIG    1       30.105 -29.961  14.720  0.00  0.00    +0.030 C 
ENDBRANCH  44  47
ENDBRANCH  43  44
BRANCH  42  50
ATOM     50  O   LIG    1       26.644 -31.347  11.058  0.00  0.00    -0.493 OA
ATOM     51  H   LIG    1       25.829 -30.973  10.665  0.00  0.00    +0.293 HD
ENDBRANCH  42  50
ENDBRANCH  38  42
ENDBRANCH  33  38
ENDBRANCH   1  35
BRANCH   4  52
ATOM     52  C   LIG    1       19.603 -29.846  13.937  0.00  0.00    -0.011 C 
ATOM     53  C   LIG    1       19.384 -28.352  13.651  0.00  0.00    +0.013 C 
ATOM     54  C   LIG    1       19.529 -30.076  15.464  0.00  0.00    +0.013 C 
ATOM     55  C   LIG    1       18.411 -30.613  13.310  0.00  0.00    +0.013 C 
ENDBRANCH   4  52
BRANCH  25  56
ATOM     56  O   LIG    1       25.212 -33.758   2.633  0.00  0.00    -0.495 OA
ATOM     57  C   LIG    1       26.428 -33.781   1.888  0.00  0.00    +0.277 C 
ENDBRANCH  25  56
TORSDOF 9
ENDMDL
MODEL 2
REMARK VINA RESULT:      -1.1      2.509      7.792
REMARK  Name = *****
REMARK                            x       y       z     vdW  Elec       q    Type
REMARK                         _______ _______ _______ _____ _____    ______ ____
ROOT
ATOM      1  C   LIG    1       25.793 -31.589  11.800  0.00  0.00    +0.166 C 
ATOM      2  N   LIG    1       25.528 -31.209  13.188  0.00  0.00    -0.285 N 
ATOM      3  C   LIG    1       26.436 -30.785  14.143  0.00  0.00    +0.237 C 
ATOM      4  C   LIG    1       27.705 -29.994  13.709  0.00  0.00    +0.168 C 
ATOM      5  N   LIG    1       27.279 -28.611  13.892  0.00  0.00    -0.269 N 
ATOM      6  H   LIG    1       26.750 -28.387  14.723  0.00  0.00    +0.153 HD
ATOM      7  C   LIG    1       27.731 -27.548  13.181  0.00  0.00    +0.401 C 
ATOM      8  O   LIG    1       27.391 -26.428  13.867  0.00  0.00    -0.447 OA
ATOM      9  C   LIG    1       26.639 -25.443  13.157  0.00  0.00    +0.182 C 
ATOM     10  C   LIG    1       25.708 -24.701  14.092  0.00  0.00    +0.033 C 
ATOM     11  C   LIG    1       24.285 -24.549  13.663  0.00  0.00    +0.007 C 
ATOM     12  C   LIG    1       23.507 -25.823  14.012  0.00  0.00    +0.000 C 
ATOM     13  C   LIG    1       22.163 -25.862  13.296  0.00  0.00    +0.000 C 
ATOM     14  C   LIG    1       21.333 -27.102  13.628  0.00  0.00    +0.006 C 
ATOM     15  C   LIG    1       22.053 -28.419  13.302  0.00  0.00    +0.061 C 
ATOM     16  C   LIG    1       21.118 -29.593  13.175  0.00  0.00    +0.103 A 
ATOM     17  C   LIG    1       21.508 -30.756  12.515  0.00  0.00    +0.238 A 
ATOM     18  O   LIG    1       22.762 -30.847  11.947  0.00  0.00    -0.470 OA
ATOM     19  C   LIG    1       23.452 -32.031  12.372  0.00  0.00    +0.195 C 
ATOM     20  N   LIG    1       20.670 -31.800  12.337  0.00  0.00    -0.210 NA
ATOM     21  C   LIG    1       19.437 -31.676  12.865  0.00  0.00    +0.097 A 
ATOM     22  C   LIG    1       19.047 -30.529  13.594  0.00  0.00    +0.090 A 
ATOM     23  C   LIG    1       17.768 -30.469  14.130  0.00  0.00    +0.033 A 
ATOM     24  C   LIG    1       16.864 -31.518  13.954  0.00  0.00    +0.048 A 
ATOM     25  C   LIG    1       17.248 -32.648  13.241  0.00  0.00    +0.122 A 
ATOM     26  C   LIG    1       18.527 -32.707  12.689  0.00  0.00    +0.075 A 
ATOM     27  N   LIG    1       19.892 -29.497  13.759  0.00  0.00    -0.245 NA
ATOM     28  C   LIG    1       26.866 -23.988  13.453  0.00  0.00    +0.052 C 
ATOM     29  O   LIG    1       28.374 -27.577  12.156  0.00  0.00    -0.227 OA
ATOM     30  O   LIG    1       26.125 -30.857  15.337  0.00  0.00    -0.274 OA
ATOM     31  C   LIG    1       24.252 -31.749  13.640  0.00  0.00    +0.153 C 
ATOM     32  C   LIG    1       24.549 -32.394  11.363  0.00  0.00    +0.078 C 
ENDROOT
BRANCH   1  35
ATOM     33  N   LIG    1       25.494 -30.749   9.534  0.00  0.00    -0.299 N 
ATOM     34  H   LIG    1       24.990 -31.615   9.396  0.00  0.00    +0.150 HD
ATOM     35  C   LIG    1       26.046 -30.460  10.779  0.00  0.00    +0.234 C 
ATOM     36  O   LIG    1       26.640 -29.425  11.059  0.00  0.00    -0.274 OA
BRANCH  33  38
ATOM     37  C   LIG    1       25.232 -28.359   8.610  0.00  0.00    +0.046 C 
ATOM     38  C   LIG    1       25.529 -29.843   8.392  0.00  0.00    +0.118 C 
ATOM     39  C   LIG    1       26.648 -28.800   8.409  0.00  0.00    +0.046 C 
BRANCH  37  41
ATOM     40  C   LIG    1       25.153 -27.162   6.423  0.00  0.00    +0.004 C 
ATOM     41  C   LIG    1       24.598 -27.512   7.592  0.00  0.00    -0.028 C 
ENDBRANCH  37  41
BRANCH  38  42
ATOM     42  C   LIG    1       25.253 -30.503   7.058  0.00  0.00    +0.231 C 
ATOM     43  N   LIG    1       25.777 -31.645   6.785  0.00  0.00    -0.098 NA
BRANCH  43  44
ATOM     44  S   LIG    1       25.511 -32.415   5.401  0.00  0.00    +0.075 S 
ATOM     45  O   LIG    1       25.948 -31.577   4.304  0.00  0.00    -0.151 OA
ATOM     46  O   LIG    1       24.174 -32.976   5.423  0.00  0.00    -0.151 OA
BRANCH  44  47
ATOM     47  C   LIG    1       26.682 -33.818   5.422  0.00  0.00    +0.155 C 
ATOM     48  C   LIG    1       27.797 -33.749   4.411  0.00  0.00    +0.030 C 
ATOM     49  C   LIG    1       28.075 -33.432   5.854  0.00  0.00    +0.030 C 
ENDBRANCH  44  47
ENDBRANCH  43  44
BRANCH  42  50
ATOM     50  O   LIG    1       24.387 -29.816   6.284  0.00  0.00    -0.493 OA
ATOM     51  H   LIG    1       24.749 -29.653   5.388  0.00  0.00    +0.293 HD
ENDBRANCH  42  50
ENDBRANCH  38  42
ENDBRANCH  33  38
ENDBRANCH   1  35
BRANCH   4  52
ATOM     52  C   LIG    1       28.989 -30.264  14.576  0.00  0.00    -0.011 C 
ATOM     53  C   LIG    1       28.796 -31.522  15.438  0.00  0.00    +0.013 C 
ATOM     54  C   LIG    1       29.361 -29.080  15.499  0.00  0.00    +0.013 C 
ATOM     55  C   LIG    1       30.212 -30.519  13.660  0.00  0.00    +0.013 C 
ENDBRANCH   4  52
BRANCH  25  56
ATOM     56  O   LIG    1       16.297 -33.621  13.105  0.00  0.00    -0.495 OA
ATOM     57  C   LIG    1       15.829 -33.825  11.773  0.00  0.00    +0.277 C 
ENDBRANCH  25  56
TORSDOF 9
ENDMDL
