MODEL 1
REMARK VINA RESULT:       6.4      0.000      0.000
REMARK  Name = *****
REMARK                            x       y       z     vdW  Elec       q    Type
REMARK                         _______ _______ _______ _____ _____    ______ ____
ROOT
ATOM      1  C   LIG    1       25.529 -17.654   3.195  0.00  0.00    -0.021 C 
ATOM      2  C   LIG    1       25.568 -16.342   3.517  0.00  0.00    -0.035 C 
ATOM      3  C   LIG    1       26.822 -15.504   3.338  0.00  0.00    +0.059 C 
ATOM      4  C   LIG    1       26.682 -14.495   2.158  0.00  0.00    +0.085 C 
ATOM      5  C   LIG    1       27.623 -13.323   2.285  0.00  0.00    -0.011 C 
ATOM      6  C   LIG    1       28.161 -12.947   3.471  0.00  0.00    +0.009 C 
ATOM      7  C   LIG    1       27.854 -13.648   4.700  0.00  0.00    +0.051 C 
ATOM      8  S   LIG    1       25.003 -13.776   1.832  0.00  0.00    -0.116 S 
ATOM      9  C   LIG    1       24.031 -14.411   3.191  0.00  0.00    +0.016 A 
ATOM     10  C   LIG    1       22.846 -13.734   3.512  0.00  0.00    +0.015 A 
ATOM     11  C   LIG    1       22.054 -14.153   4.582  0.00  0.00    +0.001 A 
ATOM     12  C   LIG    1       22.457 -15.230   5.364  0.00  0.00    +0.001 A 
ATOM     13  C   LIG    1       23.624 -15.924   5.041  0.00  0.00    +0.009 A 
ATOM     14  C   LIG    1       27.260 -14.863   4.644  0.00  0.00    -0.005 C 
ATOM     15  C   LIG    1       24.387 -15.557   3.920  0.00  0.00    -0.008 A 
ENDROOT
BRANCH   7  16
ATOM     16  C   LIG    1       28.246 -13.014   6.015  0.00  0.00    +0.417 C 
ATOM     17  F   LIG    1       28.575 -13.949   6.945  0.00  0.00    -0.166 F 
ATOM     18  F   LIG    1       27.228 -12.283   6.542  0.00  0.00    -0.166 F 
ATOM     19  F   LIG    1       29.313 -12.179   5.910  0.00  0.00    -0.166 F 
ENDBRANCH   7  16
BRANCH   1  20
ATOM     20  C   LIG    1       24.338 -18.589   3.177  0.00  0.00    +0.043 C 
BRANCH  20  21
ATOM     21  C   LIG    1       23.762 -18.809   4.594  0.00  0.00    +0.088 C 
BRANCH  21  25
ATOM     22  N   LIG    1       25.474 -21.570   6.417  0.00  0.00    -0.298 NA
ATOM     23  C   LIG    1       25.519 -21.375   4.955  0.00  0.00    +0.100 C 
ATOM     24  C   LIG    1       24.153 -21.189   4.256  0.00  0.00    +0.100 C 
ATOM     25  N   LIG    1       23.268 -20.173   4.864  0.00  0.00    -0.300 NA
ATOM     26  C   LIG    1       23.140 -20.510   6.294  0.00  0.00    +0.100 C 
ATOM     27  C   LIG    1       24.473 -20.693   7.062  0.00  0.00    +0.100 C 
BRANCH  22  28
ATOM     28  C   LIG    1       26.809 -21.350   7.032  0.00  0.00    +0.112 C 
BRANCH  28  29
ATOM     29  C   LIG    1       27.625 -20.136   6.529  0.00  0.00    +0.171 C 
BRANCH  29  30
ATOM     30  O   LIG    1       27.731 -20.106   5.107  0.00  0.00    -0.394 OA
ATOM     31  H   LIG    1       27.823 -19.174   4.845  0.00  0.00    +0.209 HD
ENDBRANCH  29  30
ENDBRANCH  28  29
ENDBRANCH  22  28
ENDBRANCH  21  25
ENDBRANCH  20  21
ENDBRANCH   1  20
TORSDOF 7
ENDMDL
MODEL 2
REMARK VINA RESULT:       8.7      1.410      1.835
REMARK  Name = *****
REMARK                            x       y       z     vdW  Elec       q    Type
REMARK                         _______ _______ _______ _____ _____    ______ ____
ROOT
ATOM      1  C   LIG    1       23.963 -16.225   4.036  0.00  0.00    -0.021 C 
ATOM      2  C   LIG    1       24.517 -14.992   4.041  0.00  0.00    -0.035 C 
ATOM      3  C   LIG    1       25.914 -14.734   3.504  0.00  0.00    +0.059 C 
ATOM      4  C   LIG    1       25.882 -13.953   2.156  0.00  0.00    +0.085 C 
ATOM      5  C   LIG    1       27.173 -13.221   1.880  0.00  0.00    -0.011 C 
ATOM      6  C   LIG    1       28.047 -12.892   2.864  0.00  0.00    +0.009 C 
ATOM      7  C   LIG    1       27.785 -13.215   4.251  0.00  0.00    +0.051 C 
ATOM      8  S   LIG    1       24.525 -12.713   1.909  0.00  0.00    -0.116 S 
ATOM      9  C   LIG    1       23.706 -12.703   3.498  0.00  0.00    +0.016 A 
ATOM     10  C   LIG    1       22.922 -11.585   3.815  0.00  0.00    +0.015 A 
ATOM     11  C   LIG    1       22.280 -11.492   5.051  0.00  0.00    +0.001 A 
ATOM     12  C   LIG    1       22.446 -12.501   5.995  0.00  0.00    +0.001 A 
ATOM     13  C   LIG    1       23.206 -13.628   5.681  0.00  0.00    +0.009 A 
ATOM     14  C   LIG    1       26.813 -14.105   4.556  0.00  0.00    -0.005 C 
ATOM     15  C   LIG    1       23.792 -13.764   4.412  0.00  0.00    -0.008 A 
ENDROOT
BRANCH   7  16
ATOM     16  C   LIG    1       28.641 -12.574   5.319  0.00  0.00    +0.417 C 
ATOM     17  F   LIG    1       29.425 -13.487   5.949  0.00  0.00    -0.166 F 
ATOM     18  F   LIG    1       27.882 -11.983   6.281  0.00  0.00    -0.166 F 
ATOM     19  F   LIG    1       29.473 -11.615   4.834  0.00  0.00    -0.166 F 
ENDBRANCH   7  16
BRANCH   1  20
ATOM     20  C   LIG    1       22.548 -16.628   4.396  0.00  0.00    +0.043 C 
BRANCH  20  21
ATOM     21  C   LIG    1       22.114 -17.914   3.659  0.00  0.00    +0.088 C 
BRANCH  21  25
ATOM     22  N   LIG    1       24.311 -20.680   4.843  0.00  0.00    -0.298 NA
ATOM     23  C   LIG    1       23.455 -20.743   3.642  0.00  0.00    +0.100 C 
ATOM     24  C   LIG    1       21.977 -20.339   3.844  0.00  0.00    +0.100 C 
ATOM     25  N   LIG    1       21.765 -19.050   4.535  0.00  0.00    -0.300 NA
ATOM     26  C   LIG    1       22.523 -19.106   5.799  0.00  0.00    +0.100 C 
ATOM     27  C   LIG    1       24.019 -19.488   5.668  0.00  0.00    +0.100 C 
BRANCH  22  28
ATOM     28  C   LIG    1       25.752 -20.703   4.480  0.00  0.00    +0.112 C 
BRANCH  28  29
ATOM     29  C   LIG    1       26.771 -20.660   5.642  0.00  0.00    +0.171 C 
BRANCH  29  30
ATOM     30  O   LIG    1       27.956 -19.944   5.297  0.00  0.00    -0.394 OA
ATOM     31  H   LIG    1       28.663 -20.258   5.887  0.00  0.00    +0.209 HD
ENDBRANCH  29  30
ENDBRANCH  28  29
ENDBRANCH  22  28
ENDBRANCH  21  25
ENDBRANCH  20  21
ENDBRANCH   1  20
TORSDOF 7
ENDMDL
MODEL 3
REMARK VINA RESULT:       9.1      4.222      7.603
REMARK  Name = *****
REMARK                            x       y       z     vdW  Elec       q    Type
REMARK                         _______ _______ _______ _____ _____    ______ ____
ROOT
ATOM      1  C   LIG    1       26.391 -16.681   3.661  0.00  0.00    -0.021 C 
ATOM      2  C   LIG    1       26.185 -17.939   4.112  0.00  0.00    -0.035 C 
ATOM      3  C   LIG    1       24.950 -18.739   3.736  0.00  0.00    +0.059 C 
ATOM      4  C   LIG    1       25.287 -19.895   2.745  0.00  0.00    +0.085 C 
ATOM      5  C   LIG    1       24.261 -21.001   2.777  0.00  0.00    -0.011 C 
ATOM      6  C   LIG    1       23.437 -21.199   3.836  0.00  0.00    +0.009 C 
ATOM      7  C   LIG    1       23.501 -20.361   5.015  0.00  0.00    +0.051 C 
ATOM      8  S   LIG    1       26.940 -20.720   2.913  0.00  0.00    -0.116 S 
ATOM      9  C   LIG    1       27.614 -19.959   4.383  0.00  0.00    +0.016 A 
ATOM     10  C   LIG    1       28.641 -20.640   5.051  0.00  0.00    +0.015 A 
ATOM     11  C   LIG    1       29.193 -20.123   6.224  0.00  0.00    +0.001 A 
ATOM     12  C   LIG    1       28.697 -18.938   6.760  0.00  0.00    +0.001 A 
ATOM     13  C   LIG    1       27.690 -18.242   6.091  0.00  0.00    +0.009 A 
ATOM     14  C   LIG    1       24.178 -19.190   4.964  0.00  0.00    -0.005 C 
ATOM     15  C   LIG    1       27.183 -18.716   4.870  0.00  0.00    -0.008 A 
ENDROOT
BRANCH   7  16
ATOM     16  C   LIG    1       22.772 -20.806   6.262  0.00  0.00    +0.417 C 
ATOM     17  F   LIG    1       22.371 -19.746   7.013  0.00  0.00    -0.166 F 
ATOM     18  F   LIG    1       23.564 -21.570   7.059  0.00  0.00    -0.166 F 
ATOM     19  F   LIG    1       21.659 -21.538   5.998  0.00  0.00    -0.166 F 
ENDBRANCH   7  16
BRANCH   1  20
ATOM     20  C   LIG    1       27.618 -15.808   3.821  0.00  0.00    +0.043 C 
BRANCH  20  21
ATOM     21  C   LIG    1       27.620 -14.636   2.815  0.00  0.00    +0.088 C 
BRANCH  21  25
ATOM     22  N   LIG    1       24.502 -13.086   4.138  0.00  0.00    -0.298 NA
ATOM     23  C   LIG    1       25.005 -12.914   2.762  0.00  0.00    +0.100 C 
ATOM     24  C   LIG    1       26.485 -12.488   2.632  0.00  0.00    +0.100 C 
ATOM     25  N   LIG    1       27.445 -13.298   3.413  0.00  0.00    -0.300 NA
ATOM     26  C   LIG    1       26.969 -13.306   4.809  0.00  0.00    +0.100 C 
ATOM     27  C   LIG    1       25.497 -13.741   5.014  0.00  0.00    +0.100 C 
BRANCH  22  28
ATOM     28  C   LIG    1       23.229 -13.854   4.155  0.00  0.00    +0.112 C 
BRANCH  28  29
ATOM     29  C   LIG    1       23.322 -15.363   4.480  0.00  0.00    +0.171 C 
BRANCH  29  30
ATOM     30  O   LIG    1       22.273 -15.797   5.344  0.00  0.00    -0.394 OA
ATOM     31  H   LIG    1       22.523 -16.674   5.680  0.00  0.00    +0.209 HD
ENDBRANCH  29  30
ENDBRANCH  28  29
ENDBRANCH  22  28
ENDBRANCH  21  25
ENDBRANCH  20  21
ENDBRANCH   1  20
TORSDOF 7
ENDMDL
