MODEL 1
REMARK VINA RESULT:      -5.7      0.000      0.000
REMARK  Name = *****
REMARK                            x       y       z     vdW  Elec       q    Type
REMARK                         _______ _______ _______ _____ _____    ______ ____
ROOT
ATOM      1  C   LIG    1       26.006 -30.847  12.356  0.00  0.00    +0.191 C 
ATOM      2  C   LIG    1       26.246 -31.042  13.942  0.00  0.00    +0.174 C 
ATOM      3  N   LIG    1       26.876 -29.924  14.628  0.00  0.00    -0.307 N 
ATOM      4  C   LIG    1       26.331 -28.683  14.800  0.00  0.00    +0.077 A 
ATOM      5  C   LIG    1       27.189 -27.597  15.014  0.00  0.00    +0.015 A 
ATOM      6  C   LIG    1       26.990 -26.216  14.822  0.00  0.00    -0.008 A 
ATOM      7  C   LIG    1       27.912 -25.087  14.718  0.00  0.00    +0.141 C 
ATOM      8  N   LIG    1       26.978 -24.061  14.291  0.00  0.00    -0.307 N 
ATOM      9  H   LIG    1       27.238 -23.115  14.052  0.00  0.00    +0.149 HD
ATOM     10  C   LIG    1       25.649 -24.462  14.110  0.00  0.00    +0.245 C 
ATOM     11  O   LIG    1       24.803 -23.691  13.715  0.00  0.00    -0.270 OA
ATOM     12  C   LIG    1       25.676 -25.860  14.448  0.00  0.00    +0.052 A 
ATOM     13  C   LIG    1       24.787 -26.959  14.388  0.00  0.00    +0.022 A 
ATOM     14  C   LIG    1       23.441 -26.934  13.942  0.00  0.00    +0.009 A 
ATOM     15  C   LIG    1       22.953 -28.294  13.949  0.00  0.00    +0.052 A 
ATOM     16  N   LIG    1       23.990 -29.208  14.253  0.00  0.00    -0.311 N 
ATOM     17  C   LIG    1       23.899 -30.658  14.194  0.00  0.00    +0.224 C 
ATOM     18  C   LIG    1       23.534 -31.288  12.837  0.00  0.00    +0.080 C 
ATOM     19  C   LIG    1       21.607 -28.570  13.628  0.00  0.00    +0.026 A 
ATOM     20  C   LIG    1       20.774 -27.536  13.201  0.00  0.00    +0.002 A 
ATOM     21  C   LIG    1       21.242 -26.235  13.120  0.00  0.00    +0.001 A 
ATOM     22  C   LIG    1       22.551 -25.927  13.504  0.00  0.00    +0.010 A 
ATOM     23  C   LIG    1       28.443 -28.236  15.146  0.00  0.00    +0.008 A 
ATOM     24  C   LIG    1       29.766 -27.781  15.374  0.00  0.00    +0.010 A 
ATOM     25  C   LIG    1       30.825 -28.681  15.499  0.00  0.00    +0.001 A 
ATOM     26  C   LIG    1       30.597 -30.041  15.403  0.00  0.00    +0.002 A 
ATOM     27  C   LIG    1       29.319 -30.539  15.140  0.00  0.00    +0.026 A 
ATOM     28  C   LIG    1       25.008 -28.342  14.527  0.00  0.00    +0.077 A 
ATOM     29  C   LIG    1       28.226 -29.662  14.976  0.00  0.00    +0.053 A 
ATOM     30  C   LIG    1       27.000 -32.375  14.114  0.00  0.00    +0.069 C 
ATOM     31  O   LIG    1       25.052 -31.290  14.706  0.00  0.00    -0.328 OA
ATOM     32  C   LIG    1       24.748 -31.672  11.948  0.00  0.00    +0.114 C 
ENDROOT
BRANCH  32  33
ATOM     33  N   LIG    1       24.454 -31.688  10.457  0.00  0.00    -0.295 N 
ATOM     34  C   LIG    1       25.370 -32.299   9.555  0.00  0.00    +0.247 C 
ATOM     35  O   LIG    1       26.423 -32.795   9.965  0.00  0.00    -0.270 OA
ATOM     36  C   LIG    1       23.227 -31.056   9.993  0.00  0.00    +0.133 C 
BRANCH  34  37
ATOM     37  C   LIG    1       25.057 -32.459   8.070  0.00  0.00    +0.037 A 
ATOM     38  C   LIG    1       24.287 -33.499   7.534  0.00  0.00    +0.013 A 
ATOM     39  C   LIG    1       24.186 -33.710   6.152  0.00  0.00    +0.001 A 
ATOM     40  C   LIG    1       24.729 -32.789   5.267  0.00  0.00    +0.000 A 
ATOM     41  C   LIG    1       25.356 -31.653   5.773  0.00  0.00    +0.001 A 
ATOM     42  C   LIG    1       25.537 -31.499   7.160  0.00  0.00    +0.013 A 
ENDBRANCH  34  37
ENDBRANCH  32  33
BRANCH   1  44
ATOM     43  C   LIG    1       26.755 -28.956  11.048  0.00  0.00    +0.194 C 
ATOM     44  O   LIG    1       25.755 -29.502  11.902  0.00  0.00    -0.373 OA
ENDBRANCH   1  44
TORSDOF 3
ENDMDL
MODEL 2
REMARK VINA RESULT:      -5.2      2.367      4.170
REMARK  Name = *****
REMARK                            x       y       z     vdW  Elec       q    Type
REMARK                         _______ _______ _______ _____ _____    ______ ____
ROOT
ATOM      1  C   LIG    1       25.459 -30.435  10.985  0.00  0.00    +0.191 C 
ATOM      2  C   LIG    1       26.091 -30.089  12.431  0.00  0.00    +0.174 C 
ATOM      3  N   LIG    1       25.459 -28.993  13.150  0.00  0.00    -0.307 N 
ATOM      4  C   LIG    1       24.183 -28.989  13.638  0.00  0.00    +0.077 A 
ATOM      5  C   LIG    1       23.550 -27.758  13.851  0.00  0.00    +0.015 A 
ATOM      6  C   LIG    1       22.183 -27.430  13.940  0.00  0.00    -0.008 A 
ATOM      7  C   LIG    1       21.459 -26.165  13.841  0.00  0.00    +0.141 C 
ATOM      8  N   LIG    1       20.102 -26.676  13.795  0.00  0.00    -0.307 N 
ATOM      9  H   LIG    1       19.280 -26.102  13.671  0.00  0.00    +0.149 HD
ATOM     10  C   LIG    1       19.956 -28.067  13.827  0.00  0.00    +0.245 C 
ATOM     11  O   LIG    1       18.867 -28.592  13.753  0.00  0.00    -0.270 OA
ATOM     12  C   LIG    1       21.312 -28.540  13.911  0.00  0.00    +0.052 A 
ATOM     13  C   LIG    1       21.982 -29.784  13.852  0.00  0.00    +0.022 A 
ATOM     14  C   LIG    1       21.382 -31.061  13.705  0.00  0.00    +0.009 A 
ATOM     15  C   LIG    1       22.446 -32.033  13.582  0.00  0.00    +0.052 A 
ATOM     16  N   LIG    1       23.709 -31.400  13.507  0.00  0.00    -0.311 N 
ATOM     17  C   LIG    1       24.978 -32.051  13.223  0.00  0.00    +0.224 C 
ATOM     18  C   LIG    1       25.103 -32.802  11.884  0.00  0.00    +0.080 C 
ATOM     19  C   LIG    1       22.148 -33.409  13.504  0.00  0.00    +0.026 A 
ATOM     20  C   LIG    1       20.818 -33.824  13.439  0.00  0.00    +0.002 A 
ATOM     21  C   LIG    1       19.784 -32.904  13.485  0.00  0.00    +0.001 A 
ATOM     22  C   LIG    1       20.054 -31.541  13.637  0.00  0.00    +0.010 A 
ATOM     23  C   LIG    1       24.600 -26.843  13.611  0.00  0.00    +0.008 A 
ATOM     24  C   LIG    1       24.706 -25.429  13.634  0.00  0.00    +0.010 A 
ATOM     25  C   LIG    1       25.923 -24.794  13.384  0.00  0.00    +0.001 A 
ATOM     26  C   LIG    1       27.053 -25.541  13.108  0.00  0.00    +0.002 A 
ATOM     27  C   LIG    1       26.994 -26.934  13.035  0.00  0.00    +0.026 A 
ATOM     28  C   LIG    1       23.346 -30.100  13.707  0.00  0.00    +0.077 A 
ATOM     29  C   LIG    1       25.777 -27.614  13.251  0.00  0.00    +0.053 A 
ATOM     30  C   LIG    1       27.605 -29.894  12.215  0.00  0.00    +0.069 C 
ATOM     31  O   LIG    1       26.076 -31.177  13.371  0.00  0.00    -0.328 OA
ATOM     32  C   LIG    1       25.670 -31.956  10.712  0.00  0.00    +0.114 C 
ENDROOT
BRANCH  32  33
ATOM     33  N   LIG    1       25.231 -32.421   9.333  0.00  0.00    -0.295 N 
ATOM     34  C   LIG    1       25.961 -32.020   8.179  0.00  0.00    +0.247 C 
ATOM     35  O   LIG    1       26.936 -31.270   8.277  0.00  0.00    -0.270 OA
ATOM     36  C   LIG    1       24.051 -33.268   9.238  0.00  0.00    +0.133 C 
BRANCH  34  37
ATOM     37  C   LIG    1       25.643 -32.568   6.791  0.00  0.00    +0.037 A 
ATOM     38  C   LIG    1       24.396 -32.454   6.164  0.00  0.00    +0.013 A 
ATOM     39  C   LIG    1       24.098 -33.134   4.975  0.00  0.00    +0.001 A 
ATOM     40  C   LIG    1       25.094 -33.825   4.302  0.00  0.00    +0.000 A 
ATOM     41  C   LIG    1       26.389 -33.815   4.814  0.00  0.00    +0.001 A 
ATOM     42  C   LIG    1       26.658 -33.211   6.057  0.00  0.00    +0.013 A 
ENDBRANCH  34  37
ENDBRANCH  32  33
BRANCH   1  44
ATOM     43  C   LIG    1       23.651 -29.722   9.545  0.00  0.00    +0.194 C 
ATOM     44  O   LIG    1       24.045 -30.202  10.826  0.00  0.00    -0.373 OA
ENDBRANCH   1  44
TORSDOF 3
ENDMDL
MODEL 3
REMARK VINA RESULT:      -4.9      4.035      7.896
REMARK  Name = *****
REMARK                            x       y       z     vdW  Elec       q    Type
REMARK                         _______ _______ _______ _____ _____    ______ ____
ROOT
ATOM      1  C   LIG    1       24.869 -30.623  10.731  0.00  0.00    +0.191 C 
ATOM      2  C   LIG    1       25.083 -31.983  11.577  0.00  0.00    +0.174 C 
ATOM      3  N   LIG    1       23.867 -32.680  11.970  0.00  0.00    -0.307 N 
ATOM      4  C   LIG    1       22.978 -33.275  11.120  0.00  0.00    +0.077 A 
ATOM      5  C   LIG    1       21.659 -33.460  11.551  0.00  0.00    +0.015 A 
ATOM      6  C   LIG    1       20.470 -33.646  10.819  0.00  0.00    -0.008 A 
ATOM      7  C   LIG    1       19.058 -33.525  11.175  0.00  0.00    +0.141 C 
ATOM      8  N   LIG    1       18.473 -33.631   9.851  0.00  0.00    -0.307 N 
ATOM      9  H   LIG    1       17.487 -33.542   9.653  0.00  0.00    +0.149 HD
ATOM     10  C   LIG    1       19.366 -33.769   8.782  0.00  0.00    +0.245 C 
ATOM     11  O   LIG    1       18.979 -33.824   7.636  0.00  0.00    -0.270 OA
ATOM     12  C   LIG    1       20.653 -33.766   9.425  0.00  0.00    +0.052 A 
ATOM     13  C   LIG    1       22.010 -33.732   9.027  0.00  0.00    +0.022 A 
ATOM     14  C   LIG    1       22.502 -33.722   7.697  0.00  0.00    +0.009 A 
ATOM     15  C   LIG    1       23.938 -33.573   7.762  0.00  0.00    +0.052 A 
ATOM     16  N   LIG    1       24.368 -33.346   9.091  0.00  0.00    -0.311 N 
ATOM     17  C   LIG    1       25.718 -32.997   9.507  0.00  0.00    +0.224 C 
ATOM     18  C   LIG    1       26.324 -31.705   8.927  0.00  0.00    +0.080 C 
ATOM     19  C   LIG    1       24.713 -33.612   6.584  0.00  0.00    +0.026 A 
ATOM     20  C   LIG    1       24.079 -33.691   5.344  0.00  0.00    +0.002 A 
ATOM     21  C   LIG    1       22.699 -33.764   5.256  0.00  0.00    +0.001 A 
ATOM     22  C   LIG    1       21.915 -33.801   6.413  0.00  0.00    +0.010 A 
ATOM     23  C   LIG    1       21.736 -33.069  12.907  0.00  0.00    +0.008 A 
ATOM     24  C   LIG    1       20.800 -32.990  13.969  0.00  0.00    +0.010 A 
ATOM     25  C   LIG    1       21.193 -32.593  15.247  0.00  0.00    +0.001 A 
ATOM     26  C   LIG    1       22.514 -32.271  15.500  0.00  0.00    +0.002 A 
ATOM     27  C   LIG    1       23.467 -32.295  14.480  0.00  0.00    +0.026 A 
ATOM     28  C   LIG    1       23.188 -33.490   9.759  0.00  0.00    +0.077 A 
ATOM     29  C   LIG    1       23.105 -32.661  13.166  0.00  0.00    +0.053 A 
ATOM     30  C   LIG    1       25.999 -31.624  12.764  0.00  0.00    +0.069 C 
ATOM     31  O   LIG    1       25.862 -32.991  10.911  0.00  0.00    -0.328 OA
ATOM     32  C   LIG    1       26.100 -30.434   9.792  0.00  0.00    +0.114 C 
ENDROOT
BRANCH  32  33
ATOM     33  N   LIG    1       26.107 -29.133   9.007  0.00  0.00    -0.295 N 
ATOM     34  C   LIG    1       25.599 -29.097   7.678  0.00  0.00    +0.247 C 
ATOM     35  O   LIG    1       25.177 -30.123   7.136  0.00  0.00    -0.270 OA
ATOM     36  C   LIG    1       26.652 -27.946   9.652  0.00  0.00    +0.133 C 
BRANCH  34  37
ATOM     37  C   LIG    1       25.460 -27.792   6.901  0.00  0.00    +0.037 A 
ATOM     38  C   LIG    1       26.496 -26.868   6.719  0.00  0.00    +0.013 A 
ATOM     39  C   LIG    1       26.272 -25.601   6.162  0.00  0.00    +0.001 A 
ATOM     40  C   LIG    1       25.029 -25.287   5.632  0.00  0.00    +0.000 A 
ATOM     41  C   LIG    1       24.024 -26.250   5.645  0.00  0.00    +0.001 A 
ATOM     42  C   LIG    1       24.229 -27.483   6.292  0.00  0.00    +0.013 A 
ENDBRANCH  34  37
ENDBRANCH  32  33
BRANCH   1  44
ATOM     43  C   LIG    1       22.555 -29.977  10.451  0.00  0.00    +0.194 C 
ATOM     44  O   LIG    1       23.711 -30.573   9.872  0.00  0.00    -0.373 OA
ENDBRANCH   1  44
TORSDOF 3
ENDMDL
MODEL 4
REMARK VINA RESULT:      -4.5      2.239      4.154
REMARK  Name = *****
REMARK                            x       y       z     vdW  Elec       q    Type
REMARK                         _______ _______ _______ _____ _____    ______ ____
ROOT
ATOM      1  C   LIG    1       25.575 -30.278  12.362  0.00  0.00    +0.191 C 
ATOM      2  C   LIG    1       25.952 -30.110  13.924  0.00  0.00    +0.174 C 
ATOM      3  N   LIG    1       25.207 -29.088  14.646  0.00  0.00    -0.307 N 
ATOM      4  C   LIG    1       23.867 -29.112  14.908  0.00  0.00    +0.077 A 
ATOM      5  C   LIG    1       23.208 -27.900  15.148  0.00  0.00    +0.015 A 
ATOM      6  C   LIG    1       21.846 -27.556  15.042  0.00  0.00    -0.008 A 
ATOM      7  C   LIG    1       21.152 -26.273  14.965  0.00  0.00    +0.141 C 
ATOM      8  N   LIG    1       19.821 -26.748  14.632  0.00  0.00    -0.307 N 
ATOM      9  H   LIG    1       19.033 -26.148  14.437  0.00  0.00    +0.149 HD
ATOM     10  C   LIG    1       19.670 -28.131  14.481  0.00  0.00    +0.245 C 
ATOM     11  O   LIG    1       18.609 -28.622  14.163  0.00  0.00    -0.270 OA
ATOM     12  C   LIG    1       20.991 -28.638  14.739  0.00  0.00    +0.052 A 
ATOM     13  C   LIG    1       21.660 -29.881  14.653  0.00  0.00    +0.022 A 
ATOM     14  C   LIG    1       21.093 -31.121  14.262  0.00  0.00    +0.009 A 
ATOM     15  C   LIG    1       22.160 -32.094  14.212  0.00  0.00    +0.052 A 
ATOM     16  N   LIG    1       23.419 -31.483  14.424  0.00  0.00    -0.311 N 
ATOM     17  C   LIG    1       24.717 -32.125  14.287  0.00  0.00    +0.224 C 
ATOM     18  C   LIG    1       25.068 -32.724  12.912  0.00  0.00    +0.080 C 
ATOM     19  C   LIG    1       21.879 -33.447  13.928  0.00  0.00    +0.026 A 
ATOM     20  C   LIG    1       20.579 -33.825  13.592  0.00  0.00    +0.002 A 
ATOM     21  C   LIG    1       19.554 -32.895  13.566  0.00  0.00    +0.001 A 
ATOM     22  C   LIG    1       19.795 -31.563  13.915  0.00  0.00    +0.010 A 
ATOM     23  C   LIG    1       24.285 -26.986  15.196  0.00  0.00    +0.008 A 
ATOM     24  C   LIG    1       24.387 -25.586  15.397  0.00  0.00    +0.010 A 
ATOM     25  C   LIG    1       25.629 -24.953  15.431  0.00  0.00    +0.001 A 
ATOM     26  C   LIG    1       26.789 -25.687  15.268  0.00  0.00    +0.002 A 
ATOM     27  C   LIG    1       26.742 -27.062  15.027  0.00  0.00    +0.026 A 
ATOM     28  C   LIG    1       23.028 -30.207  14.706  0.00  0.00    +0.077 A 
ATOM     29  C   LIG    1       25.505 -27.736  14.955  0.00  0.00    +0.053 A 
ATOM     30  C   LIG    1       27.480 -29.923  13.992  0.00  0.00    +0.069 C 
ATOM     31  O   LIG    1       25.775 -31.295  14.718  0.00  0.00    -0.328 OA
ATOM     32  C   LIG    1       25.828 -31.763  11.957  0.00  0.00    +0.114 C 
ENDROOT
BRANCH  32  33
ATOM     33  N   LIG    1       25.630 -32.062  10.480  0.00  0.00    -0.295 N 
ATOM     34  C   LIG    1       26.547 -31.548   9.519  0.00  0.00    +0.247 C 
ATOM     35  O   LIG    1       27.490 -30.833   9.866  0.00  0.00    -0.270 OA
ATOM     36  C   LIG    1       24.484 -32.870  10.090  0.00  0.00    +0.133 C 
BRANCH  34  37
ATOM     37  C   LIG    1       26.470 -31.930   8.044  0.00  0.00    +0.037 A 
ATOM     38  C   LIG    1       27.127 -33.030   7.478  0.00  0.00    +0.013 A 
ATOM     39  C   LIG    1       27.179 -33.230   6.092  0.00  0.00    +0.001 A 
ATOM     40  C   LIG    1       26.442 -32.416   5.245  0.00  0.00    +0.000 A 
ATOM     41  C   LIG    1       25.642 -31.417   5.793  0.00  0.00    +0.001 A 
ATOM     42  C   LIG    1       25.670 -31.162   7.177  0.00  0.00    +0.013 A 
ENDBRANCH  34  37
ENDBRANCH  32  33
BRANCH   1  44
ATOM     43  C   LIG    1       24.048 -29.062  10.935  0.00  0.00    +0.194 C 
ATOM     44  O   LIG    1       24.209 -30.000  11.993  0.00  0.00    -0.373 OA
ENDBRANCH   1  44
TORSDOF 3
ENDMDL
MODEL 5
REMARK VINA RESULT:      -3.1      3.393      6.742
REMARK  Name = *****
REMARK                            x       y       z     vdW  Elec       q    Type
REMARK                         _______ _______ _______ _____ _____    ______ ____
ROOT
ATOM      1  C   LIG    1       22.544 -31.584   9.823  0.00  0.00    +0.191 C 
ATOM      2  C   LIG    1       23.816 -31.865   8.867  0.00  0.00    +0.174 C 
ATOM      3  N   LIG    1       24.852 -30.842   8.877  0.00  0.00    -0.307 N 
ATOM      4  C   LIG    1       25.644 -30.518   9.942  0.00  0.00    +0.077 A 
ATOM      5  C   LIG    1       26.221 -29.243   9.986  0.00  0.00    +0.015 A 
ATOM      6  C   LIG    1       26.713 -28.494  11.072  0.00  0.00    -0.008 A 
ATOM      7  C   LIG    1       27.022 -27.075  11.239  0.00  0.00    +0.141 C 
ATOM      8  N   LIG    1       27.240 -27.050  12.674  0.00  0.00    -0.307 N 
ATOM      9  H   LIG    1       27.432 -26.215  13.208  0.00  0.00    +0.149 HD
ATOM     10  C   LIG    1       27.069 -28.262  13.353  0.00  0.00    +0.245 C 
ATOM     11  O   LIG    1       27.188 -28.336  14.556  0.00  0.00    -0.270 OA
ATOM     12  C   LIG    1       26.719 -29.182  12.304  0.00  0.00    +0.052 A 
ATOM     13  C   LIG    1       26.277 -30.522  12.206  0.00  0.00    +0.022 A 
ATOM     14  C   LIG    1       26.072 -31.426  13.279  0.00  0.00    +0.009 A 
ATOM     15  C   LIG    1       25.515 -32.641  12.728  0.00  0.00    +0.052 A 
ATOM     16  N   LIG    1       25.227 -32.492  11.350  0.00  0.00    -0.311 N 
ATOM     17  C   LIG    1       24.519 -33.449  10.515  0.00  0.00    +0.224 C 
ATOM     18  C   LIG    1       23.085 -33.825  10.931  0.00  0.00    +0.080 C 
ATOM     19  C   LIG    1       25.281 -33.758  13.557  0.00  0.00    +0.026 A 
ATOM     20  C   LIG    1       25.490 -33.652  14.932  0.00  0.00    +0.002 A 
ATOM     21  C   LIG    1       25.957 -32.473  15.490  0.00  0.00    +0.001 A 
ATOM     22  C   LIG    1       26.266 -31.378  14.679  0.00  0.00    +0.010 A 
ATOM     23  C   LIG    1       25.880 -28.722   8.717  0.00  0.00    +0.008 A 
ATOM     24  C   LIG    1       26.117 -27.491   8.056  0.00  0.00    +0.010 A 
ATOM     25  C   LIG    1       25.676 -27.279   6.749  0.00  0.00    +0.001 A 
ATOM     26  C   LIG    1       24.995 -28.275   6.075  0.00  0.00    +0.002 A 
ATOM     27  C   LIG    1       24.701 -29.492   6.695  0.00  0.00    +0.026 A 
ATOM     28  C   LIG    1       25.734 -31.245  11.127  0.00  0.00    +0.077 A 
ATOM     29  C   LIG    1       25.102 -29.736   8.025  0.00  0.00    +0.053 A 
ATOM     30  C   LIG    1       23.256 -32.161   7.463  0.00  0.00    +0.069 C 
ATOM     31  O   LIG    1       24.528 -33.082   9.152  0.00  0.00    -0.328 OA
ATOM     32  C   LIG    1       21.969 -32.958  10.285  0.00  0.00    +0.114 C 
ENDROOT
BRANCH  32  33
ATOM     33  N   LIG    1       20.691 -32.870  11.102  0.00  0.00    -0.295 N 
ATOM     34  C   LIG    1       19.477 -32.456  10.486  0.00  0.00    +0.247 C 
ATOM     35  O   LIG    1       19.451 -32.136   9.294  0.00  0.00    -0.270 OA
ATOM     36  C   LIG    1       20.756 -33.209  12.516  0.00  0.00    +0.133 C 
BRANCH  34  37
ATOM     37  C   LIG    1       18.144 -32.481  11.228  0.00  0.00    +0.037 A 
ATOM     38  C   LIG    1       17.544 -31.358  11.811  0.00  0.00    +0.013 A 
ATOM     39  C   LIG    1       16.419 -31.464  12.641  0.00  0.00    +0.001 A 
ATOM     40  C   LIG    1       15.775 -32.684  12.784  0.00  0.00    +0.000 A 
ATOM     41  C   LIG    1       16.250 -33.787  12.079  0.00  0.00    +0.001 A 
ATOM     42  C   LIG    1       17.435 -33.693  11.325  0.00  0.00    +0.013 A 
ENDBRANCH  34  37
ENDBRANCH  32  33
BRANCH   1  44
ATOM     43  C   LIG    1       21.925 -29.738  11.257  0.00  0.00    +0.194 C 
ATOM     44  O   LIG    1       22.797 -30.841  11.033  0.00  0.00    -0.373 OA
ENDBRANCH   1  44
TORSDOF 3
ENDMDL
