MODEL 1
REMARK VINA RESULT:      12.4      0.000      0.000
REMARK  Name = *****
REMARK                            x       y       z     vdW  Elec       q    Type
REMARK                         _______ _______ _______ _____ _____    ______ ____
ROOT
ATOM      1  C   LIG    1       25.896 -14.719   5.856  0.00  0.00    +0.193 C 
ATOM      2  N   LIG    1       26.136 -13.834   4.365  0.00  0.00    +0.246 N 
ATOM      3  C   LIG    1       25.248 -12.531   4.766  0.00  0.00    +0.104 C 
ATOM      4  C   LIG    1       25.064 -12.525   3.348  0.00  0.00    +0.123 C 
ATOM      5  C   LIG    1       24.321 -14.270   3.402  0.00  0.00    +0.082 C 
ATOM      6  C   LIG    1       25.249 -15.881   3.670  0.00  0.00    +0.253 C 
ATOM      7  O   LIG    1       24.079 -16.735   3.513  0.00  0.00    -0.476 OA
ATOM      8  C   LIG    1       23.069 -16.030   4.242  0.00  0.00    +0.167 A 
ATOM      9  C   LIG    1       22.205 -16.591   5.148  0.00  0.00    +0.159 A 
ATOM     10  C   LIG    1       21.629 -15.752   6.116  0.00  0.00    +0.049 A 
ATOM     11  C   LIG    1       22.026 -14.392   6.246  0.00  0.00    +0.008 A 
ATOM     12  C   LIG    1       22.935 -13.850   5.342  0.00  0.00    -0.034 A 
ATOM     13  C   LIG    1       27.123 -15.666   3.313  0.00  0.00    +0.174 C 
ATOM     14  O   LIG    1       27.909 -16.593   3.509  0.00  0.00    -0.293 OA
ATOM     15  C   LIG    1       27.759 -14.045   2.561  0.00  0.00    +0.081 C 
ATOM     16  C   LIG    1       23.244 -14.643   4.268  0.00  0.00    +0.015 A 
ATOM     17  C   LIG    1       24.136 -14.374   2.016  0.00  0.00    +0.070 C 
ATOM     18  C   LIG    1       26.802 -12.410   2.660  0.00  0.00    +0.049 C 
ATOM     19  C   LIG    1       23.852 -12.649   5.572  0.00  0.00    +0.092 C 
ATOM     20  C   LIG    1       25.613 -14.285   2.356  0.00  0.00    +0.134 C 
ENDROOT
BRANCH   4  21
ATOM     21  O   LIG    1       24.216 -11.549   2.812  0.00  0.00    -0.382 OA
ATOM     22  H   LIG    1       24.385 -10.685   3.231  0.00  0.00    +0.210 HD
ENDBRANCH   4  21
BRANCH   9  23
ATOM     23  O   LIG    1       21.985 -17.929   5.208  0.00  0.00    -0.503 OA
ATOM     24  H   LIG    1       21.493 -18.182   4.405  0.00  0.00    +0.292 HD
ENDBRANCH   9  23
BRANCH   2  25
ATOM     25  C   LIG    1       27.785 -13.404   4.980  0.00  0.00    +0.137 C 
BRANCH  25  26
ATOM     26  C   LIG    1       28.221 -11.949   5.020  0.00  0.00    +0.035 C 
ATOM     27  C   LIG    1       29.475 -11.550   5.770  0.00  0.00    +0.009 C 
ATOM     28  C   LIG    1       29.475 -11.555   4.271  0.00  0.00    +0.009 C 
ENDBRANCH  25  26
ENDBRANCH   2  25
TORSDOF 4
ENDMDL
MODEL 2
REMARK VINA RESULT:      12.6      1.003      1.242
REMARK  Name = *****
REMARK                            x       y       z     vdW  Elec       q    Type
REMARK                         _______ _______ _______ _____ _____    ______ ____
ROOT
ATOM      1  C   LIG    1       25.779 -14.383   5.834  0.00  0.00    +0.193 C 
ATOM      2  N   LIG    1       25.766 -13.263   4.490  0.00  0.00    +0.246 N 
ATOM      3  C   LIG    1       24.366 -12.524   4.864  0.00  0.00    +0.104 C 
ATOM      4  C   LIG    1       24.346 -12.378   3.443  0.00  0.00    +0.123 C 
ATOM      5  C   LIG    1       24.429 -14.260   3.214  0.00  0.00    +0.082 C 
ATOM      6  C   LIG    1       25.928 -15.360   3.474  0.00  0.00    +0.253 C 
ATOM      7  O   LIG    1       25.266 -16.587   3.053  0.00  0.00    -0.476 OA
ATOM      8  C   LIG    1       23.980 -16.486   3.675  0.00  0.00    +0.167 A 
ATOM      9  C   LIG    1       23.355 -17.486   4.376  0.00  0.00    +0.159 A 
ATOM     10  C   LIG    1       22.376 -17.121   5.314  0.00  0.00    +0.049 A 
ATOM     11  C   LIG    1       22.130 -15.756   5.633  0.00  0.00    +0.008 A 
ATOM     12  C   LIG    1       22.804 -14.754   4.940  0.00  0.00    -0.034 A 
ATOM     13  C   LIG    1       27.551 -14.336   3.441  0.00  0.00    +0.174 C 
ATOM     14  O   LIG    1       28.635 -14.870   3.672  0.00  0.00    -0.293 OA
ATOM     15  C   LIG    1       27.498 -12.502   2.955  0.00  0.00    +0.081 C 
ATOM     16  C   LIG    1       23.536 -15.174   3.858  0.00  0.00    +0.015 A 
ATOM     17  C   LIG    1       24.452 -14.218   1.812  0.00  0.00    +0.070 C 
ATOM     18  C   LIG    1       25.924 -11.448   3.053  0.00  0.00    +0.049 C 
ATOM     19  C   LIG    1       23.083 -13.331   5.423  0.00  0.00    +0.092 C 
ATOM     20  C   LIG    1       25.701 -13.577   2.390  0.00  0.00    +0.134 C 
ENDROOT
BRANCH   4  21
ATOM     21  O   LIG    1       23.219 -11.773   2.872  0.00  0.00    -0.382 OA
ATOM     22  H   LIG    1       23.463 -11.308   2.051  0.00  0.00    +0.210 HD
ENDBRANCH   4  21
BRANCH   9  23
ATOM     23  O   LIG    1       23.729 -18.787   4.274  0.00  0.00    -0.503 OA
ATOM     24  H   LIG    1       23.207 -19.188   3.555  0.00  0.00    +0.292 HD
ENDBRANCH   9  23
BRANCH   2  25
ATOM     25  C   LIG    1       26.993 -12.286   5.396  0.00  0.00    +0.137 C 
BRANCH  25  26
ATOM     26  C   LIG    1       28.462 -12.669   5.331  0.00  0.00    +0.035 C 
ATOM     27  C   LIG    1       29.420 -11.871   4.471  0.00  0.00    +0.009 C 
ATOM     28  C   LIG    1       29.475 -11.740   5.964  0.00  0.00    +0.009 C 
ENDBRANCH  25  26
ENDBRANCH   2  25
TORSDOF 4
ENDMDL
MODEL 3
REMARK VINA RESULT:      13.6      3.708      6.325
REMARK  Name = *****
REMARK                            x       y       z     vdW  Elec       q    Type
REMARK                         _______ _______ _______ _____ _____    ______ ____
ROOT
ATOM      1  C   LIG    1       25.400 -18.326   6.177  0.00  0.00    +0.193 C 
ATOM      2  N   LIG    1       24.959 -19.603   5.066  0.00  0.00    +0.246 N 
ATOM      3  C   LIG    1       26.251 -19.467   4.087  0.00  0.00    +0.104 C 
ATOM      4  C   LIG    1       25.283 -19.939   3.148  0.00  0.00    +0.123 C 
ATOM      5  C   LIG    1       24.162 -18.450   3.502  0.00  0.00    +0.082 C 
ATOM      6  C   LIG    1       23.115 -18.168   5.035  0.00  0.00    +0.253 C 
ATOM      7  O   LIG    1       22.520 -16.925   4.563  0.00  0.00    -0.476 OA
ATOM      8  C   LIG    1       23.632 -16.244   3.972  0.00  0.00    +0.167 A 
ATOM      9  C   LIG    1       23.957 -14.926   4.178  0.00  0.00    +0.159 A 
ATOM     10  C   LIG    1       25.287 -14.533   3.952  0.00  0.00    +0.049 A 
ATOM     11  C   LIG    1       26.299 -15.487   3.653  0.00  0.00    +0.008 A 
ATOM     12  C   LIG    1       25.958 -16.826   3.489  0.00  0.00    -0.034 A 
ATOM     13  C   LIG    1       22.826 -19.811   5.985  0.00  0.00    +0.174 C 
ATOM     14  O   LIG    1       22.227 -19.817   7.061  0.00  0.00    -0.293 OA
ATOM     15  C   LIG    1       23.382 -21.454   5.217  0.00  0.00    +0.081 C 
ATOM     16  C   LIG    1       24.613 -17.093   3.453  0.00  0.00    +0.015 A 
ATOM     17  C   LIG    1       23.139 -18.850   2.631  0.00  0.00    +0.070 C 
ATOM     18  C   LIG    1       24.706 -21.571   3.864  0.00  0.00    +0.049 C 
ATOM     19  C   LIG    1       26.874 -18.036   3.670  0.00  0.00    +0.092 C 
ATOM     20  C   LIG    1       23.288 -19.838   3.774  0.00  0.00    +0.134 C 
ENDROOT
BRANCH   4  21
ATOM     21  O   LIG    1       25.686 -20.058   1.812  0.00  0.00    -0.382 OA
ATOM     22  H   LIG    1       26.231 -20.858   1.693  0.00  0.00    +0.210 HD
ENDBRANCH   4  21
BRANCH   9  23
ATOM     23  O   LIG    1       23.075 -14.033   4.694  0.00  0.00    -0.503 OA
ATOM     24  H   LIG    1       23.325 -13.150   4.364  0.00  0.00    +0.292 HD
ENDBRANCH   9  23
BRANCH   2  25
ATOM     25  C   LIG    1       25.524 -20.780   6.321  0.00  0.00    +0.137 C 
BRANCH  25  26
ATOM     26  C   LIG    1       27.010 -21.050   6.490  0.00  0.00    +0.035 C 
ATOM     27  C   LIG    1       28.005 -20.485   5.499  0.00  0.00    +0.009 C 
ATOM     28  C   LIG    1       27.910 -19.897   6.874  0.00  0.00    +0.009 C 
ENDBRANCH  25  26
ENDBRANCH   2  25
TORSDOF 4
ENDMDL
MODEL 4
REMARK VINA RESULT:      14.7      1.674      2.843
REMARK  Name = *****
REMARK                            x       y       z     vdW  Elec       q    Type
REMARK                         _______ _______ _______ _____ _____    ______ ____
ROOT
ATOM      1  C   LIG    1       25.275 -14.991   6.000  0.00  0.00    +0.193 C 
ATOM      2  N   LIG    1       25.691 -13.950   4.657  0.00  0.00    +0.246 N 
ATOM      3  C   LIG    1       24.169 -13.599   4.202  0.00  0.00    +0.104 C 
ATOM      4  C   LIG    1       24.830 -13.501   2.939  0.00  0.00    +0.123 C 
ATOM      5  C   LIG    1       25.423 -15.298   3.070  0.00  0.00    +0.082 C 
ATOM      6  C   LIG    1       26.790 -15.954   4.177  0.00  0.00    +0.253 C 
ATOM      7  O   LIG    1       26.712 -17.324   3.686  0.00  0.00    -0.476 OA
ATOM      8  C   LIG    1       25.301 -17.551   3.598  0.00  0.00    +0.167 A 
ATOM      9  C   LIG    1       24.644 -18.663   4.062  0.00  0.00    +0.159 A 
ATOM     10  C   LIG    1       23.275 -18.546   4.353  0.00  0.00    +0.049 A 
ATOM     11  C   LIG    1       22.614 -17.287   4.302  0.00  0.00    +0.008 A 
ATOM     12  C   LIG    1       23.307 -16.161   3.868  0.00  0.00    -0.034 A 
ATOM     13  C   LIG    1       27.945 -14.537   4.762  0.00  0.00    +0.174 C 
ATOM     14  O   LIG    1       28.856 -14.759   5.560  0.00  0.00    -0.293 OA
ATOM     15  C   LIG    1       27.745 -12.796   4.034  0.00  0.00    +0.081 C 
ATOM     16  C   LIG    1       24.551 -16.399   3.344  0.00  0.00    +0.015 A 
ATOM     17  C   LIG    1       26.132 -15.287   1.860  0.00  0.00    +0.070 C 
ATOM     18  C   LIG    1       26.146 -12.196   3.209  0.00  0.00    +0.049 C 
ATOM     19  C   LIG    1       22.989 -14.703   4.201  0.00  0.00    +0.092 C 
ATOM     20  C   LIG    1       26.753 -14.323   2.856  0.00  0.00    +0.134 C 
ENDROOT
BRANCH   4  21
ATOM     21  O   LIG    1       24.038 -13.231   1.816  0.00  0.00    -0.382 OA
ATOM     22  H   LIG    1       23.131 -13.562   1.953  0.00  0.00    +0.210 HD
ENDBRANCH   4  21
BRANCH   9  23
ATOM     23  O   LIG    1       25.292 -19.820   4.352  0.00  0.00    -0.503 OA
ATOM     24  H   LIG    1       25.911 -20.001   3.621  0.00  0.00    +0.292 HD
ENDBRANCH   9  23
BRANCH   2  25
ATOM     25  C   LIG    1       26.056 -12.660   5.876  0.00  0.00    +0.137 C 
BRANCH  25  26
ATOM     26  C   LIG    1       25.148 -11.447   5.988  0.00  0.00    +0.035 C 
ATOM     27  C   LIG    1       23.777 -11.458   5.343  0.00  0.00    +0.009 C 
ATOM     28  C   LIG    1       23.898 -11.561   6.834  0.00  0.00    +0.009 C 
ENDBRANCH  25  26
ENDBRANCH   2  25
TORSDOF 4
ENDMDL
