MODEL 1
REMARK VINA RESULT:      -1.8      0.000      0.000
REMARK  Name = *****
REMARK                            x       y       z     vdW  Elec       q    Type
REMARK                         _______ _______ _______ _____ _____    ______ ____
ROOT
ATOM      1  N   LIG    1       25.895 -18.855   4.319  0.00  0.00    -0.298 N 
ATOM      2  C   LIG    1       24.587 -19.401   4.490  0.00  0.00    +0.049 A 
ATOM      3  C   LIG    1       24.321 -20.409   5.440  0.00  0.00    +0.034 A 
ATOM      4  C   LIG    1       23.011 -20.884   5.660  0.00  0.00    +0.018 A 
ATOM      5  C   LIG    1       21.931 -20.378   4.947  0.00  0.00    +0.018 A 
ATOM      6  C   LIG    1       22.161 -19.411   3.980  0.00  0.00    +0.040 A 
ATOM      7  S   LIG    1       25.567 -21.192   6.432  0.00  0.00    -0.086 S 
ATOM      8  C   LIG    1       27.029 -20.284   6.005  0.00  0.00    +0.034 A 
ATOM      9  C   LIG    1       28.190 -20.665   6.711  0.00  0.00    +0.017 A 
ATOM     10  C   LIG    1       29.406 -20.030   6.496  0.00  0.00    +0.001 A 
ATOM     11  C   LIG    1       29.471 -19.008   5.567  0.00  0.00    +0.002 A 
ATOM     12  C   LIG    1       28.322 -18.635   4.859  0.00  0.00    +0.024 A 
ATOM     13  C   LIG    1       23.470 -18.959   3.742  0.00  0.00    +0.041 A 
ATOM     14  C   LIG    1       27.062 -19.250   5.046  0.00  0.00    +0.048 A 
ENDROOT
BRANCH   6  15
ATOM     15  S   LIG    1       20.764 -18.735   3.052  0.00  0.00    +0.051 S 
ATOM     16  O   LIG    1       20.551 -17.351   3.595  0.00  0.00    -0.252 OA
ATOM     17  C   LIG    1       19.484 -19.791   3.786  0.00  0.00    +0.127 C 
ENDBRANCH   6  15
BRANCH   1  18
ATOM     18  C   LIG    1       26.066 -17.757   3.325  0.00  0.00    +0.112 C 
BRANCH  18  19
ATOM     19  C   LIG    1       25.367 -16.473   3.803  0.00  0.00    +0.038 C 
BRANCH  19  22
ATOM     20  C   LIG    1       25.200 -13.084   2.134  0.00  0.00    +0.105 C 
ATOM     21  N   LIG    1       24.941 -14.087   3.170  0.00  0.00    -0.302 NA
ATOM     22  C   LIG    1       25.914 -15.200   3.113  0.00  0.00    +0.058 C 
ATOM     23  C   LIG    1       27.296 -14.806   3.679  0.00  0.00    +0.019 C 
ATOM     24  C   LIG    1       27.214 -14.166   5.063  0.00  0.00    +0.003 C 
ATOM     25  C   LIG    1       26.203 -13.027   5.078  0.00  0.00    +0.015 C 
ATOM     26  C   LIG    1       24.860 -13.469   4.503  0.00  0.00    +0.084 C 
ENDBRANCH  19  22
ENDBRANCH  18  19
ENDBRANCH   1  18
TORSDOF 4
ENDMDL
MODEL 2
REMARK VINA RESULT:      -1.2      2.386      5.195
REMARK  Name = *****
REMARK                            x       y       z     vdW  Elec       q    Type
REMARK                         _______ _______ _______ _____ _____    ______ ____
ROOT
ATOM      1  N   LIG    1       24.156 -18.779   4.066  0.00  0.00    -0.298 N 
ATOM      2  C   LIG    1       25.005 -19.611   4.857  0.00  0.00    +0.049 A 
ATOM      3  C   LIG    1       24.498 -20.706   5.589  0.00  0.00    +0.034 A 
ATOM      4  C   LIG    1       25.355 -21.572   6.302  0.00  0.00    +0.018 A 
ATOM      5  C   LIG    1       26.731 -21.379   6.310  0.00  0.00    +0.018 A 
ATOM      6  C   LIG    1       27.259 -20.292   5.631  0.00  0.00    +0.040 A 
ATOM      7  S   LIG    1       22.774 -21.104   5.714  0.00  0.00    -0.086 S 
ATOM      8  C   LIG    1       22.024 -19.926   4.621  0.00  0.00    +0.034 A 
ATOM      9  C   LIG    1       20.626 -20.058   4.476  0.00  0.00    +0.017 A 
ATOM     10  C   LIG    1       19.905 -19.217   3.639  0.00  0.00    +0.001 A 
ATOM     11  C   LIG    1       20.578 -18.233   2.939  0.00  0.00    +0.002 A 
ATOM     12  C   LIG    1       21.963 -18.095   3.089  0.00  0.00    +0.024 A 
ATOM     13  C   LIG    1       26.403 -19.413   4.945  0.00  0.00    +0.041 A 
ATOM     14  C   LIG    1       22.740 -18.928   3.928  0.00  0.00    +0.048 A 
ENDROOT
BRANCH   6  15
ATOM     15  S   LIG    1       29.049 -20.034   5.625  0.00  0.00    +0.051 S 
ATOM     16  O   LIG    1       29.475 -20.132   7.062  0.00  0.00    -0.252 OA
ATOM     17  C   LIG    1       29.013 -18.268   5.208  0.00  0.00    +0.127 C 
ENDBRANCH   6  15
BRANCH   1  18
ATOM     18  C   LIG    1       24.792 -17.678   3.288  0.00  0.00    +0.112 C 
BRANCH  18  19
ATOM     19  C   LIG    1       24.797 -16.369   4.097  0.00  0.00    +0.038 C 
BRANCH  19  22
ATOM     20  C   LIG    1       24.677 -12.812   2.820  0.00  0.00    +0.105 C 
ATOM     21  N   LIG    1       24.714 -13.881   3.822  0.00  0.00    -0.302 NA
ATOM     22  C   LIG    1       25.235 -15.145   3.257  0.00  0.00    +0.058 C 
ATOM     23  C   LIG    1       26.767 -15.119   3.063  0.00  0.00    +0.019 C 
ATOM     24  C   LIG    1       27.520 -14.680   4.316  0.00  0.00    +0.003 C 
ATOM     25  C   LIG    1       26.955 -13.376   4.864  0.00  0.00    +0.015 C 
ATOM     26  C   LIG    1       25.438 -13.456   5.030  0.00  0.00    +0.084 C 
ENDBRANCH  19  22
ENDBRANCH  18  19
ENDBRANCH   1  18
TORSDOF 4
ENDMDL
MODEL 3
REMARK VINA RESULT:       1.1      1.945      5.482
REMARK  Name = *****
REMARK                            x       y       z     vdW  Elec       q    Type
REMARK                         _______ _______ _______ _____ _____    ______ ____
ROOT
ATOM      1  N   LIG    1       25.534 -16.824   3.619  0.00  0.00    -0.298 N 
ATOM      2  C   LIG    1       24.245 -17.313   3.990  0.00  0.00    +0.049 A 
ATOM      3  C   LIG    1       23.158 -16.443   4.217  0.00  0.00    +0.034 A 
ATOM      4  C   LIG    1       21.868 -16.939   4.502  0.00  0.00    +0.018 A 
ATOM      5  C   LIG    1       21.619 -18.304   4.571  0.00  0.00    +0.018 A 
ATOM      6  C   LIG    1       22.673 -19.188   4.389  0.00  0.00    +0.040 A 
ATOM      7  S   LIG    1       23.280 -14.673   4.190  0.00  0.00    -0.086 S 
ATOM      8  C   LIG    1       24.959 -14.408   3.684  0.00  0.00    +0.034 A 
ATOM      9  C   LIG    1       25.321 -13.055   3.516  0.00  0.00    +0.017 A 
ATOM     10  C   LIG    1       26.597 -12.694   3.105  0.00  0.00    +0.001 A 
ATOM     11  C   LIG    1       27.526 -13.689   2.861  0.00  0.00    +0.002 A 
ATOM     12  C   LIG    1       27.172 -15.033   3.036  0.00  0.00    +0.024 A 
ATOM     13  C   LIG    1       23.963 -18.692   4.134  0.00  0.00    +0.041 A 
ATOM     14  C   LIG    1       25.884 -15.447   3.451  0.00  0.00    +0.048 A 
ENDROOT
BRANCH   6  15
ATOM     15  S   LIG    1       22.362 -20.967   4.467  0.00  0.00    +0.051 S 
ATOM     16  O   LIG    1       20.869 -21.118   4.423  0.00  0.00    -0.252 OA
ATOM     17  C   LIG    1       22.864 -21.200   6.195  0.00  0.00    +0.127 C 
ENDBRANCH   6  15
BRANCH   1  18
ATOM     18  C   LIG    1       26.607 -17.824   3.353  0.00  0.00    +0.112 C 
BRANCH  18  19
ATOM     19  C   LIG    1       27.607 -17.879   4.521  0.00  0.00    +0.038 C 
BRANCH  19  22
ATOM     20  C   LIG    1       29.475 -20.605   6.359  0.00  0.00    +0.105 C 
ATOM     21  N   LIG    1       28.521 -19.505   6.192  0.00  0.00    -0.302 NA
ATOM     22  C   LIG    1       28.158 -19.304   4.773  0.00  0.00    +0.058 C 
ATOM     23  C   LIG    1       27.180 -20.382   4.255  0.00  0.00    +0.019 C 
ATOM     24  C   LIG    1       25.960 -20.564   5.154  0.00  0.00    +0.003 C 
ATOM     25  C   LIG    1       26.377 -20.769   6.604  0.00  0.00    +0.015 C 
ATOM     26  C   LIG    1       27.346 -19.681   7.062  0.00  0.00    +0.084 C 
ENDBRANCH  19  22
ENDBRANCH  18  19
ENDBRANCH   1  18
TORSDOF 4
ENDMDL
