MODEL 1
REMARK VINA RESULT:      -4.5      0.000      0.000
REMARK  Name = *****
REMARK                            x       y       z     vdW  Elec       q    Type
REMARK                         _______ _______ _______ _____ _____    ______ ____
ROOT
ATOM      1  C   LIG    1       23.901 -29.601  12.485  0.00  0.00    +0.173 A 
ATOM      2  C   LIG    1       22.567 -29.989  12.262  0.00  0.00    +0.206 A 
ATOM      3  C   LIG    1       22.260 -31.371  12.260  0.00  0.00    +0.187 A 
ATOM      4  C   LIG    1       23.163 -32.328  12.761  0.00  0.00    +0.085 A 
ATOM      5  C   LIG    1       24.456 -31.875  12.951  0.00  0.00    +0.094 A 
ATOM      6  C   LIG    1       25.591 -32.608  13.496  0.00  0.00    +0.342 C 
ATOM      7  O   LIG    1       26.603 -31.698  13.602  0.00  0.00    -0.451 OA
ATOM      8  C   LIG    1       26.337 -30.480  12.849  0.00  0.00    +0.233 C 
ATOM      9  O   LIG    1       25.603 -33.748  13.897  0.00  0.00    -0.245 OA
ATOM     10  C   LIG    1       24.856 -30.573  12.727  0.00  0.00    +0.056 A 
ENDROOT
BRANCH   8  11
ATOM     11  C   LIG    1       27.178 -30.533  11.499  0.00  0.00    +0.136 C 
ATOM     12  N   LIG    1       28.175 -29.432  11.303  0.00  0.00    -0.295 NA
ATOM     13  C   LIG    1       29.270 -29.407  12.262  0.00  0.00    +0.105 C 
ATOM     14  C   LIG    1       27.509 -28.132  11.207  0.00  0.00    +0.089 C 
ATOM     15  C   LIG    1       26.639 -28.067   9.949  0.00  0.00    +0.051 C 
ATOM     16  C   LIG    1       25.939 -29.359   9.599  0.00  0.00    -0.034 A 
ATOM     17  C   LIG    1       25.053 -29.357   8.513  0.00  0.00    +0.053 A 
ATOM     18  C   LIG    1       24.523 -30.560   8.108  0.00  0.00    +0.170 A 
ATOM     19  O   LIG    1       23.639 -30.708   7.084  0.00  0.00    -0.453 OA
ATOM     20  C   LIG    1       23.416 -32.127   7.129  0.00  0.00    +0.467 C 
ATOM     21  O   LIG    1       24.226 -32.802   8.110  0.00  0.00    -0.449 OA
ATOM     22  C   LIG    1       24.877 -31.754   8.695  0.00  0.00    +0.208 A 
ATOM     23  C   LIG    1       25.787 -31.804   9.745  0.00  0.00    +0.170 A 
ATOM     24  C   LIG    1       26.275 -30.579  10.258  0.00  0.00    +0.022 A 
BRANCH  23  25
ATOM     25  O   LIG    1       26.247 -32.949  10.336  0.00  0.00    -0.491 OA
ATOM     26  C   LIG    1       26.992 -33.825   9.494  0.00  0.00    +0.277 C 
ENDBRANCH  23  25
ENDBRANCH   8  11
BRANCH   4  27
ATOM     27  N   LIG    1       22.844 -33.696  12.777  0.00  0.00    -0.354 N 
ATOM     28  H   LIG    1       22.760 -34.098  11.846  0.00  0.00    +0.142 HD
ATOM     29  H   LIG    1       22.072 -33.936  13.401  0.00  0.00    +0.142 HD
ENDBRANCH   4  27
BRANCH   1  30
ATOM     30  O   LIG    1       24.339 -28.309  12.410  0.00  0.00    -0.488 OA
BRANCH  30  32
ATOM     31  C   LIG    1       25.175 -26.388  13.563  0.00  0.00    +0.048 C 
ATOM     32  C   LIG    1       24.306 -27.630  13.667  0.00  0.00    +0.226 C 
ENDBRANCH  30  32
ENDBRANCH   1  30
BRANCH   2  33
ATOM     33  O   LIG    1       21.675 -28.999  11.936  0.00  0.00    -0.485 OA
BRANCH  33  34
ATOM     34  C   LIG    1       20.835 -28.505  12.987  0.00  0.00    +0.226 C 
ATOM     35  C   LIG    1       20.773 -26.987  12.915  0.00  0.00    +0.048 C 
ENDBRANCH  33  34
ENDBRANCH   2  33
BRANCH   3  36
ATOM     36  O   LIG    1       21.088 -31.842  11.703  0.00  0.00    -0.487 OA
BRANCH  36  37
ATOM     37  C   LIG    1       21.224 -31.871  10.269  0.00  0.00    +0.226 C 
ATOM     38  C   LIG    1       21.076 -33.286   9.731  0.00  0.00    +0.048 C 
ENDBRANCH  36  37
ENDBRANCH   3  36
TORSDOF 9
ENDMDL
MODEL 2
REMARK VINA RESULT:      -4.0      2.382      5.314
REMARK  Name = *****
REMARK                            x       y       z     vdW  Elec       q    Type
REMARK                         _______ _______ _______ _____ _____    ______ ____
ROOT
ATOM      1  C   LIG    1       23.985 -29.689  11.777  0.00  0.00    +0.173 A 
ATOM      2  C   LIG    1       23.023 -30.635  11.378  0.00  0.00    +0.206 A 
ATOM      3  C   LIG    1       21.686 -30.454  11.804  0.00  0.00    +0.187 A 
ATOM      4  C   LIG    1       21.242 -29.232  12.344  0.00  0.00    +0.085 A 
ATOM      5  C   LIG    1       22.244 -28.354  12.716  0.00  0.00    +0.094 A 
ATOM      6  C   LIG    1       22.101 -27.007  13.254  0.00  0.00    +0.342 C 
ATOM      7  O   LIG    1       23.368 -26.506  13.337  0.00  0.00    -0.451 OA
ATOM      8  C   LIG    1       24.385 -27.542  13.215  0.00  0.00    +0.233 C 
ATOM      9  O   LIG    1       21.073 -26.405  13.459  0.00  0.00    -0.245 OA
ATOM     10  C   LIG    1       23.590 -28.603  12.538  0.00  0.00    +0.056 A 
ENDROOT
BRANCH   8  11
ATOM     11  C   LIG    1       24.940 -27.872  14.669  0.00  0.00    +0.136 C 
ATOM     12  N   LIG    1       25.902 -26.879  15.246  0.00  0.00    -0.295 NA
ATOM     13  C   LIG    1       25.352 -25.555  15.500  0.00  0.00    +0.105 C 
ATOM     14  C   LIG    1       27.129 -26.813  14.450  0.00  0.00    +0.089 C 
ATOM     15  C   LIG    1       27.886 -28.141  14.521  0.00  0.00    +0.051 C 
ATOM     16  C   LIG    1       27.005 -29.369  14.545  0.00  0.00    -0.034 A 
ATOM     17  C   LIG    1       27.624 -30.627  14.519  0.00  0.00    +0.053 A 
ATOM     18  C   LIG    1       26.833 -31.741  14.680  0.00  0.00    +0.170 A 
ATOM     19  O   LIG    1       27.291 -33.022  14.659  0.00  0.00    -0.453 OA
ATOM     20  C   LIG    1       26.063 -33.745  14.844  0.00  0.00    +0.467 C 
ATOM     21  O   LIG    1       24.923 -32.892  15.056  0.00  0.00    -0.449 OA
ATOM     22  C   LIG    1       25.480 -31.653  14.920  0.00  0.00    +0.208 A 
ATOM     23  C   LIG    1       24.836 -30.423  14.999  0.00  0.00    +0.170 A 
ATOM     24  C   LIG    1       25.596 -29.259  14.736  0.00  0.00    +0.022 A 
BRANCH  23  25
ATOM     25  O   LIG    1       23.514 -30.243  15.303  0.00  0.00    -0.491 OA
ATOM     26  C   LIG    1       22.668 -31.368  15.074  0.00  0.00    +0.277 C 
ENDBRANCH  23  25
ENDBRANCH   8  11
BRANCH   4  27
ATOM     27  N   LIG    1       19.907 -29.051  12.745  0.00  0.00    -0.354 N 
ATOM     28  H   LIG    1       19.693 -28.090  12.998  0.00  0.00    +0.142 HD
ATOM     29  H   LIG    1       19.580 -29.739  13.424  0.00  0.00    +0.142 HD
ENDBRANCH   4  27
BRANCH   1  30
ATOM     30  O   LIG    1       25.321 -29.807  11.516  0.00  0.00    -0.488 OA
BRANCH  30  32
ATOM     31  C   LIG    1       26.987 -28.430  10.491  0.00  0.00    +0.048 C 
ATOM     32  C   LIG    1       25.706 -29.218  10.272  0.00  0.00    +0.226 C 
ENDBRANCH  30  32
ENDBRANCH   1  30
BRANCH   2  33
ATOM     33  O   LIG    1       23.477 -31.741  10.704  0.00  0.00    -0.485 OA
BRANCH  33  34
ATOM     34  C   LIG    1       23.845 -32.880  11.492  0.00  0.00    +0.226 C 
ATOM     35  C   LIG    1       25.287 -33.258  11.192  0.00  0.00    +0.048 C 
ENDBRANCH  33  34
ENDBRANCH   2  33
BRANCH   3  36
ATOM     36  O   LIG    1       20.778 -31.494  11.771  0.00  0.00    -0.487 OA
BRANCH  36  37
ATOM     37  C   LIG    1       20.244 -31.613  10.438  0.00  0.00    +0.226 C 
ATOM     38  C   LIG    1       18.723 -31.561  10.448  0.00  0.00    +0.048 C 
ENDBRANCH  36  37
ENDBRANCH   3  36
TORSDOF 9
ENDMDL
MODEL 3
REMARK VINA RESULT:      -4.0      1.867      5.885
REMARK  Name = *****
REMARK                            x       y       z     vdW  Elec       q    Type
REMARK                         _______ _______ _______ _____ _____    ______ ____
ROOT
ATOM      1  C   LIG    1       24.767 -31.623   9.084  0.00  0.00    +0.173 A 
ATOM      2  C   LIG    1       24.416 -30.905   7.925  0.00  0.00    +0.206 A 
ATOM      3  C   LIG    1       24.856 -29.566   7.805  0.00  0.00    +0.187 A 
ATOM      4  C   LIG    1       25.858 -29.040   8.642  0.00  0.00    +0.085 A 
ATOM      5  C   LIG    1       26.147 -29.797   9.763  0.00  0.00    +0.094 A 
ATOM      6  C   LIG    1       27.158 -29.542  10.781  0.00  0.00    +0.342 C 
ATOM      7  O   LIG    1       27.141 -30.633  11.601  0.00  0.00    -0.451 OA
ATOM      8  C   LIG    1       25.953 -31.454  11.409  0.00  0.00    +0.233 C 
ATOM      9  O   LIG    1       27.943 -28.623  10.820  0.00  0.00    -0.245 OA
ATOM     10  C   LIG    1       25.553 -31.010  10.045  0.00  0.00    +0.056 A 
ENDROOT
BRANCH   8  11
ATOM     11  C   LIG    1       24.938 -31.151  12.595  0.00  0.00    +0.136 C 
ATOM     12  N   LIG    1       25.266 -31.776  13.916  0.00  0.00    -0.295 NA
ATOM     13  C   LIG    1       26.498 -31.308  14.536  0.00  0.00    +0.105 C 
ATOM     14  C   LIG    1       25.222 -33.236  13.832  0.00  0.00    +0.089 C 
ATOM     15  C   LIG    1       23.797 -33.714  13.545  0.00  0.00    +0.051 C 
ATOM     16  C   LIG    1       23.011 -32.828  12.606  0.00  0.00    -0.034 A 
ATOM     17  C   LIG    1       21.729 -33.245  12.222  0.00  0.00    +0.053 A 
ATOM     18  C   LIG    1       20.961 -32.377  11.481  0.00  0.00    +0.170 A 
ATOM     19  O   LIG    1       19.710 -32.651  11.024  0.00  0.00    -0.453 OA
ATOM     20  C   LIG    1       19.415 -31.437  10.314  0.00  0.00    +0.467 C 
ATOM     21  O   LIG    1       20.447 -30.440  10.432  0.00  0.00    -0.449 OA
ATOM     22  C   LIG    1       21.390 -31.108  11.160  0.00  0.00    +0.208 A 
ATOM     23  C   LIG    1       22.636 -30.640  11.560  0.00  0.00    +0.170 A 
ATOM     24  C   LIG    1       23.496 -31.539  12.234  0.00  0.00    +0.022 A 
BRANCH  23  25
ATOM     25  O   LIG    1       23.110 -29.374  11.346  0.00  0.00    -0.491 OA
ATOM     26  C   LIG    1       22.896 -28.446  12.406  0.00  0.00    +0.277 C 
ENDBRANCH  23  25
ENDBRANCH   8  11
BRANCH   4  27
ATOM     27  N   LIG    1       26.306 -27.715   8.503  0.00  0.00    -0.354 N 
ATOM     28  H   LIG    1       25.867 -27.224   7.729  0.00  0.00    +0.142 HD
ATOM     29  H   LIG    1       27.322 -27.615   8.532  0.00  0.00    +0.142 HD
ENDBRANCH   4  27
BRANCH   1  30
ATOM     30  O   LIG    1       24.320 -32.884   9.362  0.00  0.00    -0.488 OA
BRANCH  30  32
ATOM     31  C   LIG    1       26.258 -33.823   8.321  0.00  0.00    +0.048 C 
ATOM     32  C   LIG    1       25.377 -33.825   9.559  0.00  0.00    +0.226 C 
ENDBRANCH  30  32
ENDBRANCH   1  30
BRANCH   2  33
ATOM     33  O   LIG    1       23.562 -31.521   7.046  0.00  0.00    -0.485 OA
BRANCH  33  34
ATOM     34  C   LIG    1       24.153 -32.316   6.010  0.00  0.00    +0.226 C 
ATOM     35  C   LIG    1       23.084 -33.187   5.368  0.00  0.00    +0.048 C 
ENDBRANCH  33  34
ENDBRANCH   2  33
BRANCH   3  36
ATOM     36  O   LIG    1       24.269 -28.699   6.904  0.00  0.00    -0.487 OA
BRANCH  36  37
ATOM     37  C   LIG    1       24.904 -28.850   5.620  0.00  0.00    +0.226 C 
ATOM     38  C   LIG    1       25.375 -27.510   5.078  0.00  0.00    +0.048 C 
ENDBRANCH  36  37
ENDBRANCH   3  36
TORSDOF 9
ENDMDL
MODEL 4
REMARK VINA RESULT:      -3.7      2.349      4.835
REMARK  Name = *****
REMARK                            x       y       z     vdW  Elec       q    Type
REMARK                         _______ _______ _______ _____ _____    ______ ____
ROOT
ATOM      1  C   LIG    1       25.442 -29.011  11.604  0.00  0.00    +0.173 A 
ATOM      2  C   LIG    1       25.331 -28.054  12.631  0.00  0.00    +0.206 A 
ATOM      3  C   LIG    1       24.343 -28.247  13.625  0.00  0.00    +0.187 A 
ATOM      4  C   LIG    1       23.690 -29.483  13.787  0.00  0.00    +0.085 A 
ATOM      5  C   LIG    1       23.841 -30.371  12.737  0.00  0.00    +0.094 A 
ATOM      6  C   LIG    1       23.331 -31.732  12.634  0.00  0.00    +0.342 C 
ATOM      7  O   LIG    1       23.851 -32.235  11.477  0.00  0.00    -0.451 OA
ATOM      8  C   LIG    1       24.400 -31.197  10.616  0.00  0.00    +0.233 C 
ATOM      9  O   LIG    1       22.692 -32.340  13.461  0.00  0.00    -0.245 OA
ATOM     10  C   LIG    1       24.611 -30.117  11.620  0.00  0.00    +0.056 A 
ENDROOT
BRANCH   8  11
ATOM     11  C   LIG    1       23.356 -30.906   9.452  0.00  0.00    +0.136 C 
ATOM     12  N   LIG    1       21.942 -31.324   9.719  0.00  0.00    -0.295 NA
ATOM     13  C   LIG    1       21.281 -30.620  10.809  0.00  0.00    +0.105 C 
ATOM     14  C   LIG    1       21.844 -32.776   9.873  0.00  0.00    +0.089 C 
ATOM     15  C   LIG    1       22.192 -33.479   8.558  0.00  0.00    +0.051 C 
ATOM     16  C   LIG    1       23.301 -32.825   7.768  0.00  0.00    -0.034 A 
ATOM     17  C   LIG    1       23.740 -33.459   6.597  0.00  0.00    +0.053 A 
ATOM     18  C   LIG    1       24.650 -32.797   5.805  0.00  0.00    +0.170 A 
ATOM     19  O   LIG    1       25.176 -33.295   4.653  0.00  0.00    -0.453 OA
ATOM     20  C   LIG    1       26.058 -32.223   4.279  0.00  0.00    +0.467 C 
ATOM     21  O   LIG    1       25.977 -31.085   5.157  0.00  0.00    -0.449 OA
ATOM     22  C   LIG    1       25.091 -31.526   6.097  0.00  0.00    +0.208 A 
ATOM     23  C   LIG    1       24.645 -30.845   7.224  0.00  0.00    +0.170 A 
ATOM     24  C   LIG    1       23.790 -31.531   8.118  0.00  0.00    +0.022 A 
BRANCH  23  25
ATOM     25  O   LIG    1       24.976 -29.558   7.550  0.00  0.00    -0.491 OA
ATOM     26  C   LIG    1       24.441 -28.547   6.699  0.00  0.00    +0.277 C 
ENDBRANCH  23  25
ENDBRANCH   8  11
BRANCH   4  27
ATOM     27  N   LIG    1       22.726 -29.676  14.791  0.00  0.00    -0.354 N 
ATOM     28  H   LIG    1       22.226 -30.556  14.701  0.00  0.00    +0.142 HD
ATOM     29  H   LIG    1       22.118 -28.870  14.945  0.00  0.00    +0.142 HD
ENDBRANCH   4  27
BRANCH   1  30
ATOM     30  O   LIG    1       26.284 -28.885  10.536  0.00  0.00    -0.488 OA
BRANCH  30  32
ATOM     31  C   LIG    1       28.415 -29.417  11.482  0.00  0.00    +0.048 C 
ATOM     32  C   LIG    1       27.326 -29.863  10.522  0.00  0.00    +0.226 C 
ENDBRANCH  30  32
ENDBRANCH   1  30
BRANCH   2  33
ATOM     33  O   LIG    1       26.111 -26.930  12.522  0.00  0.00    -0.485 OA
BRANCH  33  34
ATOM     34  C   LIG    1       27.082 -26.707  13.553  0.00  0.00    +0.226 C 
ATOM     35  C   LIG    1       27.112 -25.229  13.908  0.00  0.00    +0.048 C 
ENDBRANCH  33  34
ENDBRANCH   2  33
BRANCH   3  36
ATOM     36  O   LIG    1       23.931 -27.206  14.434  0.00  0.00    -0.487 OA
BRANCH  36  37
ATOM     37  C   LIG    1       23.311 -26.192  13.621  0.00  0.00    +0.226 C 
ATOM     38  C   LIG    1       21.869 -26.550  13.297  0.00  0.00    +0.048 C 
ENDBRANCH  36  37
ENDBRANCH   3  36
TORSDOF 9
ENDMDL
MODEL 5
REMARK VINA RESULT:      -3.6      1.710      5.837
REMARK  Name = *****
REMARK                            x       y       z     vdW  Elec       q    Type
REMARK                         _______ _______ _______ _____ _____    ______ ____
ROOT
ATOM      1  C   LIG    1       23.402 -29.789  12.287  0.00  0.00    +0.173 A 
ATOM      2  C   LIG    1       24.422 -29.024  12.883  0.00  0.00    +0.206 A 
ATOM      3  C   LIG    1       25.592 -28.764  12.131  0.00  0.00    +0.187 A 
ATOM      4  C   LIG    1       25.640 -28.980  10.741  0.00  0.00    +0.085 A 
ATOM      5  C   LIG    1       24.606 -29.742  10.227  0.00  0.00    +0.094 A 
ATOM      6  C   LIG    1       24.357 -30.093   8.835  0.00  0.00    +0.342 C 
ATOM      7  O   LIG    1       23.156 -30.742   8.826  0.00  0.00    -0.451 OA
ATOM      8  C   LIG    1       22.738 -31.156  10.159  0.00  0.00    +0.233 C 
ATOM      9  O   LIG    1       25.006 -29.765   7.869  0.00  0.00    -0.245 OA
ATOM     10  C   LIG    1       23.560 -30.228  10.984  0.00  0.00    +0.056 A 
ENDROOT
BRANCH   8  11
ATOM     11  C   LIG    1       23.028 -32.712  10.314  0.00  0.00    +0.136 C 
ATOM     12  N   LIG    1       21.875 -33.626  10.032  0.00  0.00    -0.295 NA
ATOM     13  C   LIG    1       21.393 -33.613   8.658  0.00  0.00    +0.105 C 
ATOM     14  C   LIG    1       20.790 -33.413  10.991  0.00  0.00    +0.089 C 
ATOM     15  C   LIG    1       21.235 -33.808  12.401  0.00  0.00    +0.051 C 
ATOM     16  C   LIG    1       22.673 -33.476  12.725  0.00  0.00    -0.034 A 
ATOM     17  C   LIG    1       23.131 -33.724  14.026  0.00  0.00    +0.053 A 
ATOM     18  C   LIG    1       24.472 -33.553  14.284  0.00  0.00    +0.170 A 
ATOM     19  O   LIG    1       25.053 -33.739  15.500  0.00  0.00    -0.453 OA
ATOM     20  C   LIG    1       26.417 -33.403  15.195  0.00  0.00    +0.467 C 
ATOM     21  O   LIG    1       26.637 -33.111  13.803  0.00  0.00    -0.449 OA
ATOM     22  C   LIG    1       25.370 -33.206  13.300  0.00  0.00    +0.208 A 
ATOM     23  C   LIG    1       24.964 -32.997  11.988  0.00  0.00    +0.170 A 
ATOM     24  C   LIG    1       23.579 -33.061  11.704  0.00  0.00    +0.022 A 
BRANCH  23  25
ATOM     25  O   LIG    1       25.797 -32.720  10.938  0.00  0.00    -0.491 OA
ATOM     26  C   LIG    1       26.125 -33.825  10.100  0.00  0.00    +0.277 C 
ENDBRANCH  23  25
ENDBRANCH   8  11
BRANCH   4  27
ATOM     27  N   LIG    1       26.797 -28.698   9.996  0.00  0.00    -0.354 N 
ATOM     28  H   LIG    1       26.614 -28.129   9.173  0.00  0.00    +0.142 HD
ATOM     29  H   LIG    1       27.382 -29.514   9.810  0.00  0.00    +0.142 HD
ENDBRANCH   4  27
BRANCH   1  30
ATOM     30  O   LIG    1       22.273 -30.192  12.943  0.00  0.00    -0.488 OA
BRANCH  30  32
ATOM     31  C   LIG    1       19.953 -30.264  12.366  0.00  0.00    +0.048 C 
ATOM     32  C   LIG    1       21.139 -29.365  12.673  0.00  0.00    +0.226 C 
ENDBRANCH  30  32
ENDBRANCH   1  30
BRANCH   2  33
ATOM     33  O   LIG    1       24.261 -28.690  14.204  0.00  0.00    -0.485 OA
BRANCH  33  34
ATOM     34  C   LIG    1       24.200 -27.294  14.521  0.00  0.00    +0.226 C 
ATOM     35  C   LIG    1       23.115 -26.631  13.687  0.00  0.00    +0.048 C 
ENDBRANCH  33  34
ENDBRANCH   2  33
BRANCH   3  36
ATOM     36  O   LIG    1       26.759 -28.350  12.744  0.00  0.00    -0.487 OA
BRANCH  36  37
ATOM     37  C   LIG    1       27.437 -29.497  13.292  0.00  0.00    +0.226 C 
ATOM     38  C   LIG    1       27.552 -29.397  14.805  0.00  0.00    +0.048 C 
ENDBRANCH  36  37
ENDBRANCH   3  36
TORSDOF 9
ENDMDL
MODEL 6
REMARK VINA RESULT:      -3.4      2.068      5.760
REMARK  Name = *****
REMARK                            x       y       z     vdW  Elec       q    Type
REMARK                         _______ _______ _______ _____ _____    ______ ____
ROOT
ATOM      1  C   LIG    1       24.542 -30.037  12.564  0.00  0.00    +0.173 A 
ATOM      2  C   LIG    1       25.292 -28.900  12.918  0.00  0.00    +0.206 A 
ATOM      3  C   LIG    1       24.610 -27.673  13.093  0.00  0.00    +0.187 A 
ATOM      4  C   LIG    1       23.209 -27.619  13.218  0.00  0.00    +0.085 A 
ATOM      5  C   LIG    1       22.539 -28.771  12.849  0.00  0.00    +0.094 A 
ATOM      6  C   LIG    1       21.107 -29.035  12.912  0.00  0.00    +0.342 C 
ATOM      7  O   LIG    1       20.957 -30.346  12.564  0.00  0.00    -0.451 OA
ATOM      8  C   LIG    1       22.153 -30.896  11.938  0.00  0.00    +0.233 C 
ATOM      9  O   LIG    1       20.242 -28.294  13.317  0.00  0.00    -0.245 OA
ATOM     10  C   LIG    1       23.169 -29.926  12.432  0.00  0.00    +0.056 A 
ENDROOT
BRANCH   8  11
ATOM     11  C   LIG    1       21.914 -30.953  10.366  0.00  0.00    +0.136 C 
ATOM     12  N   LIG    1       20.608 -31.538   9.921  0.00  0.00    -0.295 NA
ATOM     13  C   LIG    1       19.425 -30.785  10.312  0.00  0.00    +0.105 C 
ATOM     14  C   LIG    1       20.507 -32.947  10.305  0.00  0.00    +0.089 C 
ATOM     15  C   LIG    1       21.553 -33.782   9.564  0.00  0.00    +0.051 C 
ATOM     16  C   LIG    1       22.885 -33.094   9.367  0.00  0.00    -0.034 A 
ATOM     17  C   LIG    1       23.925 -33.825   8.777  0.00  0.00    +0.053 A 
ATOM     18  C   LIG    1       25.090 -33.161   8.472  0.00  0.00    +0.170 A 
ATOM     19  O   LIG    1       26.187 -33.743   7.915  0.00  0.00    -0.453 OA
ATOM     20  C   LIG    1       27.079 -32.618   7.849  0.00  0.00    +0.467 C 
ATOM     21  O   LIG    1       26.477 -31.384   8.282  0.00  0.00    -0.449 OA
ATOM     22  C   LIG    1       25.239 -31.807   8.674  0.00  0.00    +0.208 A 
ATOM     23  C   LIG    1       24.215 -31.038   9.215  0.00  0.00    +0.170 A 
ATOM     24  C   LIG    1       23.040 -31.702   9.638  0.00  0.00    +0.022 A 
BRANCH  23  25
ATOM     25  O   LIG    1       24.253 -29.680   9.383  0.00  0.00    -0.491 OA
ATOM     26  C   LIG    1       24.350 -28.911   8.187  0.00  0.00    +0.277 C 
ENDBRANCH  23  25
ENDBRANCH   8  11
BRANCH   4  27
ATOM     27  N   LIG    1       22.539 -26.399  13.414  0.00  0.00    -0.354 N 
ATOM     28  H   LIG    1       21.934 -26.403  14.232  0.00  0.00    +0.142 HD
ATOM     29  H   LIG    1       22.093 -26.029  12.573  0.00  0.00    +0.142 HD
ENDBRANCH   4  27
BRANCH   1  30
ATOM     30  O   LIG    1       25.096 -31.251  12.269  0.00  0.00    -0.488 OA
BRANCH  30  32
ATOM     31  C   LIG    1       24.572 -33.495  12.909  0.00  0.00    +0.048 C 
ATOM     32  C   LIG    1       25.103 -32.151  13.379  0.00  0.00    +0.226 C 
ENDBRANCH  30  32
ENDBRANCH   1  30
BRANCH   2  33
ATOM     33  O   LIG    1       26.657 -29.037  12.946  0.00  0.00    -0.485 OA
BRANCH  33  34
ATOM     34  C   LIG    1       27.408 -28.298  11.975  0.00  0.00    +0.226 C 
ATOM     35  C   LIG    1       27.387 -29.039  10.647  0.00  0.00    +0.048 C 
ENDBRANCH  33  34
ENDBRANCH   2  33
BRANCH   3  36
ATOM     36  O   LIG    1       25.288 -26.470  13.079  0.00  0.00    -0.487 OA
BRANCH  36  37
ATOM     37  C   LIG    1       25.618 -26.097  14.431  0.00  0.00    +0.226 C 
ATOM     38  C   LIG    1       26.197 -24.692  14.489  0.00  0.00    +0.048 C 
ENDBRANCH  36  37
ENDBRANCH   3  36
TORSDOF 9
ENDMDL
MODEL 7
REMARK VINA RESULT:      -3.3      2.405      6.166
REMARK  Name = *****
REMARK                            x       y       z     vdW  Elec       q    Type
REMARK                         _______ _______ _______ _____ _____    ______ ____
ROOT
ATOM      1  C   LIG    1       24.867 -28.050  13.465  0.00  0.00    +0.173 A 
ATOM      2  C   LIG    1       25.987 -27.623  14.203  0.00  0.00    +0.206 A 
ATOM      3  C   LIG    1       27.272 -28.018  13.763  0.00  0.00    +0.187 A 
ATOM      4  C   LIG    1       27.480 -28.556  12.479  0.00  0.00    +0.085 A 
ATOM      5  C   LIG    1       26.334 -28.958  11.816  0.00  0.00    +0.094 A 
ATOM      6  C   LIG    1       26.223 -29.502  10.469  0.00  0.00    +0.342 C 
ATOM      7  O   LIG    1       24.885 -29.619  10.227  0.00  0.00    -0.451 OA
ATOM      8  C   LIG    1       24.088 -29.513  11.442  0.00  0.00    +0.233 C 
ATOM      9  O   LIG    1       27.117 -29.687   9.677  0.00  0.00    -0.245 OA
ATOM     10  C   LIG    1       25.060 -28.810  12.324  0.00  0.00    +0.056 A 
ENDROOT
BRANCH   8  11
ATOM     11  C   LIG    1       23.645 -30.977  11.879  0.00  0.00    +0.136 C 
ATOM     12  N   LIG    1       23.730 -32.033  10.820  0.00  0.00    -0.295 NA
ATOM     13  C   LIG    1       25.074 -32.327  10.342  0.00  0.00    +0.105 C 
ATOM     14  C   LIG    1       22.813 -31.744   9.716  0.00  0.00    +0.089 C 
ATOM     15  C   LIG    1       21.361 -31.820  10.192  0.00  0.00    +0.051 C 
ATOM     16  C   LIG    1       21.127 -31.298  11.591  0.00  0.00    -0.034 A 
ATOM     17  C   LIG    1       19.810 -31.250  12.067  0.00  0.00    +0.053 A 
ATOM     18  C   LIG    1       19.610 -30.908  13.384  0.00  0.00    +0.170 A 
ATOM     19  O   LIG    1       18.390 -30.802  13.977  0.00  0.00    -0.453 OA
ATOM     20  C   LIG    1       18.773 -30.404  15.304  0.00  0.00    +0.467 C 
ATOM     21  O   LIG    1       20.199 -30.364  15.499  0.00  0.00    -0.449 OA
ATOM     22  C   LIG    1       20.655 -30.672  14.249  0.00  0.00    +0.208 A 
ATOM     23  C   LIG    1       21.977 -30.755  13.828  0.00  0.00    +0.170 A 
ATOM     24  C   LIG    1       22.222 -31.001  12.457  0.00  0.00    +0.022 A 
BRANCH  23  25
ATOM     25  O   LIG    1       23.073 -30.606  14.635  0.00  0.00    -0.491 OA
ATOM     26  C   LIG    1       23.399 -31.729  15.449  0.00  0.00    +0.277 C 
ENDBRANCH  23  25
ENDBRANCH   8  11
BRANCH   4  27
ATOM     27  N   LIG    1       28.762 -28.927  12.040  0.00  0.00    -0.354 N 
ATOM     28  H   LIG    1       28.751 -29.707  11.388  0.00  0.00    +0.142 HD
ATOM     29  H   LIG    1       29.447 -29.028  12.791  0.00  0.00    +0.142 HD
ENDBRANCH   4  27
BRANCH   1  30
ATOM     30  O   LIG    1       23.575 -27.820  13.844  0.00  0.00    -0.488 OA
BRANCH  30  32
ATOM     31  C   LIG    1       21.501 -26.827  13.185  0.00  0.00    +0.048 C 
ATOM     32  C   LIG    1       23.010 -26.656  13.237  0.00  0.00    +0.226 C 
ENDBRANCH  30  32
ENDBRANCH   1  30
BRANCH   2  33
ATOM     33  O   LIG    1       25.742 -26.951  15.374  0.00  0.00    -0.485 OA
BRANCH  33  34
ATOM     34  C   LIG    1       26.271 -25.624  15.489  0.00  0.00    +0.226 C 
ATOM     35  C   LIG    1       25.178 -24.615  15.175  0.00  0.00    +0.048 C 
ENDBRANCH  33  34
ENDBRANCH   2  33
BRANCH   3  36
ATOM     36  O   LIG    1       28.366 -27.956  14.604  0.00  0.00    -0.487 OA
BRANCH  36  37
ATOM     37  C   LIG    1       28.339 -29.084  15.500  0.00  0.00    +0.226 C 
ATOM     38  C   LIG    1       29.627 -29.887  15.412  0.00  0.00    +0.048 C 
ENDBRANCH  36  37
ENDBRANCH   3  36
TORSDOF 9
ENDMDL
MODEL 8
REMARK VINA RESULT:      -3.1      2.069      5.882
REMARK  Name = *****
REMARK                            x       y       z     vdW  Elec       q    Type
REMARK                         _______ _______ _______ _____ _____    ______ ____
ROOT
ATOM      1  C   LIG    1       24.390 -30.923  13.000  0.00  0.00    +0.173 A 
ATOM      2  C   LIG    1       25.634 -31.153  12.383  0.00  0.00    +0.206 A 
ATOM      3  C   LIG    1       26.414 -30.035  12.006  0.00  0.00    +0.187 A 
ATOM      4  C   LIG    1       26.134 -28.743  12.488  0.00  0.00    +0.085 A 
ATOM      5  C   LIG    1       24.892 -28.591  13.079  0.00  0.00    +0.094 A 
ATOM      6  C   LIG    1       24.339 -27.399  13.708  0.00  0.00    +0.342 C 
ATOM      7  O   LIG    1       23.148 -27.786  14.251  0.00  0.00    -0.451 OA
ATOM      8  C   LIG    1       22.696 -29.073  13.740  0.00  0.00    +0.233 C 
ATOM      9  O   LIG    1       24.876 -26.324  13.841  0.00  0.00    -0.245 OA
ATOM     10  C   LIG    1       23.990 -29.621  13.247  0.00  0.00    +0.056 A 
ENDROOT
BRANCH   8  11
ATOM     11  C   LIG    1       21.562 -28.810  12.655  0.00  0.00    +0.136 C 
ATOM     12  N   LIG    1       20.362 -28.050  13.130  0.00  0.00    -0.295 NA
ATOM     13  C   LIG    1       20.619 -26.676  13.539  0.00  0.00    +0.105 C 
ATOM     14  C   LIG    1       19.642 -28.798  14.161  0.00  0.00    +0.089 C 
ATOM     15  C   LIG    1       19.053 -30.084  13.578  0.00  0.00    +0.051 C 
ATOM     16  C   LIG    1       19.923 -30.766  12.548  0.00  0.00    -0.034 A 
ATOM     17  C   LIG    1       19.496 -31.997  12.032  0.00  0.00    +0.053 A 
ATOM     18  C   LIG    1       20.214 -32.550  10.997  0.00  0.00    +0.170 A 
ATOM     19  O   LIG    1       19.928 -33.744  10.411  0.00  0.00    -0.453 OA
ATOM     20  C   LIG    1       20.988 -33.825   9.443  0.00  0.00    +0.467 C 
ATOM     21  O   LIG    1       21.824 -32.653   9.412  0.00  0.00    -0.449 OA
ATOM     22  C   LIG    1       21.290 -31.909  10.425  0.00  0.00    +0.208 A 
ATOM     23  C   LIG    1       21.718 -30.666  10.877  0.00  0.00    +0.170 A 
ATOM     24  C   LIG    1       21.070 -30.113  12.007  0.00  0.00    +0.022 A 
BRANCH  23  25
ATOM     25  O   LIG    1       22.729 -29.930  10.322  0.00  0.00    -0.491 OA
ATOM     26  C   LIG    1       23.370 -30.514   9.190  0.00  0.00    +0.277 C 
ENDBRANCH  23  25
ENDBRANCH   8  11
BRANCH   4  27
ATOM     27  N   LIG    1       26.926 -27.640  12.128  0.00  0.00    -0.354 N 
ATOM     28  H   LIG    1       27.072 -27.563  11.124  0.00  0.00    +0.142 HD
ATOM     29  H   LIG    1       27.782 -27.545  12.677  0.00  0.00    +0.142 HD
ENDBRANCH   4  27
BRANCH   1  30
ATOM     30  O   LIG    1       23.503 -31.913  13.317  0.00  0.00    -0.488 OA
BRANCH  30  32
ATOM     31  C   LIG    1       22.194 -32.458  15.242  0.00  0.00    +0.048 C 
ATOM     32  C   LIG    1       23.599 -32.341  14.677  0.00  0.00    +0.226 C 
ENDBRANCH  30  32
ENDBRANCH   1  30
BRANCH   2  33
ATOM     33  O   LIG    1       25.946 -32.454  12.076  0.00  0.00    -0.485 OA
BRANCH  33  34
ATOM     34  C   LIG    1       25.092 -33.127  11.142  0.00  0.00    +0.226 C 
ATOM     35  C   LIG    1       25.942 -33.825  10.092  0.00  0.00    +0.048 C 
ENDBRANCH  33  34
ENDBRANCH   2  33
BRANCH   3  36
ATOM     36  O   LIG    1       27.444 -30.157  11.093  0.00  0.00    -0.487 OA
BRANCH  36  37
ATOM     37  C   LIG    1       26.889 -30.297   9.771  0.00  0.00    +0.226 C 
ATOM     38  C   LIG    1       26.656 -28.939   9.126  0.00  0.00    +0.048 C 
ENDBRANCH  36  37
ENDBRANCH   3  36
TORSDOF 9
ENDMDL
MODEL 9
REMARK VINA RESULT:      -2.9      2.343      5.839
REMARK  Name = *****
REMARK                            x       y       z     vdW  Elec       q    Type
REMARK                         _______ _______ _______ _____ _____    ______ ____
ROOT
ATOM      1  C   LIG    1       25.450 -30.064  11.386  0.00  0.00    +0.173 A 
ATOM      2  C   LIG    1       25.179 -31.294  10.759  0.00  0.00    +0.206 A 
ATOM      3  C   LIG    1       23.873 -31.828  10.863  0.00  0.00    +0.187 A 
ATOM      4  C   LIG    1       22.789 -31.046  11.302  0.00  0.00    +0.085 A 
ATOM      5  C   LIG    1       23.132 -29.853  11.912  0.00  0.00    +0.094 A 
ATOM      6  C   LIG    1       22.241 -28.819  12.422  0.00  0.00    +0.342 C 
ATOM      7  O   LIG    1       23.051 -27.790  12.808  0.00  0.00    -0.451 OA
ATOM      8  C   LIG    1       24.448 -28.191  12.911  0.00  0.00    +0.233 C 
ATOM      9  O   LIG    1       21.033 -28.810  12.390  0.00  0.00    -0.245 OA
ATOM     10  C   LIG    1       24.430 -29.406  12.050  0.00  0.00    +0.056 A 
ENDROOT
BRANCH   8  11
ATOM     11  C   LIG    1       24.796 -28.401  14.449  0.00  0.00    +0.136 C 
ATOM     12  N   LIG    1       24.195 -27.410  15.400  0.00  0.00    -0.295 NA
ATOM     13  C   LIG    1       22.742 -27.431  15.482  0.00  0.00    +0.105 C 
ATOM     14  C   LIG    1       24.706 -26.063  15.144  0.00  0.00    +0.089 C 
ATOM     15  C   LIG    1       26.205 -25.992  15.441  0.00  0.00    +0.051 C 
ATOM     16  C   LIG    1       26.982 -27.232  15.064  0.00  0.00    -0.034 A 
ATOM     17  C   LIG    1       28.375 -27.213  15.221  0.00  0.00    +0.053 A 
ATOM     18  C   LIG    1       29.066 -28.383  15.011  0.00  0.00    +0.170 A 
ATOM     19  O   LIG    1       30.417 -28.509  15.108  0.00  0.00    -0.453 OA
ATOM     20  C   LIG    1       30.579 -29.897  14.769  0.00  0.00    +0.467 C 
ATOM     21  O   LIG    1       29.332 -30.584  14.563  0.00  0.00    -0.449 OA
ATOM     22  C   LIG    1       28.431 -29.568  14.712  0.00  0.00    +0.208 A 
ATOM     23  C   LIG    1       27.048 -29.640  14.593  0.00  0.00    +0.170 A 
ATOM     24  C   LIG    1       26.311 -28.437  14.699  0.00  0.00    +0.022 A 
BRANCH  23  25
ATOM     25  O   LIG    1       26.334 -30.786  14.370  0.00  0.00    -0.491 OA
ATOM     26  C   LIG    1       26.185 -31.651  15.493  0.00  0.00    +0.277 C 
ENDBRANCH  23  25
ENDBRANCH   8  11
BRANCH   4  27
ATOM     27  N   LIG    1       21.489 -31.575  11.382  0.00  0.00    -0.354 N 
ATOM     28  H   LIG    1       21.467 -32.529  11.735  0.00  0.00    +0.142 HD
ATOM     29  H   LIG    1       20.930 -31.435  10.539  0.00  0.00    +0.142 HD
ENDBRANCH   4  27
BRANCH   1  30
ATOM     30  O   LIG    1       26.692 -29.498  11.444  0.00  0.00    -0.488 OA
BRANCH  30  32
ATOM     31  C   LIG    1       26.694 -28.317   9.364  0.00  0.00    +0.048 C 
ATOM     32  C   LIG    1       26.740 -28.187  10.877  0.00  0.00    +0.226 C 
ENDBRANCH  30  32
ENDBRANCH   1  30
BRANCH   2  33
ATOM     33  O   LIG    1       26.242 -31.953  10.193  0.00  0.00    -0.485 OA
BRANCH  33  34
ATOM     34  C   LIG    1       26.450 -31.769   8.787  0.00  0.00    +0.226 C 
ATOM     35  C   LIG    1       27.210 -32.962   8.228  0.00  0.00    +0.048 C 
ENDBRANCH  33  34
ENDBRANCH   2  33
BRANCH   3  36
ATOM     36  O   LIG    1       23.623 -33.161  10.601  0.00  0.00    -0.487 OA
BRANCH  36  37
ATOM     37  C   LIG    1       22.672 -33.262   9.523  0.00  0.00    +0.226 C 
ATOM     38  C   LIG    1       23.366 -33.206   8.171  0.00  0.00    +0.048 C 
ENDBRANCH  36  37
ENDBRANCH   3  36
TORSDOF 9
ENDMDL
