MODEL 1
REMARK VINA RESULT:      -5.9      0.000      0.000
REMARK  Name = *****
REMARK                            x       y       z     vdW  Elec       q    Type
REMARK                         _______ _______ _______ _____ _____    ______ ____
ROOT
ATOM      1  C   LIG    1       23.932 -21.277   6.630  0.00  0.00    +0.052 C 
ATOM      2  C   LIG    1       24.651 -21.888   5.441  0.00  0.00    +0.226 C 
ATOM      3  O   LIG    1       25.333 -21.288   4.627  0.00  0.00    -0.275 OA
ATOM      4  N   LIG    1       24.430 -23.226   5.431  0.00  0.00    -0.256 N 
ATOM      5  H   LIG    1       24.827 -23.844   4.741  0.00  0.00    +0.158 HD
ATOM      6  C   LIG    1       23.624 -23.653   6.432  0.00  0.00    +0.220 C 
ATOM      7  O   LIG    1       23.294 -24.810   6.625  0.00  0.00    -0.275 OA
ATOM      8  C   LIG    1       23.184 -22.473   7.249  0.00  0.00    +0.112 C 
ATOM      9  C   LIG    1       22.938 -20.227   6.117  0.00  0.00    +0.021 C 
ENDROOT
BRANCH   1  11
ATOM     10  C   LIG    1       25.797 -21.578   8.410  0.00  0.00    +0.005 C 
ATOM     11  C   LIG    1       24.940 -20.617   7.594  0.00  0.00    +0.013 C 
ENDBRANCH   1  11
TORSDOF 1
ENDMDL
MODEL 2
REMARK VINA RESULT:      -5.8      2.556      3.911
REMARK  Name = *****
REMARK                            x       y       z     vdW  Elec       q    Type
REMARK                         _______ _______ _______ _____ _____    ______ ____
ROOT
ATOM      1  C   LIG    1       24.967 -21.364   7.121  0.00  0.00    +0.052 C 
ATOM      2  C   LIG    1       25.896 -20.860   8.209  0.00  0.00    +0.226 C 
ATOM      3  O   LIG    1       25.714 -20.954   9.412  0.00  0.00    -0.275 OA
ATOM      4  N   LIG    1       26.986 -20.293   7.633  0.00  0.00    -0.256 N 
ATOM      5  H   LIG    1       27.750 -19.907   8.164  0.00  0.00    +0.158 HD
ATOM      6  C   LIG    1       26.949 -20.295   6.279  0.00  0.00    +0.220 C 
ATOM      7  O   LIG    1       27.817 -19.847   5.551  0.00  0.00    -0.275 OA
ATOM      8  C   LIG    1       25.658 -20.911   5.822  0.00  0.00    +0.112 C 
ATOM      9  C   LIG    1       23.607 -20.672   7.276  0.00  0.00    +0.021 C 
ENDROOT
BRANCH   1  11
ATOM     10  C   LIG    1       23.433 -23.431   6.779  0.00  0.00    +0.005 C 
ATOM     11  C   LIG    1       24.790 -22.894   7.222  0.00  0.00    +0.013 C 
ENDBRANCH   1  11
TORSDOF 1
ENDMDL
MODEL 3
REMARK VINA RESULT:      -5.7      2.440      3.359
REMARK  Name = *****
REMARK                            x       y       z     vdW  Elec       q    Type
REMARK                         _______ _______ _______ _____ _____    ______ ____
ROOT
ATOM      1  C   LIG    1       24.510 -21.109   6.170  0.00  0.00    +0.052 C 
ATOM      2  C   LIG    1       25.861 -20.437   6.009  0.00  0.00    +0.226 C 
ATOM      3  O   LIG    1       26.369 -20.085   4.957  0.00  0.00    -0.275 OA
ATOM      4  N   LIG    1       26.420 -20.270   7.234  0.00  0.00    -0.256 N 
ATOM      5  H   LIG    1       27.313 -19.825   7.374  0.00  0.00    +0.158 HD
ATOM      6  C   LIG    1       25.667 -20.759   8.247  0.00  0.00    +0.220 C 
ATOM      7  O   LIG    1       25.963 -20.716   9.428  0.00  0.00    -0.275 OA
ATOM      8  C   LIG    1       24.425 -21.384   7.682  0.00  0.00    +0.112 C 
ATOM      9  C   LIG    1       24.519 -22.425   5.382  0.00  0.00    +0.021 C 
ENDROOT
BRANCH   1  11
ATOM     10  C   LIG    1       22.205 -20.908   4.990  0.00  0.00    +0.005 C 
ATOM     11  C   LIG    1       23.382 -20.194   5.647  0.00  0.00    +0.013 C 
ENDBRANCH   1  11
TORSDOF 1
ENDMDL
MODEL 4
REMARK VINA RESULT:      -5.7      1.988      3.021
REMARK  Name = *****
REMARK                            x       y       z     vdW  Elec       q    Type
REMARK                         _______ _______ _______ _____ _____    ______ ____
ROOT
ATOM      1  C   LIG    1       23.971 -22.367   6.526  0.00  0.00    +0.052 C 
ATOM      2  C   LIG    1       25.141 -23.284   6.224  0.00  0.00    +0.226 C 
ATOM      3  O   LIG    1       25.201 -24.100   5.319  0.00  0.00    -0.275 OA
ATOM      4  N   LIG    1       26.134 -23.044   7.117  0.00  0.00    -0.256 N 
ATOM      5  H   LIG    1       27.019 -23.525   7.097  0.00  0.00    +0.158 HD
ATOM      6  C   LIG    1       25.822 -22.102   8.037  0.00  0.00    +0.220 C 
ATOM      7  O   LIG    1       26.557 -21.719   8.930  0.00  0.00    -0.275 OA
ATOM      8  C   LIG    1       24.419 -21.624   7.798  0.00  0.00    +0.112 C 
ATOM      9  C   LIG    1       22.733 -23.226   6.811  0.00  0.00    +0.021 C 
ENDROOT
BRANCH   1  11
ATOM     10  C   LIG    1       22.831 -20.209   5.640  0.00  0.00    +0.005 C 
ATOM     11  C   LIG    1       23.693 -21.429   5.332  0.00  0.00    +0.013 C 
ENDBRANCH   1  11
TORSDOF 1
ENDMDL
MODEL 5
REMARK VINA RESULT:      -5.6      2.603      3.700
REMARK  Name = *****
REMARK                            x       y       z     vdW  Elec       q    Type
REMARK                         _______ _______ _______ _____ _____    ______ ____
ROOT
ATOM      1  C   LIG    1       25.132 -21.374   6.270  0.00  0.00    +0.052 C 
ATOM      2  C   LIG    1       24.440 -21.113   7.595  0.00  0.00    +0.226 C 
ATOM      3  O   LIG    1       23.261 -21.309   7.842  0.00  0.00    -0.275 OA
ATOM      4  N   LIG    1       25.348 -20.637   8.482  0.00  0.00    -0.256 N 
ATOM      5  H   LIG    1       25.118 -20.412   9.437  0.00  0.00    +0.158 HD
ATOM      6  C   LIG    1       26.591 -20.491   7.964  0.00  0.00    +0.220 C 
ATOM      7  O   LIG    1       27.565 -20.087   8.574  0.00  0.00    -0.275 OA
ATOM      8  C   LIG    1       26.570 -20.882   6.515  0.00  0.00    +0.112 C 
ATOM      9  C   LIG    1       24.451 -20.530   5.185  0.00  0.00    +0.021 C 
ENDROOT
BRANCH   1  11
ATOM     10  C   LIG    1       25.629 -23.836   6.926  0.00  0.00    +0.005 C 
ATOM     11  C   LIG    1       25.049 -22.870   5.898  0.00  0.00    +0.013 C 
ENDBRANCH   1  11
TORSDOF 1
ENDMDL
MODEL 6
REMARK VINA RESULT:      -5.6      1.799      2.460
REMARK  Name = *****
REMARK                            x       y       z     vdW  Elec       q    Type
REMARK                         _______ _______ _______ _____ _____    ______ ____
ROOT
ATOM      1  C   LIG    1       25.227 -22.335   7.133  0.00  0.00    +0.052 C 
ATOM      2  C   LIG    1       23.730 -22.142   7.285  0.00  0.00    +0.226 C 
ATOM      3  O   LIG    1       23.169 -21.120   7.645  0.00  0.00    -0.275 OA
ATOM      4  N   LIG    1       23.099 -23.292   6.940  0.00  0.00    -0.256 N 
ATOM      5  H   LIG    1       22.096 -23.391   6.944  0.00  0.00    +0.158 HD
ATOM      6  C   LIG    1       23.942 -24.293   6.591  0.00  0.00    +0.220 C 
ATOM      7  O   LIG    1       23.602 -25.408   6.239  0.00  0.00    -0.275 OA
ATOM      8  C   LIG    1       25.358 -23.816   6.731  0.00  0.00    +0.112 C 
ATOM      9  C   LIG    1       25.896 -22.084   8.491  0.00  0.00    +0.021 C 
ENDROOT
BRANCH   1  11
ATOM     10  C   LIG    1       26.927 -20.456   6.564  0.00  0.00    +0.005 C 
ATOM     11  C   LIG    1       25.797 -21.360   6.081  0.00  0.00    +0.013 C 
ENDBRANCH   1  11
TORSDOF 1
ENDMDL
MODEL 7
REMARK VINA RESULT:      -5.6      6.183      7.613
REMARK  Name = *****
REMARK                            x       y       z     vdW  Elec       q    Type
REMARK                         _______ _______ _______ _____ _____    ______ ____
ROOT
ATOM      1  C   LIG    1       30.809 -18.638   8.703  0.00  0.00    +0.052 C 
ATOM      2  C   LIG    1       31.245 -20.091   8.665  0.00  0.00    +0.226 C 
ATOM      3  O   LIG    1       32.087 -20.608   9.382  0.00  0.00    -0.275 OA
ATOM      4  N   LIG    1       30.535 -20.741   7.710  0.00  0.00    -0.256 N 
ATOM      5  H   LIG    1       30.643 -21.725   7.519  0.00  0.00    +0.158 HD
ATOM      6  C   LIG    1       29.672 -19.945   7.036  0.00  0.00    +0.220 C 
ATOM      7  O   LIG    1       28.929 -20.310   6.143  0.00  0.00    -0.275 OA
ATOM      8  C   LIG    1       29.796 -18.539   7.548  0.00  0.00    +0.112 C 
ATOM      9  C   LIG    1       32.029 -17.751   8.427  0.00  0.00    +0.021 C 
ENDROOT
BRANCH   1  11
ATOM     10  C   LIG    1       30.779 -17.041  10.750  0.00  0.00    +0.005 C 
ATOM     11  C   LIG    1       30.207 -18.286  10.080  0.00  0.00    +0.013 C 
ENDBRANCH   1  11
TORSDOF 1
ENDMDL
MODEL 8
REMARK VINA RESULT:      -5.6      5.900      7.205
REMARK  Name = *****
REMARK                            x       y       z     vdW  Elec       q    Type
REMARK                         _______ _______ _______ _____ _____    ______ ____
ROOT
ATOM      1  C   LIG    1       29.676 -19.634   7.725  0.00  0.00    +0.052 C 
ATOM      2  C   LIG    1       30.289 -18.720   8.770  0.00  0.00    +0.226 C 
ATOM      3  O   LIG    1       29.985 -17.557   8.976  0.00  0.00    -0.275 OA
ATOM      4  N   LIG    1       31.229 -19.410   9.464  0.00  0.00    -0.256 N 
ATOM      5  H   LIG    1       31.754 -19.009  10.224  0.00  0.00    +0.158 HD
ATOM      6  C   LIG    1       31.395 -20.684   9.037  0.00  0.00    +0.220 C 
ATOM      7  O   LIG    1       32.176 -21.489   9.512  0.00  0.00    -0.275 OA
ATOM      8  C   LIG    1       30.484 -20.936   7.870  0.00  0.00    +0.112 C 
ATOM      9  C   LIG    1       29.897 -19.014   6.340  0.00  0.00    +0.021 C 
ENDROOT
BRANCH   1  11
ATOM     10  C   LIG    1       27.368 -20.408   6.823  0.00  0.00    +0.005 C 
ATOM     11  C   LIG    1       28.165 -19.816   7.981  0.00  0.00    +0.013 C 
ENDBRANCH   1  11
TORSDOF 1
ENDMDL
MODEL 9
REMARK VINA RESULT:      -5.6      2.134      3.567
REMARK  Name = *****
REMARK                            x       y       z     vdW  Elec       q    Type
REMARK                         _______ _______ _______ _____ _____    ______ ____
ROOT
ATOM      1  C   LIG    1       25.050 -22.364   7.048  0.00  0.00    +0.052 C 
ATOM      2  C   LIG    1       25.478 -21.296   6.058  0.00  0.00    +0.226 C 
ATOM      3  O   LIG    1       25.122 -21.210   4.894  0.00  0.00    -0.275 OA
ATOM      4  N   LIG    1       26.317 -20.429   6.677  0.00  0.00    -0.256 N 
ATOM      5  H   LIG    1       26.713 -19.624   6.218  0.00  0.00    +0.158 HD
ATOM      6  C   LIG    1       26.573 -20.747   7.968  0.00  0.00    +0.220 C 
ATOM      7  O   LIG    1       27.290 -20.112   8.721  0.00  0.00    -0.275 OA
ATOM      8  C   LIG    1       25.855 -22.019   8.315  0.00  0.00    +0.112 C 
ATOM      9  C   LIG    1       25.466 -23.735   6.502  0.00  0.00    +0.021 C 
ENDROOT
BRANCH   1  11
ATOM     10  C   LIG    1       22.758 -23.549   6.764  0.00  0.00    +0.005 C 
ATOM     11  C   LIG    1       23.522 -22.326   7.261  0.00  0.00    +0.013 C 
ENDBRANCH   1  11
TORSDOF 1
ENDMDL
