MODEL 1
REMARK VINA RESULT:      11.5      0.000      0.000
REMARK  Name = *****
REMARK                            x       y       z     vdW  Elec       q    Type
REMARK                         _______ _______ _______ _____ _____    ______ ____
ROOT
ATOM      1  C   LIG    1       24.578 -14.400   3.639  0.00  0.00    +0.034 C 
ATOM      2  C   LIG    1       23.817 -14.265   2.306  0.00  0.00    +0.020 C 
ATOM      3  C   LIG    1       24.216 -15.706   4.465  0.00  0.00    -0.014 C 
ATOM      4  C   LIG    1       24.713 -15.551   5.941  0.00  0.00    +0.012 C 
ATOM      5  C   LIG    1       25.082 -16.836   3.808  0.00  0.00    -0.000 C 
ATOM      6  C   LIG    1       24.366 -17.769   2.803  0.00  0.00    -0.000 C 
ATOM      7  C   LIG    1       23.015 -18.304   3.304  0.00  0.00    +0.035 C 
ATOM      8  C   LIG    1       22.133 -17.069   3.582  0.00  0.00    +0.119 C 
ATOM      9  C   LIG    1       23.071 -19.504   4.345  0.00  0.00    +0.013 C 
ATOM     10  C   LIG    1       21.740 -20.304   4.235  0.00  0.00    +0.020 C 
ATOM     11  C   LIG    1       24.239 -20.489   4.044  0.00  0.00    -0.056 C 
ATOM     12  C   LIG    1       24.453 -21.513   4.908  0.00  0.00    +0.051 C 
ATOM     13  C   LIG    1       24.752 -20.964   6.283  0.00  0.00    +0.179 C 
ATOM     14  O   LIG    1       25.491 -21.552   7.062  0.00  0.00    -0.288 OA
ATOM     15  C   LIG    1       24.011 -19.735   6.684  0.00  0.00    +0.047 C 
ATOM     16  C   LIG    1       25.499 -19.948   3.406  0.00  0.00    +0.032 C 
ATOM     17  C   LIG    1       23.215 -19.097   5.808  0.00  0.00    -0.012 C 
ATOM     18  C   LIG    1       25.230 -18.936   2.312  0.00  0.00    +0.008 C 
ATOM     19  C   LIG    1       26.262 -16.114   3.115  0.00  0.00    +0.008 C 
ATOM     20  C   LIG    1       22.706 -16.039   4.557  0.00  0.00    +0.039 C 
ATOM     21  C   LIG    1       26.105 -14.617   3.382  0.00  0.00    -0.000 C 
ATOM     22  C   LIG    1       26.734 -13.777   2.270  0.00  0.00    +0.008 C 
ENDROOT
BRANCH   1  23
ATOM     23  C   LIG    1       24.387 -13.077   4.447  0.00  0.00    +0.140 C 
ATOM     24  O   LIG    1       24.854 -12.948   5.583  0.00  0.00    -0.297 OA
BRANCH  23  26
ATOM     25  C   LIG    1       24.142 -11.475   2.504  0.00  0.00    +0.012 C 
ATOM     26  C   LIG    1       23.567 -11.949   3.830  0.00  0.00    +0.071 C 
ENDBRANCH  23  26
ENDBRANCH   1  23
BRANCH   8  27
ATOM     27  O   LIG    1       20.832 -17.439   4.018  0.00  0.00    -0.391 OA
ATOM     28  H   LIG    1       20.282 -16.636   4.049  0.00  0.00    +0.210 HD
ENDBRANCH   8  27
TORSDOF 3
ENDMDL
MODEL 2
REMARK VINA RESULT:      12.1      0.717      1.036
REMARK  Name = *****
REMARK                            x       y       z     vdW  Elec       q    Type
REMARK                         _______ _______ _______ _____ _____    ______ ____
ROOT
ATOM      1  C   LIG    1       24.420 -14.445   3.611  0.00  0.00    +0.034 C 
ATOM      2  C   LIG    1       23.641 -14.323   2.287  0.00  0.00    +0.020 C 
ATOM      3  C   LIG    1       24.078 -15.749   4.449  0.00  0.00    -0.014 C 
ATOM      4  C   LIG    1       24.593 -15.582   5.917  0.00  0.00    +0.012 C 
ATOM      5  C   LIG    1       24.945 -16.876   3.788  0.00  0.00    -0.000 C 
ATOM      6  C   LIG    1       24.224 -17.820   2.796  0.00  0.00    -0.000 C 
ATOM      7  C   LIG    1       22.883 -18.363   3.317  0.00  0.00    +0.035 C 
ATOM      8  C   LIG    1       21.995 -17.133   3.600  0.00  0.00    +0.119 C 
ATOM      9  C   LIG    1       22.962 -19.557   4.364  0.00  0.00    +0.013 C 
ATOM     10  C   LIG    1       21.636 -20.368   4.275  0.00  0.00    +0.020 C 
ATOM     11  C   LIG    1       24.134 -20.534   4.054  0.00  0.00    -0.056 C 
ATOM     12  C   LIG    1       24.367 -21.552   4.921  0.00  0.00    +0.051 C 
ATOM     13  C   LIG    1       24.679 -20.993   6.289  0.00  0.00    +0.179 C 
ATOM     14  O   LIG    1       25.432 -21.570   7.062  0.00  0.00    -0.288 OA
ATOM     15  C   LIG    1       23.933 -19.767   6.693  0.00  0.00    +0.047 C 
ATOM     16  C   LIG    1       25.381 -19.987   3.397  0.00  0.00    +0.032 C 
ATOM     17  C   LIG    1       23.120 -19.140   5.822  0.00  0.00    -0.012 C 
ATOM     18  C   LIG    1       25.091 -18.983   2.301  0.00  0.00    +0.008 C 
ATOM     19  C   LIG    1       26.110 -16.149   3.076  0.00  0.00    +0.008 C 
ATOM     20  C   LIG    1       22.572 -16.094   4.562  0.00  0.00    +0.039 C 
ATOM     21  C   LIG    1       25.945 -14.651   3.336  0.00  0.00    -0.000 C 
ATOM     22  C   LIG    1       26.553 -13.813   2.211  0.00  0.00    +0.008 C 
ENDROOT
BRANCH   1  23
ATOM     23  C   LIG    1       24.228 -13.119   4.414  0.00  0.00    +0.140 C 
ATOM     24  O   LIG    1       23.489 -12.221   3.998  0.00  0.00    -0.297 OA
BRANCH  23  26
ATOM     25  C   LIG    1       26.512 -13.038   5.500  0.00  0.00    +0.012 C 
ATOM     26  C   LIG    1       25.010 -12.922   5.708  0.00  0.00    +0.071 C 
ENDBRANCH  23  26
ENDBRANCH   1  23
BRANCH   8  27
ATOM     27  O   LIG    1       20.703 -17.511   4.054  0.00  0.00    -0.391 OA
ATOM     28  H   LIG    1       20.132 -16.722   4.036  0.00  0.00    +0.210 HD
ENDBRANCH   8  27
TORSDOF 3
ENDMDL
