REMARK  10 active torsions:
REMARK  status: ('A' for Active; 'I' for Inactive)
REMARK    1  A    between atoms: C1_1  and  C2_2 
REMARK    2  A    between atoms: C1_1  and  C7_8 
REMARK    3  A    between atoms: C1_1  and  C12_14 
REMARK    4  A    between atoms: C1_1  and  O4_22 
REMARK    5  A    between atoms: C12_14  and  O3_16 
REMARK    6  A    between atoms: O3_16  and  C15_20 
REMARK    7  A    between atoms: N2_17  and  C18_25 
REMARK    8  A    between atoms: C18_25  and  N3_28 
REMARK    9  A    between atoms: N3_28  and  C19_30 
REMARK   10  A    between atoms: C19_30  and  C20_31 
ROOT
ATOM      1  O3  MOL d          -3.443  -9.939 -19.023  0.00  0.00    -0.296 OA
ENDROOT
BRANCH   1   2
ATOM      2  C12 MOL d          -3.508 -11.148 -19.604  0.00  0.00     0.611 C 
ATOM      3  O2  MOL d          -3.966 -12.171 -19.067  0.00  0.00    -0.541 OA
BRANCH   2   4
ATOM      4  C1  MOL d          -3.003 -11.182 -21.053  0.00  0.00     0.116 C 
BRANCH   4   5
ATOM      5  C2  MOL d          -1.533 -11.592 -21.170  0.00  0.00     0.093 A 
ATOM      6  C3  MOL d          -0.475 -10.671 -21.211  0.00  0.00    -0.196 A 
ATOM      7  C4  MOL d           0.829 -11.140 -21.365  0.00  0.00     0.281 A 
ATOM      8  H20 MOL d          -0.662  -9.613 -21.110  0.00  0.00     0.090 H 
ATOM      9  N1  MOL d           1.141 -12.450 -21.487  0.00  0.00    -0.612 NA
ATOM     10  H19 MOL d           1.663 -10.453 -21.390  0.00  0.00     0.055 H 
ATOM     11  C5  MOL d           0.117 -13.332 -21.447  0.00  0.00     0.281 A 
ATOM     12  C6  MOL d          -1.215 -12.952 -21.292  0.00  0.00    -0.196 A 
ATOM     13  H22 MOL d           0.389 -14.374 -21.543  0.00  0.00     0.055 H 
ATOM     14  H21 MOL d          -2.002 -13.686 -21.245  0.00  0.00     0.090 H 
ENDBRANCH   4   5
BRANCH   4  15
ATOM     15  C7  MOL d          -3.300  -9.815 -21.816  0.00  0.00     0.146 A 
ATOM     16  C8  MOL d          -3.277  -8.563 -20.970  0.00  0.00    -0.276 A 
ATOM     17  C9  MOL d          -4.337  -7.768 -20.823  0.00  0.00     0.069 A 
ATOM     18  H23 MOL d          -2.359  -8.290 -20.472  0.00  0.00     0.123 H 
ATOM     19  O1  MOL d          -5.574  -7.995 -21.442  0.00  0.00    -0.303 OA
ATOM     20  H8  MOL d          -4.372  -6.870 -20.232  0.00  0.00     0.140 H 
ATOM     21  C10 MOL d          -5.630  -9.071 -22.338  0.00  0.00     0.069 A 
ATOM     22  C11 MOL d          -4.614  -9.905 -22.561  0.00  0.00    -0.276 A 
ATOM     23  H9  MOL d          -6.591  -9.107 -22.823  0.00  0.00     0.140 H 
ATOM     24  H7  MOL d          -4.729 -10.698 -23.285  0.00  0.00     0.123 H 
ATOM     25  H24 MOL d          -2.473  -9.788 -22.533  0.00  0.00     0.088 H 
ENDBRANCH   4  15
BRANCH   4  26
ATOM     26  O4  MOL d          -3.827 -12.162 -21.746  0.00  0.00    -0.620 OA
ATOM     27  H1  MOL d          -4.247 -12.733 -21.068  0.00  0.00     0.421 HD
ENDBRANCH   4  26
ENDBRANCH   2   4
ENDBRANCH   1   2
BRANCH   1  28
ATOM     28  C15 MOL d          -2.340  -9.646 -18.027  0.00  0.00     0.075 C 
ATOM     29  C14 MOL d          -2.336 -10.799 -17.033  0.00  0.00    -0.085 C 
ATOM     30  C13 MOL d          -1.324 -10.500 -15.919  0.00  0.00     0.028 C 
ATOM     31  H10 MOL d          -3.328 -10.900 -16.591  0.00  0.00     0.061 H 
ATOM     32  H13 MOL d          -2.092 -11.733 -17.544  0.00  0.00     0.061 H 
ATOM     33  N2  MOL d          -1.642  -9.216 -15.285  0.00  0.00    -0.368 N 
ATOM     34  H11 MOL d          -1.355 -11.253 -15.134  0.00  0.00     0.024 H 
ATOM     35  H12 MOL d          -0.296 -10.497 -16.340  0.00  0.00     0.024 H 
ATOM     36  C17 MOL d          -1.587  -8.089 -16.212  0.00  0.00     0.028 C 
ATOM     37  C16 MOL d          -2.596  -8.297 -17.360  0.00  0.00    -0.085 C 
ATOM     38  H17 MOL d          -0.572  -7.948 -16.638  0.00  0.00     0.024 H 
ATOM     39  H18 MOL d          -1.836  -7.175 -15.671  0.00  0.00     0.024 H 
ATOM     40  H14 MOL d          -2.512  -7.491 -18.093  0.00  0.00     0.061 H 
ATOM     41  H16 MOL d          -3.605  -8.289 -16.944  0.00  0.00     0.061 H 
ATOM     42  H15 MOL d          -1.416  -9.615 -18.604  0.00  0.00     0.100 H 
BRANCH  33  43
ATOM     43  C18 MOL d          -0.967  -8.999 -13.984  0.00  0.00     0.204 C 
ATOM     44  H2  MOL d          -1.469  -8.126 -13.526  0.00  0.00     0.025 H 
ATOM     45  H3  MOL d           0.091  -8.718 -14.133  0.00  0.00     0.025 H 
BRANCH  43  46
ATOM     46  N3  MOL d          -1.010 -10.199 -13.190  0.00  0.00    -0.426 N 
ATOM     47  H4  MOL d          -1.743 -10.220 -12.477  0.00  0.00     0.250 HD
BRANCH  46  48
ATOM     48  C19 MOL d           0.223 -10.660 -12.538  0.00  0.00    -0.022 C 
ATOM     49  H5  MOL d           1.039  -9.921 -12.616  0.00  0.00    -0.003 H 
ATOM     50  H6  MOL d           0.590 -11.596 -12.962  0.00  0.00    -0.003 H 
BRANCH  48  51
ATOM     51  C20 MOL d          -0.038 -10.878 -11.010  0.00  0.00     0.764 C 
ATOM     52  O5  MOL d           0.838 -11.597 -10.400  0.00  0.00    -0.764 OA
ATOM     53  O6  MOL d          -1.102 -10.348 -10.554  0.00  0.00    -0.764 OA
ENDBRANCH  48  51
ENDBRANCH  46  48
ENDBRANCH  43  46
ENDBRANCH  33  43
ENDBRANCH   1  28
TORSDOF 10
