REMARK  10 active torsions:
REMARK  status: ('A' for Active; 'I' for Inactive)
REMARK    1  A    between atoms: C1_1  and  C2_2 
REMARK    2  A    between atoms: C1_1  and  C7_8 
REMARK    3  A    between atoms: C1_1  and  C12_14 
REMARK    4  A    between atoms: C1_1  and  O4_22 
REMARK    5  A    between atoms: C12_14  and  O3_16 
REMARK    6  A    between atoms: O3_16  and  C15_20 
REMARK    7  A    between atoms: N2_17  and  C18_25 
REMARK    8  A    between atoms: C18_25  and  N3_28 
REMARK    9  A    between atoms: N3_28  and  C19_30 
REMARK   10  A    between atoms: C19_30  and  C20_31 
ROOT
ATOM      1  O3  MOL d          -1.083 -13.106  -9.925  0.00  0.00    -0.296 OA
ENDROOT
BRANCH   1   2
ATOM      2  C12 MOL d          -1.447 -12.154 -10.798  0.00  0.00     0.611 C 
ATOM      3  O2  MOL d          -1.631 -10.959 -10.510  0.00  0.00    -0.541 OA
BRANCH   2   4
ATOM      4  C1  MOL d          -1.583 -12.641 -12.247  0.00  0.00     0.116 C 
BRANCH   4   5
ATOM      5  C2  MOL d          -0.781 -11.800 -13.244  0.00  0.00     0.093 A 
ATOM      6  C3  MOL d           0.061 -12.355 -14.220  0.00  0.00    -0.196 A 
ATOM      7  C4  MOL d           0.786 -11.504 -15.054  0.00  0.00     0.281 A 
ATOM      8  H20 MOL d           0.138 -13.424 -14.337  0.00  0.00     0.090 H 
ATOM      9  N1  MOL d           0.732 -10.156 -14.974  0.00  0.00    -0.612 NA
ATOM     10  H19 MOL d           1.434 -11.905 -15.821  0.00  0.00     0.055 H 
ATOM     11  C5  MOL d          -0.081  -9.629 -14.030  0.00  0.00     0.281 A 
ATOM     12  C6  MOL d          -0.844 -10.403 -13.158  0.00  0.00    -0.196 A 
ATOM     13  H22 MOL d          -0.112  -8.548 -13.986  0.00  0.00     0.055 H 
ATOM     14  H21 MOL d          -1.497  -9.945 -12.432  0.00  0.00     0.090 H 
ENDBRANCH   4   5
BRANCH   4  15
ATOM     15  C7  MOL d          -3.109 -12.784 -12.683  0.00  0.00     0.146 A 
ATOM     16  C8  MOL d          -3.657 -14.191 -12.733  0.00  0.00    -0.276 A 
ATOM     17  C9  MOL d          -4.132 -14.744 -13.848  0.00  0.00     0.069 A 
ATOM     18  H23 MOL d          -3.679 -14.772 -11.823  0.00  0.00     0.123 H 
ATOM     19  O1  MOL d          -4.188 -14.085 -15.084  0.00  0.00    -0.303 OA
ATOM     20  H8  MOL d          -4.530 -15.740 -13.936  0.00  0.00     0.140 H 
ATOM     21  C10 MOL d          -3.810 -12.735 -15.083  0.00  0.00     0.069 A 
ATOM     22  C11 MOL d          -3.343 -12.096 -14.010  0.00  0.00    -0.276 A 
ATOM     23  H9  MOL d          -3.971 -12.299 -16.055  0.00  0.00     0.140 H 
ATOM     24  H7  MOL d          -3.093 -11.048 -14.085  0.00  0.00     0.123 H 
ATOM     25  H24 MOL d          -3.610 -12.223 -11.887  0.00  0.00     0.088 H 
ENDBRANCH   4  15
BRANCH   4  26
ATOM     26  O4  MOL d          -1.079 -14.007 -12.264  0.00  0.00    -0.620 OA
ATOM     27  H1  MOL d          -0.602 -14.161 -11.421  0.00  0.00     0.421 HD
ENDBRANCH   4  26
ENDBRANCH   2   4
ENDBRANCH   1   2
BRANCH   1  28
ATOM     28  C15 MOL d          -2.146 -13.845  -9.138  0.00  0.00     0.075 C 
ATOM     29  C14 MOL d          -3.165 -12.802  -8.701  0.00  0.00    -0.085 C 
ATOM     30  C13 MOL d          -4.205 -13.465  -7.788  0.00  0.00     0.028 C 
ATOM     31  H10 MOL d          -2.660 -12.011  -8.145  0.00  0.00     0.061 H 
ATOM     32  H13 MOL d          -3.641 -12.355  -9.576  0.00  0.00     0.061 H 
ATOM     33  N2  MOL d          -3.535 -14.103  -6.649  0.00  0.00    -0.368 N 
ATOM     34  H11 MOL d          -4.899 -12.737  -7.374  0.00  0.00     0.024 H 
ATOM     35  H12 MOL d          -4.797 -14.201  -8.371  0.00  0.00     0.024 H 
ATOM     36  C17 MOL d          -2.600 -15.152  -7.048  0.00  0.00     0.028 C 
ATOM     37  C16 MOL d          -1.501 -14.566  -7.956  0.00  0.00    -0.085 C 
ATOM     38  H17 MOL d          -3.108 -15.985  -7.577  0.00  0.00     0.024 H 
ATOM     39  H18 MOL d          -2.143 -15.576  -6.152  0.00  0.00     0.024 H 
ATOM     40  H14 MOL d          -0.838 -15.357  -8.313  0.00  0.00     0.061 H 
ATOM     41  H16 MOL d          -0.914 -13.850  -7.377  0.00  0.00     0.061 H 
ATOM     42  H15 MOL d          -2.584 -14.565  -9.829  0.00  0.00     0.100 H 
BRANCH  33  43
ATOM     43  C18 MOL d          -4.443 -14.455  -5.532  0.00  0.00     0.204 C 
ATOM     44  H2  MOL d          -3.807 -14.494  -4.628  0.00  0.00     0.025 H 
ATOM     45  H3  MOL d          -4.863 -15.468  -5.672  0.00  0.00     0.025 H 
BRANCH  43  46
ATOM     46  N3  MOL d          -5.534 -13.519  -5.458  0.00  0.00    -0.426 N 
ATOM     47  H4  MOL d          -5.667 -13.082  -4.543  0.00  0.00     0.250 HD
BRANCH  46  48
ATOM     48  C19 MOL d          -6.863 -13.944  -5.917  0.00  0.00    -0.022 C 
ATOM     49  H5  MOL d          -7.017 -15.031  -5.807  0.00  0.00    -0.003 H 
ATOM     50  H6  MOL d          -7.037 -13.696  -6.966  0.00  0.00    -0.003 H 
BRANCH  48  51
ATOM     51  C20 MOL d          -7.967 -13.247  -5.055  0.00  0.00     0.764 C 
ATOM     52  O5  MOL d          -7.541 -12.348  -4.238  0.00  0.00    -0.764 OA
ATOM     53  O6  MOL d          -9.154 -13.670  -5.236  0.00  0.00    -0.764 OA
ENDBRANCH  48  51
ENDBRANCH  46  48
ENDBRANCH  43  46
ENDBRANCH  33  43
ENDBRANCH   1  28
TORSDOF 10
