REMARK  10 active torsions:
REMARK  status: ('A' for Active; 'I' for Inactive)
REMARK    1  A    between atoms: C1_1  and  C2_2 
REMARK    2  A    between atoms: C1_1  and  C7_8 
REMARK    3  A    between atoms: C1_1  and  C12_14 
REMARK    4  A    between atoms: C1_1  and  O4_22 
REMARK    5  A    between atoms: C12_14  and  O3_16 
REMARK    6  A    between atoms: O3_16  and  C15_20 
REMARK    7  A    between atoms: N2_17  and  C18_25 
REMARK    8  A    between atoms: C18_25  and  N3_28 
REMARK    9  A    between atoms: N3_28  and  C19_30 
REMARK   10  A    between atoms: C19_30  and  C20_31 
ROOT
ATOM      1  O3  MOL d           5.014 -13.127 -16.799  0.00  0.00    -0.296 OA
ENDROOT
BRANCH   1   2
ATOM      2  C12 MOL d           5.199 -12.444 -17.941  0.00  0.00     0.611 C 
ATOM      3  O2  MOL d           4.453 -11.542 -18.359  0.00  0.00    -0.541 OA
BRANCH   2   4
ATOM      4  C1  MOL d           6.471 -12.827 -18.709  0.00  0.00     0.116 C 
BRANCH   4   5
ATOM      5  C2  MOL d           7.502 -11.697 -18.771  0.00  0.00     0.093 A 
ATOM      6  C3  MOL d           8.869 -11.884 -18.514  0.00  0.00    -0.196 A 
ATOM      7  C4  MOL d           9.724 -10.782 -18.551  0.00  0.00     0.281 A 
ATOM      8  H20 MOL d           9.260 -12.867 -18.303  0.00  0.00     0.090 H 
ATOM      9  N1  MOL d           9.308  -9.524 -18.818  0.00  0.00    -0.612 NA
ATOM     10  H19 MOL d          10.782 -10.899 -18.366  0.00  0.00     0.055 H 
ATOM     11  C5  MOL d           7.990  -9.352 -19.064  0.00  0.00     0.281 A 
ATOM     12  C6  MOL d           7.065 -10.395 -19.052  0.00  0.00    -0.196 A 
ATOM     13  H22 MOL d           7.679  -8.338 -19.279  0.00  0.00     0.055 H 
ATOM     14  H21 MOL d           6.025 -10.221 -19.274  0.00  0.00     0.090 H 
ENDBRANCH   4   5
BRANCH   4  15
ATOM     15  C7  MOL d           6.137 -13.408 -20.155  0.00  0.00     0.146 A 
ATOM     16  C8  MOL d           4.679 -13.408 -20.551  0.00  0.00    -0.276 A 
ATOM     17  C9  MOL d           4.008 -14.522 -20.841  0.00  0.00     0.069 A 
ATOM     18  H23 MOL d           4.159 -12.465 -20.615  0.00  0.00     0.123 H 
ATOM     19  O1  MOL d           4.577 -15.803 -20.825  0.00  0.00    -0.303 OA
ATOM     20  H8  MOL d           2.971 -14.576 -21.125  0.00  0.00     0.140 H 
ATOM     21  C10 MOL d           5.957 -15.864 -20.586  0.00  0.00     0.069 A 
ATOM     22  C11 MOL d           6.710 -14.800 -20.307  0.00  0.00    -0.276 A 
ATOM     23  H9  MOL d           6.311 -16.877 -20.681  0.00  0.00     0.140 H 
ATOM     24  H7  MOL d           7.772 -14.927 -20.157  0.00  0.00     0.123 H 
ATOM     25  H24 MOL d           6.691 -12.712 -20.795  0.00  0.00     0.088 H 
ENDBRANCH   4  15
BRANCH   4  26
ATOM     26  O4  MOL d           7.049 -13.959 -17.997  0.00  0.00    -0.620 OA
ATOM     27  H1  MOL d           6.342 -14.361 -17.450  0.00  0.00     0.421 HD
ENDBRANCH   4  26
ENDBRANCH   2   4
ENDBRANCH   1   2
BRANCH   1  28
ATOM     28  C15 MOL d           3.982 -12.646 -15.800  0.00  0.00     0.075 C 
ATOM     29  C14 MOL d           4.611 -11.476 -15.057  0.00  0.00    -0.085 C 
ATOM     30  C13 MOL d           3.664 -11.022 -13.938  0.00  0.00     0.028 C 
ATOM     31  H10 MOL d           5.556 -11.793 -14.613  0.00  0.00     0.061 H 
ATOM     32  H13 MOL d           4.817 -10.658 -15.752  0.00  0.00     0.061 H 
ATOM     33  N2  MOL d           3.362 -12.150 -13.050  0.00  0.00    -0.368 N 
ATOM     34  H11 MOL d           4.114 -10.249 -13.319  0.00  0.00     0.024 H 
ATOM     35  H12 MOL d           2.738 -10.599 -14.382  0.00  0.00     0.024 H 
ATOM     36  C17 MOL d           2.699 -13.257 -13.735  0.00  0.00     0.028 C 
ATOM     37  C16 MOL d           3.596 -13.793 -14.869  0.00  0.00    -0.085 C 
ATOM     38  H17 MOL d           1.716 -12.959 -14.155  0.00  0.00     0.024 H 
ATOM     39  H18 MOL d           2.509 -14.054 -13.014  0.00  0.00     0.024 H 
ATOM     40  H14 MOL d           3.078 -14.575 -15.428  0.00  0.00     0.061 H 
ATOM     41  H16 MOL d           4.500 -14.216 -14.428  0.00  0.00     0.061 H 
ATOM     42  H15 MOL d           3.121 -12.327 -16.388  0.00  0.00     0.100 H 
BRANCH  33  43
ATOM     43  C18 MOL d           2.762 -11.757 -11.754  0.00  0.00     0.204 C 
ATOM     44  H2  MOL d           3.050 -10.701 -11.596  0.00  0.00     0.025 H 
ATOM     45  H3  MOL d           3.206 -12.337 -10.924  0.00  0.00     0.025 H 
BRANCH  43  46
ATOM     46  N3  MOL d           1.343 -11.996 -11.764  0.00  0.00    -0.426 N 
ATOM     47  H4  MOL d           0.766 -11.168 -11.934  0.00  0.00     0.250 HD
BRANCH  46  48
ATOM     48  C19 MOL d           0.736 -12.704 -10.630  0.00  0.00    -0.022 C 
ATOM     49  H5  MOL d           1.431 -12.802  -9.778  0.00  0.00    -0.003 H 
ATOM     50  H6  MOL d           0.407 -13.710 -10.898  0.00  0.00    -0.003 H 
BRANCH  48  51
ATOM     51  C20 MOL d          -0.502 -11.902 -10.108  0.00  0.00     0.764 C 
ATOM     52  O5  MOL d          -1.314 -12.567  -9.363  0.00  0.00    -0.764 OA
ATOM     53  O6  MOL d          -0.582 -10.695 -10.506  0.00  0.00    -0.764 OA
ENDBRANCH  48  51
ENDBRANCH  46  48
ENDBRANCH  43  46
ENDBRANCH  33  43
ENDBRANCH   1  28
TORSDOF 10
