REMARK  10 active torsions:
REMARK  status: ('A' for Active; 'I' for Inactive)
REMARK    1  A    between atoms: C1_1  and  C2_2 
REMARK    2  A    between atoms: C1_1  and  C7_8 
REMARK    3  A    between atoms: C1_1  and  C12_14 
REMARK    4  A    between atoms: C1_1  and  O4_22 
REMARK    5  A    between atoms: C12_14  and  O3_16 
REMARK    6  A    between atoms: O3_16  and  C15_20 
REMARK    7  A    between atoms: N2_17  and  C18_25 
REMARK    8  A    between atoms: C18_25  and  N3_28 
REMARK    9  A    between atoms: N3_28  and  C19_30 
REMARK   10  A    between atoms: C19_30  and  C20_31 
ROOT
ATOM      1  O3  MOL d           5.793  -8.855 -16.308  0.00  0.00    -0.296 OA
ENDROOT
BRANCH   1   2
ATOM      2  C12 MOL d           4.654  -8.723 -17.007  0.00  0.00     0.611 C 
ATOM      3  O2  MOL d           4.515  -9.025 -18.204  0.00  0.00    -0.541 OA
BRANCH   2   4
ATOM      4  C1  MOL d           3.466  -8.197 -16.189  0.00  0.00     0.116 C 
BRANCH   4   5
ATOM      5  C2  MOL d           2.170  -8.972 -16.440  0.00  0.00     0.093 A 
ATOM      6  C3  MOL d           1.768  -9.412 -17.710  0.00  0.00    -0.196 A 
ATOM      7  C4  MOL d           0.546 -10.072 -17.845  0.00  0.00     0.281 A 
ATOM      8  H20 MOL d           2.397  -9.256 -18.571  0.00  0.00     0.090 H 
ATOM      9  N1  MOL d          -0.290 -10.311 -16.810  0.00  0.00    -0.612 NA
ATOM     10  H19 MOL d           0.216 -10.430 -18.810  0.00  0.00     0.055 H 
ATOM     11  C5  MOL d           0.104  -9.884 -15.589  0.00  0.00     0.281 A 
ATOM     12  C6  MOL d           1.309  -9.220 -15.363  0.00  0.00    -0.196 A 
ATOM     13  H22 MOL d          -0.579 -10.089 -14.775  0.00  0.00     0.055 H 
ATOM     14  H21 MOL d           1.598  -8.913 -14.371  0.00  0.00     0.090 H 
ENDBRANCH   4   5
BRANCH   4  15
ATOM     15  C7  MOL d           3.266  -6.627 -16.379  0.00  0.00     0.146 A 
ATOM     16  C8  MOL d           3.857  -6.029 -17.634  0.00  0.00    -0.276 A 
ATOM     17  C9  MOL d           4.796  -5.084 -17.613  0.00  0.00     0.069 A 
ATOM     18  H23 MOL d           3.494  -6.369 -18.592  0.00  0.00     0.123 H 
ATOM     19  O1  MOL d           5.326  -4.536 -16.436  0.00  0.00    -0.303 OA
ATOM     20  H8  MOL d           5.250  -4.629 -18.476  0.00  0.00     0.140 H 
ATOM     21  C10 MOL d           4.736  -4.958 -15.237  0.00  0.00     0.069 A 
ATOM     22  C11 MOL d           3.777  -5.882 -15.166  0.00  0.00    -0.276 A 
ATOM     23  H9  MOL d           5.151  -4.417 -14.403  0.00  0.00     0.140 H 
ATOM     24  H7  MOL d           3.357  -6.136 -14.204  0.00  0.00     0.123 H 
ATOM     25  H24 MOL d           2.173  -6.557 -16.418  0.00  0.00     0.088 H 
ENDBRANCH   4  15
BRANCH   4  26
ATOM     26  O4  MOL d           3.843  -8.340 -14.789  0.00  0.00    -0.620 OA
ATOM     27  H1  MOL d           4.657  -8.884 -14.753  0.00  0.00     0.421 HD
ENDBRANCH   4  26
ENDBRANCH   2   4
ENDBRANCH   1   2
BRANCH   1  28
ATOM     28  C15 MOL d           6.728  -7.671 -16.172  0.00  0.00     0.075 C 
ATOM     29  C14 MOL d           8.034  -8.071 -16.845  0.00  0.00    -0.085 C 
ATOM     30  C13 MOL d           9.072  -6.961 -16.630  0.00  0.00     0.028 C 
ATOM     31  H10 MOL d           8.405  -8.994 -16.396  0.00  0.00     0.061 H 
ATOM     32  H13 MOL d           7.867  -8.252 -17.909  0.00  0.00     0.061 H 
ATOM     33  N2  MOL d           9.238  -6.702 -15.196  0.00  0.00    -0.368 N 
ATOM     34  H11 MOL d          10.050  -7.246 -17.011  0.00  0.00     0.024 H 
ATOM     35  H12 MOL d           8.754  -6.045 -17.171  0.00  0.00     0.024 H 
ATOM     36  C17 MOL d           8.007  -6.255 -14.548  0.00  0.00     0.028 C 
ATOM     37  C16 MOL d           6.909  -7.327 -14.696  0.00  0.00    -0.085 C 
ATOM     38  H17 MOL d           7.641  -5.294 -14.966  0.00  0.00     0.024 H 
ATOM     39  H18 MOL d           8.209  -6.085 -13.488  0.00  0.00     0.024 H 
ATOM     40  H14 MOL d           5.967  -6.970 -14.273  0.00  0.00     0.061 H 
ATOM     41  H16 MOL d           7.220  -8.222 -14.155  0.00  0.00     0.061 H 
ATOM     42  H15 MOL d           6.246  -6.847 -16.698  0.00  0.00     0.100 H 
BRANCH  33  43
ATOM     43  C18 MOL d          10.451  -5.923 -14.857  0.00  0.00     0.204 C 
ATOM     44  H2  MOL d          10.479  -5.873 -13.752  0.00  0.00     0.025 H 
ATOM     45  H3  MOL d          10.364  -4.883 -15.222  0.00  0.00     0.025 H 
BRANCH  43  46
ATOM     46  N3  MOL d          11.615  -6.518 -15.460  0.00  0.00    -0.426 N 
ATOM     47  H4  MOL d          11.450  -6.977 -16.359  0.00  0.00     0.250 HD
BRANCH  46  48
ATOM     48  C19 MOL d          12.431  -7.442 -14.661  0.00  0.00    -0.022 C 
ATOM     49  H5  MOL d          11.978  -7.658 -13.678  0.00  0.00    -0.003 H 
ATOM     50  H6  MOL d          13.435  -7.054 -14.478  0.00  0.00    -0.003 H 
BRANCH  48  51
ATOM     51  C20 MOL d          12.559  -8.812 -15.405  0.00  0.00     0.764 C 
ATOM     52  O5  MOL d          13.321  -9.678 -14.836  0.00  0.00    -0.764 OA
ATOM     53  O6  MOL d          11.922  -8.902 -16.504  0.00  0.00    -0.764 OA
ENDBRANCH  48  51
ENDBRANCH  46  48
ENDBRANCH  43  46
ENDBRANCH  33  43
ENDBRANCH   1  28
TORSDOF 10
