REMARK  10 active torsions:
REMARK  status: ('A' for Active; 'I' for Inactive)
REMARK    1  A    between atoms: C1_1  and  C2_2 
REMARK    2  A    between atoms: C1_1  and  C7_8 
REMARK    3  A    between atoms: C1_1  and  C12_14 
REMARK    4  A    between atoms: C1_1  and  O4_22 
REMARK    5  A    between atoms: C12_14  and  O3_16 
REMARK    6  A    between atoms: O3_16  and  C15_20 
REMARK    7  A    between atoms: N2_17  and  C18_25 
REMARK    8  A    between atoms: C18_25  and  N3_28 
REMARK    9  A    between atoms: N3_28  and  C19_30 
REMARK   10  A    between atoms: C19_30  and  C20_31 
ROOT
ATOM      1  O3  MOL d           1.392 -10.473 -15.403  0.00  0.00    -0.296 OA
ENDROOT
BRANCH   1   2
ATOM      2  C12 MOL d           0.898  -9.231 -15.539  0.00  0.00     0.611 C 
ATOM      3  O2  MOL d           0.387  -8.566 -14.622  0.00  0.00    -0.541 OA
BRANCH   2   4
ATOM      4  C1  MOL d           1.051  -8.639 -16.946  0.00  0.00     0.116 C 
BRANCH   4   5
ATOM      5  C2  MOL d           2.160  -7.587 -17.040  0.00  0.00     0.093 A 
ATOM      6  C3  MOL d           2.924  -7.171 -15.939  0.00  0.00    -0.196 A 
ATOM      7  C4  MOL d           3.883  -6.173 -16.115  0.00  0.00     0.281 A 
ATOM      8  H20 MOL d           2.786  -7.624 -14.970  0.00  0.00     0.090 H 
ATOM      9  N1  MOL d           4.119  -5.568 -17.301  0.00  0.00    -0.612 NA
ATOM     10  H19 MOL d           4.492  -5.840 -15.287  0.00  0.00     0.055 H 
ATOM     11  C5  MOL d           3.379  -5.973 -18.357  0.00  0.00     0.281 A 
ATOM     12  C6  MOL d           2.403  -6.966 -18.272  0.00  0.00    -0.196 A 
ATOM     13  H22 MOL d           3.587  -5.478 -19.296  0.00  0.00     0.055 H 
ATOM     14  H21 MOL d           1.847  -7.277 -19.142  0.00  0.00     0.090 H 
ENDBRANCH   4   5
BRANCH   4  15
ATOM     15  C7  MOL d          -0.334  -8.092 -17.513  0.00  0.00     0.146 A 
ATOM     16  C8  MOL d          -1.373  -7.717 -16.481  0.00  0.00    -0.276 A 
ATOM     17  C9  MOL d          -2.566  -8.305 -16.407  0.00  0.00     0.069 A 
ATOM     18  H23 MOL d          -1.146  -6.928 -15.781  0.00  0.00     0.123 H 
ATOM     19  O1  MOL d          -2.992  -9.319 -17.277  0.00  0.00    -0.303 OA
ATOM     20  H8  MOL d          -3.337  -8.077 -15.692  0.00  0.00     0.140 H 
ATOM     21  C10 MOL d          -2.126  -9.631 -18.334  0.00  0.00     0.069 A 
ATOM     22  C11 MOL d          -0.924  -9.078 -18.498  0.00  0.00    -0.276 A 
ATOM     23  H9  MOL d          -2.580 -10.354 -18.992  0.00  0.00     0.140 H 
ATOM     24  H7  MOL d          -0.325  -9.356 -19.352  0.00  0.00     0.123 H 
ATOM     25  H24 MOL d          -0.005  -7.194 -18.046  0.00  0.00     0.088 H 
ENDBRANCH   4  15
BRANCH   4  26
ATOM     26  O4  MOL d           1.379  -9.755 -17.823  0.00  0.00    -0.620 OA
ATOM     27  H1  MOL d           1.776 -10.462 -17.271  0.00  0.00     0.421 HD
ENDBRANCH   4  26
ENDBRANCH   2   4
ENDBRANCH   1   2
BRANCH   1  28
ATOM     28  C15 MOL d           0.985 -11.313 -14.210  0.00  0.00     0.075 C 
ATOM     29  C14 MOL d           1.911 -10.921 -13.067  0.00  0.00    -0.085 C 
ATOM     30  C13 MOL d           1.636 -11.830 -11.862  0.00  0.00     0.028 C 
ATOM     31  H10 MOL d           2.948 -11.053 -13.379  0.00  0.00     0.061 H 
ATOM     32  H13 MOL d           1.762  -9.871 -12.808  0.00  0.00     0.061 H 
ATOM     33  N2  MOL d           1.790 -13.236 -12.250  0.00  0.00    -0.368 N 
ATOM     34  H11 MOL d           2.340 -11.650 -11.053  0.00  0.00     0.024 H 
ATOM     35  H12 MOL d           0.616 -11.630 -11.470  0.00  0.00     0.024 H 
ATOM     36  C17 MOL d           0.864 -13.646 -13.302  0.00  0.00     0.028 C 
ATOM     37  C16 MOL d           1.087 -12.794 -14.567  0.00  0.00    -0.085 C 
ATOM     38  H17 MOL d          -0.196 -13.558 -12.983  0.00  0.00     0.024 H 
ATOM     39  H18 MOL d           1.040 -14.698 -13.536  0.00  0.00     0.024 H 
ATOM     40  H14 MOL d           0.353 -13.049 -15.335  0.00  0.00     0.061 H 
ATOM     41  H16 MOL d           2.086 -13.000 -14.956  0.00  0.00     0.061 H 
ATOM     42  H15 MOL d          -0.049 -11.045 -13.994  0.00  0.00     0.100 H 
BRANCH  33  43
ATOM     43  C18 MOL d           1.903 -14.171 -11.106  0.00  0.00     0.204 C 
ATOM     44  H2  MOL d           1.841 -13.544 -10.197  0.00  0.00     0.025 H 
ATOM     45  H3  MOL d           2.897 -14.657 -11.093  0.00  0.00     0.025 H 
BRANCH  43  46
ATOM     46  N3  MOL d           0.899 -15.198 -11.196  0.00  0.00    -0.426 N 
ATOM     47  H4  MOL d           0.183 -15.167 -10.467  0.00  0.00     0.250 HD
BRANCH  46  48
ATOM     48  C19 MOL d           1.327 -16.599 -11.305  0.00  0.00    -0.022 C 
ATOM     49  H5  MOL d           2.407 -16.692 -11.512  0.00  0.00    -0.003 H 
ATOM     50  H6  MOL d           0.798 -17.133 -12.097  0.00  0.00    -0.003 H 
BRANCH  48  51
ATOM     51  C20 MOL d           1.065 -17.338  -9.951  0.00  0.00     0.764 C 
ATOM     52  O5  MOL d           0.564 -16.610  -9.015  0.00  0.00    -0.764 OA
ATOM     53  O6  MOL d           1.407 -18.564  -9.919  0.00  0.00    -0.764 OA
ENDBRANCH  48  51
ENDBRANCH  46  48
ENDBRANCH  43  46
ENDBRANCH  33  43
ENDBRANCH   1  28
TORSDOF 10
