REMARK  10 active torsions:
REMARK  status: ('A' for Active; 'I' for Inactive)
REMARK    1  A    between atoms: C1_1  and  C2_2 
REMARK    2  A    between atoms: C1_1  and  C7_8 
REMARK    3  A    between atoms: C1_1  and  C12_14 
REMARK    4  A    between atoms: C1_1  and  O4_22 
REMARK    5  A    between atoms: C12_14  and  O3_16 
REMARK    6  A    between atoms: O3_16  and  C15_20 
REMARK    7  A    between atoms: N2_17  and  C18_25 
REMARK    8  A    between atoms: C18_25  and  N3_28 
REMARK    9  A    between atoms: N3_28  and  C19_30 
REMARK   10  A    between atoms: C19_30  and  C20_31 
ROOT
ATOM      1  O3  MOL d           4.540 -13.994 -16.288  0.00  0.00    -0.296 OA
ENDROOT
BRANCH   1   2
ATOM      2  C12 MOL d           5.301 -13.208 -17.067  0.00  0.00     0.611 C 
ATOM      3  O2  MOL d           5.458 -11.986 -16.905  0.00  0.00    -0.541 OA
BRANCH   2   4
ATOM      4  C1  MOL d           6.036 -13.951 -18.190  0.00  0.00     0.116 C 
BRANCH   4   5
ATOM      5  C2  MOL d           6.446 -13.039 -19.349  0.00  0.00     0.093 A 
ATOM      6  C3  MOL d           5.560 -12.159 -19.989  0.00  0.00    -0.196 A 
ATOM      7  C4  MOL d           6.016 -11.400 -21.067  0.00  0.00     0.281 A 
ATOM      8  H20 MOL d           4.543 -12.056 -19.646  0.00  0.00     0.090 H 
ATOM      9  N1  MOL d           7.279 -11.467 -21.545  0.00  0.00    -0.612 NA
ATOM     10  H19 MOL d           5.357 -10.707 -21.572  0.00  0.00     0.055 H 
ATOM     11  C5  MOL d           8.126 -12.318 -20.925  0.00  0.00     0.281 A 
ATOM     12  C6  MOL d           7.757 -13.110 -19.838  0.00  0.00    -0.196 A 
ATOM     13  H22 MOL d           9.132 -12.354 -21.321  0.00  0.00     0.055 H 
ATOM     14  H21 MOL d           8.468 -13.762 -19.357  0.00  0.00     0.090 H 
ENDBRANCH   4   5
BRANCH   4  15
ATOM     15  C7  MOL d           5.217 -15.221 -18.695  0.00  0.00     0.146 A 
ATOM     16  C8  MOL d           3.903 -15.485 -17.997  0.00  0.00    -0.276 A 
ATOM     17  C9  MOL d           3.654 -16.608 -17.324  0.00  0.00     0.069 A 
ATOM     18  H23 MOL d           3.125 -14.739 -18.057  0.00  0.00     0.123 H 
ATOM     19  O1  MOL d           4.568 -17.663 -17.201  0.00  0.00    -0.303 OA
ATOM     20  H8  MOL d           2.738 -16.842 -16.809  0.00  0.00     0.140 H 
ATOM     21  C10 MOL d           5.760 -17.537 -17.926  0.00  0.00     0.069 A 
ATOM     22  C11 MOL d           6.084 -16.460 -18.642  0.00  0.00    -0.276 A 
ATOM     23  H9  MOL d           6.352 -18.433 -17.835  0.00  0.00     0.140 H 
ATOM     24  H7  MOL d           7.013 -16.449 -19.191  0.00  0.00     0.123 H 
ATOM     25  H24 MOL d           5.030 -14.950 -19.740  0.00  0.00     0.088 H 
ENDBRANCH   4  15
BRANCH   4  26
ATOM     26  O4  MOL d           7.234 -14.518 -17.585  0.00  0.00    -0.620 OA
ATOM     27  H1  MOL d           7.200 -15.491 -17.709  0.00  0.00     0.421 HD
ENDBRANCH   4  26
ENDBRANCH   2   4
ENDBRANCH   1   2
BRANCH   1  28
ATOM     28  C15 MOL d           3.714 -13.373 -15.180  0.00  0.00     0.075 C 
ATOM     29  C14 MOL d           4.697 -12.908 -14.115  0.00  0.00    -0.085 C 
ATOM     30  C13 MOL d           3.916 -12.384 -12.903  0.00  0.00     0.028 C 
ATOM     31  H10 MOL d           5.316 -13.749 -13.800  0.00  0.00     0.061 H 
ATOM     32  H13 MOL d           5.352 -12.135 -14.523  0.00  0.00     0.061 H 
ATOM     33  N2  MOL d           3.005 -13.422 -12.408  0.00  0.00    -0.368 N 
ATOM     34  H11 MOL d           4.577 -12.128 -12.078  0.00  0.00     0.024 H 
ATOM     35  H12 MOL d           3.362 -11.464 -13.186  0.00  0.00     0.024 H 
ATOM     36  C17 MOL d           2.013 -13.835 -13.397  0.00  0.00     0.028 C 
ATOM     37  C16 MOL d           2.715 -14.399 -14.649  0.00  0.00    -0.085 C 
ATOM     38  H17 MOL d           1.348 -12.998 -13.696  0.00  0.00     0.024 H 
ATOM     39  H18 MOL d           1.377 -14.606 -12.959  0.00  0.00     0.024 H 
ATOM     40  H14 MOL d           1.982 -14.646 -15.419  0.00  0.00     0.061 H 
ATOM     41  H16 MOL d           3.250 -15.308 -14.369  0.00  0.00     0.061 H 
ATOM     42  H15 MOL d           3.190 -12.532 -15.633  0.00  0.00     0.100 H 
BRANCH  33  43
ATOM     43  C18 MOL d           2.475 -13.165 -11.049  0.00  0.00     0.204 C 
ATOM     44  H2  MOL d           2.921 -12.205 -10.728  0.00  0.00     0.025 H 
ATOM     45  H3  MOL d           2.827 -13.935 -10.338  0.00  0.00     0.025 H 
BRANCH  43  46
ATOM     46  N3  MOL d           1.035 -13.183 -11.060  0.00  0.00    -0.426 N 
ATOM     47  H4  MOL d           0.592 -12.264 -11.125  0.00  0.00     0.250 HD
BRANCH  46  48
ATOM     48  C19 MOL d           0.329 -13.915 -10.000  0.00  0.00    -0.022 C 
ATOM     49  H5  MOL d           1.006 -14.233  -9.189  0.00  0.00    -0.003 H 
ATOM     50  H6  MOL d          -0.169 -14.810 -10.378  0.00  0.00    -0.003 H 
BRANCH  48  51
ATOM     51  C20 MOL d          -0.749 -12.988  -9.346  0.00  0.00     0.764 C 
ATOM     52  O5  MOL d          -1.505 -13.555  -8.473  0.00  0.00    -0.764 OA
ATOM     53  O6  MOL d          -0.775 -11.789  -9.775  0.00  0.00    -0.764 OA
ENDBRANCH  48  51
ENDBRANCH  46  48
ENDBRANCH  43  46
ENDBRANCH  33  43
ENDBRANCH   1  28
TORSDOF 10
