REMARK  10 active torsions:
REMARK  status: ('A' for Active; 'I' for Inactive)
REMARK    1  A    between atoms: C1_1  and  C2_2 
REMARK    2  A    between atoms: C1_1  and  C7_8 
REMARK    3  A    between atoms: C1_1  and  C12_14 
REMARK    4  A    between atoms: C1_1  and  O4_22 
REMARK    5  A    between atoms: C12_14  and  O3_16 
REMARK    6  A    between atoms: O3_16  and  C15_20 
REMARK    7  A    between atoms: N2_17  and  C18_25 
REMARK    8  A    between atoms: C18_25  and  N3_28 
REMARK    9  A    between atoms: N3_28  and  C19_30 
REMARK   10  A    between atoms: C19_30  and  C20_31 
ROOT
ATOM      1  O3  MOL d           3.862 -13.145 -16.444  0.00  0.00    -0.296 OA
ENDROOT
BRANCH   1   2
ATOM      2  C12 MOL d           4.579 -12.368 -17.273  0.00  0.00     0.611 C 
ATOM      3  O2  MOL d           5.804 -12.177 -17.186  0.00  0.00    -0.541 OA
BRANCH   2   4
ATOM      4  C1  MOL d           3.766 -11.740 -18.413  0.00  0.00     0.116 C 
BRANCH   4   5
ATOM      5  C2  MOL d           4.452 -11.854 -19.777  0.00  0.00     0.093 A 
ATOM      6  C3  MOL d           5.808 -11.556 -19.986  0.00  0.00    -0.196 A 
ATOM      7  C4  MOL d           6.332 -11.647 -21.276  0.00  0.00     0.281 A 
ATOM      8  H20 MOL d           6.443 -11.274 -19.162  0.00  0.00     0.090 H 
ATOM      9  N1  MOL d           5.600 -12.004 -22.355  0.00  0.00    -0.612 NA
ATOM     10  H19 MOL d           7.375 -11.433 -21.464  0.00  0.00     0.055 H 
ATOM     11  C5  MOL d           4.295 -12.288 -22.145  0.00  0.00     0.281 A 
ATOM     12  C6  MOL d           3.689 -12.228 -20.891  0.00  0.00    -0.196 A 
ATOM     13  H22 MOL d           3.728 -12.575 -23.022  0.00  0.00     0.055 H 
ATOM     14  H21 MOL d           2.650 -12.482 -20.761  0.00  0.00     0.090 H 
ENDBRANCH   4   5
BRANCH   4  15
ATOM     15  C7  MOL d           3.347 -10.238 -18.083  0.00  0.00     0.146 A 
ATOM     16  C8  MOL d           3.964  -9.632 -16.845  0.00  0.00    -0.276 A 
ATOM     17  C9  MOL d           3.241  -9.202 -15.811  0.00  0.00     0.069 A 
ATOM     18  H23 MOL d           5.038  -9.529 -16.797  0.00  0.00     0.123 H 
ATOM     19  O1  MOL d           1.841  -9.250 -15.765  0.00  0.00    -0.303 OA
ATOM     20  H8  MOL d           3.631  -8.766 -14.908  0.00  0.00     0.140 H 
ATOM     21  C10 MOL d           1.198  -9.687 -16.931  0.00  0.00     0.069 A 
ATOM     22  C11 MOL d           1.840 -10.116 -18.017  0.00  0.00    -0.276 A 
ATOM     23  H9  MOL d           0.128  -9.605 -16.824  0.00  0.00     0.140 H 
ATOM     24  H7  MOL d           1.272 -10.416 -18.885  0.00  0.00     0.123 H 
ATOM     25  H24 MOL d           3.718  -9.715 -18.972  0.00  0.00     0.088 H 
ENDBRANCH   4  15
BRANCH   4  26
ATOM     26  O4  MOL d           2.502 -12.461 -18.455  0.00  0.00    -0.620 OA
ATOM     27  H1  MOL d           2.430 -12.988 -17.631  0.00  0.00     0.421 HD
ENDBRANCH   4  26
ENDBRANCH   2   4
ENDBRANCH   1   2
BRANCH   1  28
ATOM     28  C15 MOL d           3.729 -12.759 -14.986  0.00  0.00     0.075 C 
ATOM     29  C14 MOL d           4.716 -13.624 -14.216  0.00  0.00    -0.085 C 
ATOM     30  C13 MOL d           4.541 -13.374 -12.712  0.00  0.00     0.028 C 
ATOM     31  H10 MOL d           4.516 -14.677 -14.424  0.00  0.00     0.061 H 
ATOM     32  H13 MOL d           5.737 -13.401 -14.534  0.00  0.00     0.061 H 
ATOM     33  N2  MOL d           3.150 -13.630 -12.322  0.00  0.00    -0.368 N 
ATOM     34  H11 MOL d           5.160 -14.041 -12.118  0.00  0.00     0.024 H 
ATOM     35  H12 MOL d           4.842 -12.333 -12.470  0.00  0.00     0.024 H 
ATOM     36  C17 MOL d           2.194 -12.762 -13.004  0.00  0.00     0.028 C 
ATOM     37  C16 MOL d           2.287 -12.966 -14.530  0.00  0.00    -0.085 C 
ATOM     38  H17 MOL d           2.359 -11.690 -12.767  0.00  0.00     0.024 H 
ATOM     39  H18 MOL d           1.187 -13.012 -12.665  0.00  0.00     0.024 H 
ATOM     40  H14 MOL d           1.623 -12.272 -15.049  0.00  0.00     0.061 H 
ATOM     41  H16 MOL d           1.980 -13.987 -14.765  0.00  0.00     0.061 H 
ATOM     42  H15 MOL d           3.997 -11.704 -14.930  0.00  0.00     0.100 H 
BRANCH  33  43
ATOM     43  C18 MOL d           2.947 -13.770 -10.861  0.00  0.00     0.204 C 
ATOM     44  H2  MOL d           3.030 -12.748 -10.446  0.00  0.00     0.025 H 
ATOM     45  H3  MOL d           3.760 -14.366 -10.407  0.00  0.00     0.025 H 
BRANCH  43  46
ATOM     46  N3  MOL d           1.696 -14.428 -10.588  0.00  0.00    -0.426 N 
ATOM     47  H4  MOL d           1.296 -14.232  -9.668  0.00  0.00     0.250 HD
BRANCH  46  48
ATOM     48  C19 MOL d           1.603 -15.881 -10.785  0.00  0.00    -0.022 C 
ATOM     49  H5  MOL d           2.583 -16.336 -11.009  0.00  0.00    -0.003 H 
ATOM     50  H6  MOL d           0.928 -16.145 -11.601  0.00  0.00    -0.003 H 
BRANCH  48  51
ATOM     51  C20 MOL d           1.084 -16.559  -9.474  0.00  0.00     0.764 C 
ATOM     52  O5  MOL d           0.553 -15.761  -8.615  0.00  0.00    -0.764 OA
ATOM     53  O6  MOL d           1.274 -17.815  -9.393  0.00  0.00    -0.764 OA
ENDBRANCH  48  51
ENDBRANCH  46  48
ENDBRANCH  43  46
ENDBRANCH  33  43
ENDBRANCH   1  28
TORSDOF 10
