MODEL 1
REMARK VINA RESULT:      -6.7      0.000      0.000
REMARK  Name = *****
REMARK                            x       y       z     vdW  Elec       q    Type
REMARK                         _______ _______ _______ _____ _____    ______ ____
ROOT
ATOM      1  C   LIG    1       25.457 -19.056   3.422  0.00  0.00    +0.022 C 
ATOM      2  C   LIG    1       25.989 -19.711   4.669  0.00  0.00    -0.034 A 
ATOM      3  C   LIG    1       25.055 -20.607   5.242  0.00  0.00    -0.043 A 
ATOM      4  C   LIG    1       25.168 -21.370   6.393  0.00  0.00    +0.007 A 
ATOM      5  C   LIG    1       26.362 -21.269   7.059  0.00  0.00    +0.046 A 
ATOM      6  C   LIG    1       27.314 -20.456   6.478  0.00  0.00    +0.124 A 
ATOM      7  O   LIG    1       28.573 -20.364   7.062  0.00  0.00    -0.491 OA
ATOM      8  C   LIG    1       29.276 -19.339   6.315  0.00  0.00    +0.234 C 
ATOM      9  C   LIG    1       28.525 -19.057   5.009  0.00  0.00    +0.080 C 
ATOM     10  C   LIG    1       23.816 -20.676   4.394  0.00  0.00    +0.036 C 
ATOM     11  C   LIG    1       27.236 -19.697   5.307  0.00  0.00    +0.001 A 
ATOM     12  C   LIG    1       24.262 -19.998   3.076  0.00  0.00    +0.013 C 
ENDROOT
BRANCH   1  13
ATOM     13  C   LIG    1       24.950 -17.624   3.656  0.00  0.00    +0.027 C 
BRANCH  13  14
ATOM     14  C   LIG    1       26.021 -16.557   3.439  0.00  0.00    +0.104 C 
BRANCH  14  16
ATOM     15  C   LIG    1       25.891 -14.185   2.727  0.00  0.00    +0.213 C 
ATOM     16  N   LIG    1       25.486 -15.216   3.546  0.00  0.00    -0.315 N 
ATOM     17  H   LIG    1       24.765 -15.043   4.235  0.00  0.00    +0.149 HD
ATOM     18  O   LIG    1       26.727 -14.313   1.839  0.00  0.00    -0.276 OA
BRANCH  15  20
ATOM     19  C   LIG    1       24.090 -13.045   4.085  0.00  0.00    +0.013 C 
ATOM     20  C   LIG    1       25.189 -12.878   3.052  0.00  0.00    +0.092 C 
ENDBRANCH  15  20
ENDBRANCH  14  16
ENDBRANCH  13  14
ENDBRANCH   1  13
TORSDOF 4
ENDMDL
