MODEL 1
REMARK VINA RESULT:      94.9      0.000      0.000
REMARK  Name = *****
REMARK                            x       y       z     vdW  Elec       q    Type
REMARK                         _______ _______ _______ _____ _____    ______ ____
ROOT
ATOM      1  C   LIG    1       21.661 -11.929   7.017  0.00  0.00    +0.014 C 
ATOM      2  C   LIG    1       21.588 -12.462   5.563  0.00  0.00    -0.005 C 
ATOM      3  C   LIG    1       22.729 -11.840   4.648  0.00  0.00    +0.127 C 
ATOM      4  C   LIG    1       22.563 -12.414   3.233  0.00  0.00    +0.033 C 
ATOM      5  C   LIG    1       22.706 -13.939   3.194  0.00  0.00    +0.010 C 
ATOM      6  C   LIG    1       21.699 -14.696   4.113  0.00  0.00    -0.018 C 
ATOM      7  C   LIG    1       20.303 -14.625   3.454  0.00  0.00    +0.012 C 
ATOM      8  C   LIG    1       22.179 -16.177   4.287  0.00  0.00    +0.073 C 
ATOM      9  C   LIG    1       22.498 -16.947   3.026  0.00  0.00    +0.160 C 
ATOM     10  C   LIG    1       23.518 -17.993   3.243  0.00  0.00    +0.046 C 
ATOM     11  C   LIG    1       23.487 -18.677   4.406  0.00  0.00    -0.056 C 
ATOM     12  C   LIG    1       22.184 -18.617   5.283  0.00  0.00    -0.004 C 
ATOM     13  C   LIG    1       21.272 -19.706   4.609  0.00  0.00    +0.016 C 
ATOM     14  C   LIG    1       22.432 -19.123   6.729  0.00  0.00    +0.012 C 
ATOM     15  C   LIG    1       23.286 -20.391   6.802  0.00  0.00    +0.008 C 
ATOM     16  C   LIG    1       24.681 -20.160   6.191  0.00  0.00    -0.025 C 
ATOM     17  C   LIG    1       25.416 -19.093   7.051  0.00  0.00    +0.012 C 
ATOM     18  C   LIG    1       25.456 -21.498   6.208  0.00  0.00    +0.008 C 
ATOM     19  C   LIG    1       26.873 -21.361   5.663  0.00  0.00    +0.018 C 
ATOM     20  C   LIG    1       27.030 -20.588   4.330  0.00  0.00    +0.065 C 
ATOM     21  C   LIG    1       26.820 -21.569   3.154  0.00  0.00    +0.023 C 
ATOM     22  C   LIG    1       25.995 -19.423   4.167  0.00  0.00    +0.026 C 
ATOM     23  C   LIG    1       24.561 -19.744   4.697  0.00  0.00    +0.022 C 
ATOM     24  O   LIG    1       22.039 -16.735   1.913  0.00  0.00    -0.292 OA
ATOM     25  C   LIG    1       21.428 -17.118   5.283  0.00  0.00    -0.013 C 
ATOM     26  C   LIG    1       19.922 -17.300   4.962  0.00  0.00    +0.013 C 
ATOM     27  C   LIG    1       21.479 -16.347   6.647  0.00  0.00    +0.008 C 
ATOM     28  C   LIG    1       20.974 -14.872   6.585  0.00  0.00    +0.005 C 
ATOM     29  C   LIG    1       21.765 -14.039   5.545  0.00  0.00    +0.004 C 
ATOM     30  C   LIG    1       20.225 -11.942   5.044  0.00  0.00    +0.014 C 
ENDROOT
BRANCH  20  31
ATOM     31  C   LIG    1       28.453 -20.018   4.149  0.00  0.00    +0.311 C 
ATOM     32  O   LIG    1       29.463 -20.660   4.471  0.00  0.00    -0.250 OA
BRANCH  31  33
ATOM     33  O   LIG    1       28.600 -18.785   3.642  0.00  0.00    -0.480 OA
ATOM     34  H   LIG    1       28.552 -18.009   4.235  0.00  0.00    +0.295 HD
ENDBRANCH  31  33
ENDBRANCH  20  31
BRANCH   3  35
ATOM     35  O   LIG    1       24.027 -12.139   5.173  0.00  0.00    -0.345 OA
BRANCH  35  36
ATOM     36  C   LIG    1       25.154 -12.107   4.277  0.00  0.00    +0.283 C 
ATOM     37  C   LIG    1       25.058 -13.011   2.977  0.00  0.00    +0.208 C 
ATOM     38  C   LIG    1       26.428 -12.825   2.296  0.00  0.00    +0.180 C 
ATOM     39  C   LIG    1       27.511 -13.406   3.214  0.00  0.00    +0.185 C 
ATOM     40  C   LIG    1       27.563 -12.705   4.571  0.00  0.00    +0.260 C 
ATOM     41  O   LIG    1       26.442 -11.875   4.889  0.00  0.00    -0.332 OA
BRANCH  38  42
ATOM     42  O   LIG    1       26.672 -11.450   2.001  0.00  0.00    -0.386 OA
ATOM     43  H   LIG    1       26.207 -11.243   1.168  0.00  0.00    +0.210 HD
ENDBRANCH  38  42
BRANCH  39  44
ATOM     44  O   LIG    1       27.280 -14.810   3.428  0.00  0.00    -0.386 OA
ATOM     45  H   LIG    1       27.305 -15.258   2.556  0.00  0.00    +0.210 HD
ENDBRANCH  39  44
BRANCH  40  46
ATOM     46  C   LIG    1       28.902 -11.937   4.641  0.00  0.00    +0.337 C 
ATOM     47  O   LIG    1       29.450 -11.452   3.692  0.00  0.00    -0.248 OA
BRANCH  46  48
ATOM     48  O   LIG    1       29.370 -11.783   5.904  0.00  0.00    -0.479 OA
ATOM     49  H   LIG    1       28.745 -12.151   6.560  0.00  0.00    +0.295 HD
ENDBRANCH  46  48
ENDBRANCH  40  46
BRANCH  37  50
ATOM     50  O   LIG    1       24.714 -14.435   3.135  0.00  0.00    -0.338 OA
BRANCH  50  51
ATOM     51  C   LIG    1       24.542 -14.843   4.536  0.00  0.00    +0.283 C 
ATOM     52  C   LIG    1       24.524 -16.379   4.792  0.00  0.00    +0.201 C 
ATOM     53  C   LIG    1       25.916 -17.001   4.686  0.00  0.00    +0.179 C 
ATOM     54  C   LIG    1       27.032 -15.955   4.870  0.00  0.00    +0.185 C 
ATOM     55  C   LIG    1       26.559 -14.930   5.905  0.00  0.00    +0.260 C 
ATOM     56  O   LIG    1       25.454 -14.138   5.391  0.00  0.00    -0.332 OA
BRANCH  52  57
ATOM     57  O   LIG    1       24.037 -16.603   6.137  0.00  0.00    -0.384 OA
ATOM     58  H   LIG    1       24.803 -16.551   6.739  0.00  0.00    +0.210 HD
ENDBRANCH  52  57
BRANCH  53  59
ATOM     59  O   LIG    1       26.018 -17.658   3.418  0.00  0.00    -0.386 OA
ATOM     60  H   LIG    1       25.771 -18.592   3.543  0.00  0.00    +0.210 HD
ENDBRANCH  53  59
BRANCH  54  61
ATOM     61  O   LIG    1       28.219 -16.670   5.217  0.00  0.00    -0.386 OA
ATOM     62  H   LIG    1       28.197 -17.538   4.765  0.00  0.00    +0.210 HD
ENDBRANCH  54  61
BRANCH  55  63
ATOM     63  C   LIG    1       27.649 -13.905   6.225  0.00  0.00    +0.337 C 
ATOM     64  O   LIG    1       27.452 -12.783   6.645  0.00  0.00    -0.248 OA
BRANCH  63  65
ATOM     65  O   LIG    1       28.900 -14.386   5.970  0.00  0.00    -0.479 OA
ATOM     66  H   LIG    1       29.542 -13.728   6.302  0.00  0.00    +0.295 HD
ENDBRANCH  63  65
ENDBRANCH  55  63
ENDBRANCH  50  51
ENDBRANCH  37  50
ENDBRANCH  35  36
ENDBRANCH   3  35
TORSDOF 15
ENDMDL
