MODEL 1
REMARK VINA RESULT:      -7.9      0.000      0.000
REMARK  Name = *****
REMARK                            x       y       z     vdW  Elec       q    Type
REMARK                         _______ _______ _______ _____ _____    ______ ____
ROOT
ATOM      1  C   LIG    1       27.825 -20.106   6.946  0.00  0.00    -0.020 C 
ATOM      2  C   LIG    1       26.444 -20.459   6.792  0.00  0.00    +0.006 C 
ATOM      3  C   LIG    1       26.122 -20.306   5.442  0.00  0.00    +0.047 C 
ATOM      4  C   LIG    1       24.839 -20.552   4.935  0.00  0.00    +0.030 C 
ATOM      5  C   LIG    1       23.849 -20.955   5.835  0.00  0.00    +0.047 C 
ATOM      6  C   LIG    1       24.149 -21.111   7.183  0.00  0.00    +0.118 C 
ATOM      7  N   LIG    1       27.265 -19.898   4.795  0.00  0.00    -0.360 NA
ATOM      8  H   LIG    1       27.330 -19.710   3.805  0.00  0.00    +0.165 HD
ATOM      9  C   LIG    1       25.431 -20.879   7.679  0.00  0.00    +0.055 C 
ATOM     10  C   LIG    1       28.292 -19.771   5.689  0.00  0.00    +0.087 C 
ENDROOT
BRANCH   6  11
ATOM     11  O   LIG    1       23.191 -21.492   8.079  0.00  0.00    -0.507 OA
ATOM     12  H   LIG    1       22.483 -20.827   8.078  0.00  0.00    +0.292 HD
ENDBRANCH   6  11
BRANCH   1  13
ATOM     13  C   LIG    1       28.632 -20.088   8.212  0.00  0.00    +0.067 C 
BRANCH  13  14
ATOM     14  CA  LIG    1       30.063 -20.632   8.066  0.00  0.00    +0.165 C 
BRANCH  14  15
ATOM     15  N   LIG    1       30.411 -21.709   9.050  0.00  0.00    -0.318 NA
ATOM     16  H1  LIG    1       31.116 -21.325   9.693  0.00  0.00    +0.119 HD
ATOM     17  H2  LIG    1       29.593 -21.844   9.653  0.00  0.00    +0.119 HD
ENDBRANCH  14  15
BRANCH  14  18
ATOM     18  C   LIG    1       31.106 -19.510   8.171  0.00  0.00    +0.322 C 
ATOM     19  O   LIG    1       31.186 -18.542   7.430  0.00  0.00    -0.249 OA
BRANCH  18  20
ATOM     20  OXT LIG    1       31.981 -19.741   9.186  0.00  0.00    -0.479 OA
ATOM     21  HXT LIG    1       32.125 -18.860   9.613  0.00  0.00    +0.295 HD
ENDBRANCH  18  20
ENDBRANCH  14  18
ENDBRANCH  13  14
ENDBRANCH   1  13
TORSDOF 6
ENDMDL
MODEL 2
REMARK VINA RESULT:      -7.9      2.045      2.663
REMARK  Name = *****
REMARK                            x       y       z     vdW  Elec       q    Type
REMARK                         _______ _______ _______ _____ _____    ______ ____
ROOT
ATOM      1  C   LIG    1       27.203 -20.452   6.946  0.00  0.00    -0.020 C 
ATOM      2  C   LIG    1       25.892 -20.681   6.411  0.00  0.00    +0.006 C 
ATOM      3  C   LIG    1       25.006 -20.740   7.488  0.00  0.00    +0.047 C 
ATOM      4  C   LIG    1       23.633 -20.970   7.330  0.00  0.00    +0.030 C 
ATOM      5  C   LIG    1       23.149 -21.156   6.033  0.00  0.00    +0.047 C 
ATOM      6  C   LIG    1       24.015 -21.103   4.947  0.00  0.00    +0.118 C 
ATOM      7  N   LIG    1       25.742 -20.535   8.632  0.00  0.00    -0.360 NA
ATOM      8  H   LIG    1       25.361 -20.522   9.567  0.00  0.00    +0.165 HD
ATOM      9  C   LIG    1       25.378 -20.859   5.110  0.00  0.00    +0.055 C 
ATOM     10  C   LIG    1       27.062 -20.364   8.318  0.00  0.00    +0.087 C 
ENDROOT
BRANCH   6  11
ATOM     11  O   LIG    1       23.561 -21.295   3.673  0.00  0.00    -0.507 OA
ATOM     12  H   LIG    1       22.681 -20.892   3.593  0.00  0.00    +0.292 HD
ENDBRANCH   6  11
BRANCH   1  13
ATOM     13  C   LIG    1       28.494 -20.333   6.190  0.00  0.00    +0.067 C 
BRANCH  13  14
ATOM     14  CA  LIG    1       29.376 -19.147   6.614  0.00  0.00    +0.165 C 
BRANCH  14  15
ATOM     15  N   LIG    1       29.680 -18.183   5.505  0.00  0.00    -0.318 NA
ATOM     16  H1  LIG    1       29.498 -18.666   4.616  0.00  0.00    +0.119 HD
ATOM     17  H2  LIG    1       28.956 -17.457   5.529  0.00  0.00    +0.119 HD
ENDBRANCH  14  15
BRANCH  14  18
ATOM     18  C   LIG    1       30.698 -19.621   7.233  0.00  0.00    +0.322 C 
ATOM     19  O   LIG    1       31.739 -18.983   7.263  0.00  0.00    -0.249 OA
BRANCH  18  20
ATOM     20  OXT LIG    1       30.590 -20.885   7.724  0.00  0.00    -0.479 OA
ATOM     21  HXT LIG    1       30.480 -20.778   8.702  0.00  0.00    +0.295 HD
ENDBRANCH  18  20
ENDBRANCH  14  18
ENDBRANCH  13  14
ENDBRANCH   1  13
TORSDOF 6
ENDMDL
MODEL 3
REMARK VINA RESULT:      -7.4      2.849      5.716
REMARK  Name = *****
REMARK                            x       y       z     vdW  Elec       q    Type
REMARK                         _______ _______ _______ _____ _____    ______ ____
ROOT
ATOM      1  C   LIG    1       25.687 -21.409   6.361  0.00  0.00    -0.020 C 
ATOM      2  C   LIG    1       27.029 -21.070   6.735  0.00  0.00    +0.006 C 
ATOM      3  C   LIG    1       27.502 -20.148   5.800  0.00  0.00    +0.047 C 
ATOM      4  C   LIG    1       28.795 -19.609   5.850  0.00  0.00    +0.030 C 
ATOM      5  C   LIG    1       29.637 -20.033   6.881  0.00  0.00    +0.047 C 
ATOM      6  C   LIG    1       29.186 -20.952   7.821  0.00  0.00    +0.118 C 
ATOM      7  N   LIG    1       26.484 -19.917   4.904  0.00  0.00    -0.360 NA
ATOM      8  H   LIG    1       26.542 -19.289   4.115  0.00  0.00    +0.165 HD
ATOM      9  C   LIG    1       27.893 -21.473   7.774  0.00  0.00    +0.055 C 
ATOM     10  C   LIG    1       25.392 -20.672   5.230  0.00  0.00    +0.087 C 
ENDROOT
BRANCH   6  11
ATOM     11  O   LIG    1       29.999 -21.388   8.829  0.00  0.00    -0.507 OA
ATOM     12  H   LIG    1       30.020 -20.710   9.525  0.00  0.00    +0.292 HD
ENDBRANCH   6  11
BRANCH   1  13
ATOM     13  C   LIG    1       24.763 -22.376   7.042  0.00  0.00    +0.067 C 
BRANCH  13  14
ATOM     14  CA  LIG    1       24.120 -23.413   6.106  0.00  0.00    +0.165 C 
BRANCH  14  15
ATOM     15  N   LIG    1       22.891 -24.064   6.667  0.00  0.00    -0.318 NA
ATOM     16  H1  LIG    1       22.838 -23.819   7.664  0.00  0.00    +0.119 HD
ATOM     17  H2  LIG    1       22.082 -23.580   6.264  0.00  0.00    +0.119 HD
ENDBRANCH  14  15
BRANCH  14  18
ATOM     18  C   LIG    1       25.120 -24.507   5.706  0.00  0.00    +0.322 C 
ATOM     19  O   LIG    1       26.035 -24.923   6.400  0.00  0.00    -0.249 OA
BRANCH  18  20
ATOM     20  OXT LIG    1       24.893 -24.946   4.438  0.00  0.00    -0.479 OA
ATOM     21  HXT LIG    1       23.980 -25.330   4.454  0.00  0.00    +0.295 HD
ENDBRANCH  18  20
ENDBRANCH  14  18
ENDBRANCH  13  14
ENDBRANCH   1  13
TORSDOF 6
ENDMDL
MODEL 4
REMARK VINA RESULT:      -7.3      4.320      5.107
REMARK  Name = *****
REMARK                            x       y       z     vdW  Elec       q    Type
REMARK                         _______ _______ _______ _____ _____    ______ ____
ROOT
ATOM      1  C   LIG    1       24.572 -22.842   6.705  0.00  0.00    -0.020 C 
ATOM      2  C   LIG    1       25.011 -24.175   6.410  0.00  0.00    +0.006 C 
ATOM      3  C   LIG    1       23.879 -24.991   6.388  0.00  0.00    +0.047 C 
ATOM      4  C   LIG    1       23.941 -26.370   6.145  0.00  0.00    +0.030 C 
ATOM      5  C   LIG    1       25.200 -26.936   5.927  0.00  0.00    +0.047 C 
ATOM      6  C   LIG    1       26.339 -26.141   5.946  0.00  0.00    +0.118 C 
ATOM      7  N   LIG    1       22.792 -24.187   6.638  0.00  0.00    -0.360 NA
ATOM      8  H   LIG    1       21.835 -24.508   6.681  0.00  0.00    +0.165 HD
ATOM      9  C   LIG    1       26.269 -24.767   6.175  0.00  0.00    +0.055 C 
ATOM     10  C   LIG    1       23.197 -22.896   6.833  0.00  0.00    +0.087 C 
ENDROOT
BRANCH   6  11
ATOM     11  O   LIG    1       27.579 -26.679   5.748  0.00  0.00    -0.507 OA
ATOM     12  H   LIG    1       27.575 -27.595   6.072  0.00  0.00    +0.292 HD
ENDBRANCH   6  11
BRANCH   1  13
ATOM     13  C   LIG    1       25.418 -21.611   6.856  0.00  0.00    +0.067 C 
BRANCH  13  14
ATOM     14  CA  LIG    1       26.358 -21.627   8.072  0.00  0.00    +0.165 C 
BRANCH  14  15
ATOM     15  N   LIG    1       25.783 -20.983   9.299  0.00  0.00    -0.318 NA
ATOM     16  H1  LIG    1       25.598 -19.997   9.074  0.00  0.00    +0.119 HD
ATOM     17  H2  LIG    1       24.844 -21.372   9.432  0.00  0.00    +0.119 HD
ENDBRANCH  14  15
BRANCH  14  18
ATOM     18  C   LIG    1       27.706 -20.965   7.752  0.00  0.00    +0.322 C 
ATOM     19  O   LIG    1       28.305 -20.185   8.477  0.00  0.00    -0.249 OA
BRANCH  18  20
ATOM     20  OXT LIG    1       28.153 -21.322   6.517  0.00  0.00    -0.479 OA
ATOM     21  HXT LIG    1       27.925 -22.281   6.424  0.00  0.00    +0.295 HD
ENDBRANCH  18  20
ENDBRANCH  14  18
ENDBRANCH  13  14
ENDBRANCH   1  13
TORSDOF 6
ENDMDL
MODEL 5
REMARK VINA RESULT:      -7.2      4.946      6.558
REMARK  Name = *****
REMARK                            x       y       z     vdW  Elec       q    Type
REMARK                         _______ _______ _______ _____ _____    ______ ____
ROOT
ATOM      1  C   LIG    1       24.933 -24.700   6.743  0.00  0.00    -0.020 C 
ATOM      2  C   LIG    1       24.973 -23.329   7.164  0.00  0.00    +0.006 C 
ATOM      3  C   LIG    1       23.698 -22.795   6.966  0.00  0.00    +0.047 C 
ATOM      4  C   LIG    1       23.379 -21.462   7.257  0.00  0.00    +0.030 C 
ATOM      5  C   LIG    1       24.396 -20.644   7.756  0.00  0.00    +0.047 C 
ATOM      6  C   LIG    1       25.672 -21.155   7.957  0.00  0.00    +0.118 C 
ATOM      7  N   LIG    1       22.907 -23.803   6.466  0.00  0.00    -0.360 NA
ATOM      8  H   LIG    1       21.931 -23.706   6.228  0.00  0.00    +0.165 HD
ATOM      9  C   LIG    1       25.979 -22.487   7.679  0.00  0.00    +0.055 C 
ATOM     10  C   LIG    1       23.640 -24.949   6.325  0.00  0.00    +0.087 C 
ENDROOT
BRANCH   6  11
ATOM     11  O   LIG    1       26.681 -20.367   8.432  0.00  0.00    -0.507 OA
ATOM     12  H   LIG    1       26.349 -19.863   9.194  0.00  0.00    +0.292 HD
ENDBRANCH   6  11
BRANCH   1  13
ATOM     13  C   LIG    1       26.061 -25.690   6.741  0.00  0.00    +0.067 C 
BRANCH  13  14
ATOM     14  CA  LIG    1       25.618 -27.163   6.768  0.00  0.00    +0.165 C 
BRANCH  14  15
ATOM     15  N   LIG    1       26.277 -27.980   7.839  0.00  0.00    -0.318 NA
ATOM     16  H1  LIG    1       26.851 -28.696   7.374  0.00  0.00    +0.119 HD
ATOM     17  H2  LIG    1       26.973 -27.380   8.292  0.00  0.00    +0.119 HD
ENDBRANCH  14  15
BRANCH  14  18
ATOM     18  C   LIG    1       25.849 -27.846   5.412  0.00  0.00    +0.322 C 
ATOM     19  O   LIG    1       25.171 -28.748   4.945  0.00  0.00    -0.249 OA
BRANCH  18  20
ATOM     20  OXT LIG    1       26.951 -27.348   4.788  0.00  0.00    -0.479 OA
ATOM     21  HXT LIG    1       27.059 -26.429   5.142  0.00  0.00    +0.295 HD
ENDBRANCH  18  20
ENDBRANCH  14  18
ENDBRANCH  13  14
ENDBRANCH   1  13
TORSDOF 6
ENDMDL
MODEL 6
REMARK VINA RESULT:      -7.2      2.009      6.226
REMARK  Name = *****
REMARK                            x       y       z     vdW  Elec       q    Type
REMARK                         _______ _______ _______ _____ _____    ______ ____
ROOT
ATOM      1  C   LIG    1       26.453 -20.956   7.021  0.00  0.00    -0.020 C 
ATOM      2  C   LIG    1       27.739 -20.358   6.815  0.00  0.00    +0.006 C 
ATOM      3  C   LIG    1       28.584 -20.829   7.822  0.00  0.00    +0.047 C 
ATOM      4  C   LIG    1       29.924 -20.433   7.937  0.00  0.00    +0.030 C 
ATOM      5  C   LIG    1       30.415 -19.519   7.001  0.00  0.00    +0.047 C 
ATOM      6  C   LIG    1       29.590 -19.036   5.993  0.00  0.00    +0.118 C 
ATOM      7  N   LIG    1       27.850 -21.695   8.597  0.00  0.00    -0.360 NA
ATOM      8  H   LIG    1       28.205 -22.191   9.403  0.00  0.00    +0.165 HD
ATOM      9  C   LIG    1       28.262 -19.445   5.876  0.00  0.00    +0.055 C 
ATOM     10  C   LIG    1       26.568 -21.776   8.127  0.00  0.00    +0.087 C 
ENDROOT
BRANCH   6  11
ATOM     11  O   LIG    1       30.049 -18.133   5.077  0.00  0.00    -0.507 OA
ATOM     12  H   LIG    1       29.762 -18.416   4.192  0.00  0.00    +0.292 HD
ENDBRANCH   6  11
BRANCH   1  13
ATOM     13  C   LIG    1       25.205 -20.747   6.213  0.00  0.00    +0.067 C 
BRANCH  13  14
ATOM     14  CA  LIG    1       24.466 -22.040   5.833  0.00  0.00    +0.165 C 
BRANCH  14  15
ATOM     15  N   LIG    1       23.979 -22.072   4.414  0.00  0.00    -0.318 NA
ATOM     16  H1  LIG    1       24.433 -21.298   3.913  0.00  0.00    +0.119 HD
ATOM     17  H2  LIG    1       24.385 -22.905   3.975  0.00  0.00    +0.119 HD
ENDBRANCH  14  15
BRANCH  14  18
ATOM     18  C   LIG    1       23.278 -22.307   6.769  0.00  0.00    +0.322 C 
ATOM     19  O   LIG    1       23.034 -21.699   7.800  0.00  0.00    -0.249 OA
BRANCH  18  20
ATOM     20  OXT LIG    1       22.527 -23.354   6.331  0.00  0.00    -0.479 OA
ATOM     21  HXT LIG    1       21.928 -22.975   5.640  0.00  0.00    +0.295 HD
ENDBRANCH  18  20
ENDBRANCH  14  18
ENDBRANCH  13  14
ENDBRANCH   1  13
TORSDOF 6
ENDMDL
MODEL 7
REMARK VINA RESULT:      -7.2      2.165      2.609
REMARK  Name = *****
REMARK                            x       y       z     vdW  Elec       q    Type
REMARK                         _______ _______ _______ _____ _____    ______ ____
ROOT
ATOM      1  C   LIG    1       26.917 -20.706   7.584  0.00  0.00    -0.020 C 
ATOM      2  C   LIG    1       26.147 -20.685   6.375  0.00  0.00    +0.006 C 
ATOM      3  C   LIG    1       25.097 -21.591   6.533  0.00  0.00    +0.047 C 
ATOM      4  C   LIG    1       24.149 -21.839   5.531  0.00  0.00    +0.030 C 
ATOM      5  C   LIG    1       24.283 -21.148   4.324  0.00  0.00    +0.047 C 
ATOM      6  C   LIG    1       25.323 -20.244   4.145  0.00  0.00    +0.118 C 
ATOM      7  N   LIG    1       25.209 -22.127   7.795  0.00  0.00    -0.360 NA
ATOM      8  H   LIG    1       24.581 -22.814   8.187  0.00  0.00    +0.165 HD
ATOM      9  C   LIG    1       26.254 -19.991   5.152  0.00  0.00    +0.055 C 
ATOM     10  C   LIG    1       26.300 -21.606   8.432  0.00  0.00    +0.087 C 
ENDROOT
BRANCH   6  11
ATOM     11  O   LIG    1       25.477 -19.569   2.968  0.00  0.00    -0.507 OA
ATOM     12  H   LIG    1       24.620 -19.546   2.509  0.00  0.00    +0.292 HD
ENDBRANCH   6  11
BRANCH   1  13
ATOM     13  C   LIG    1       28.158 -19.921   7.894  0.00  0.00    +0.067 C 
BRANCH  13  14
ATOM     14  CA  LIG    1       29.460 -20.549   7.367  0.00  0.00    +0.165 C 
BRANCH  14  15
ATOM     15  N   LIG    1       30.166 -21.419   8.364  0.00  0.00    -0.318 NA
ATOM     16  H1  LIG    1       31.040 -20.945   8.626  0.00  0.00    +0.119 HD
ATOM     17  H2  LIG    1       29.618 -21.394   9.230  0.00  0.00    +0.119 HD
ENDBRANCH  14  15
BRANCH  14  18
ATOM     18  C   LIG    1       30.439 -19.478   6.865  0.00  0.00    +0.322 C 
ATOM     19  O   LIG    1       30.131 -18.449   6.283  0.00  0.00    -0.249 OA
BRANCH  18  20
ATOM     20  OXT LIG    1       31.730 -19.833   7.110  0.00  0.00    -0.479 OA
ATOM     21  HXT LIG    1       31.694 -20.788   7.368  0.00  0.00    +0.295 HD
ENDBRANCH  18  20
ENDBRANCH  14  18
ENDBRANCH  13  14
ENDBRANCH   1  13
TORSDOF 6
ENDMDL
MODEL 8
REMARK VINA RESULT:      -7.2      2.903      3.866
REMARK  Name = *****
REMARK                            x       y       z     vdW  Elec       q    Type
REMARK                         _______ _______ _______ _____ _____    ______ ____
ROOT
ATOM      1  C   LIG    1       24.992 -21.970   6.657  0.00  0.00    -0.020 C 
ATOM      2  C   LIG    1       24.799 -20.953   5.665  0.00  0.00    +0.006 C 
ATOM      3  C   LIG    1       23.423 -20.782   5.505  0.00  0.00    +0.047 C 
ATOM      4  C   LIG    1       22.872 -19.869   4.595  0.00  0.00    +0.030 C 
ATOM      5  C   LIG    1       23.753 -19.115   3.815  0.00  0.00    +0.047 C 
ATOM      6  C   LIG    1       25.126 -19.272   3.958  0.00  0.00    +0.118 C 
ATOM      7  N   LIG    1       22.801 -21.643   6.377  0.00  0.00    -0.360 NA
ATOM      8  H   LIG    1       21.801 -21.736   6.481  0.00  0.00    +0.165 HD
ATOM      9  C   LIG    1       25.668 -20.171   4.876  0.00  0.00    +0.055 C 
ATOM     10  C   LIG    1       23.733 -22.364   7.071  0.00  0.00    +0.087 C 
ENDROOT
BRANCH   6  11
ATOM     11  O   LIG    1       26.002 -18.552   3.196  0.00  0.00    -0.507 OA
ATOM     12  H   LIG    1       25.501 -17.891   2.690  0.00  0.00    +0.292 HD
ENDBRANCH   6  11
BRANCH   1  13
ATOM     13  C   LIG    1       26.292 -22.524   7.162  0.00  0.00    +0.067 C 
BRANCH  13  14
ATOM     14  CA  LIG    1       26.956 -21.687   8.268  0.00  0.00    +0.165 C 
BRANCH  14  15
ATOM     15  N   LIG    1       26.000 -20.832   9.045  0.00  0.00    -0.318 NA
ATOM     16  H1  LIG    1       25.223 -21.432   9.349  0.00  0.00    +0.119 HD
ATOM     17  H2  LIG    1       26.463 -20.585   9.926  0.00  0.00    +0.119 HD
ENDBRANCH  14  15
BRANCH  14  18
ATOM     18  C   LIG    1       28.074 -20.796   7.707  0.00  0.00    +0.322 C 
ATOM     19  O   LIG    1       28.504 -19.780   8.232  0.00  0.00    -0.249 OA
BRANCH  18  20
ATOM     20  OXT LIG    1       28.517 -21.255   6.505  0.00  0.00    -0.479 OA
ATOM     21  HXT LIG    1       28.308 -20.535   5.858  0.00  0.00    +0.295 HD
ENDBRANCH  18  20
ENDBRANCH  14  18
ENDBRANCH  13  14
ENDBRANCH   1  13
TORSDOF 6
ENDMDL
MODEL 9
REMARK VINA RESULT:      -7.1      2.756      3.452
REMARK  Name = *****
REMARK                            x       y       z     vdW  Elec       q    Type
REMARK                         _______ _______ _______ _____ _____    ______ ____
ROOT
ATOM      1  C   LIG    1       26.166 -21.648   7.703  0.00  0.00    -0.020 C 
ATOM      2  C   LIG    1       25.492 -22.824   7.235  0.00  0.00    +0.006 C 
ATOM      3  C   LIG    1       24.126 -22.539   7.211  0.00  0.00    +0.047 C 
ATOM      4  C   LIG    1       23.162 -23.476   6.817  0.00  0.00    +0.030 C 
ATOM      5  C   LIG    1       23.604 -24.749   6.446  0.00  0.00    +0.047 C 
ATOM      6  C   LIG    1       24.960 -25.053   6.466  0.00  0.00    +0.118 C 
ATOM      7  N   LIG    1       23.973 -21.237   7.626  0.00  0.00    -0.360 NA
ATOM      8  H   LIG    1       23.088 -20.757   7.705  0.00  0.00    +0.165 HD
ATOM      9  C   LIG    1       25.915 -24.111   6.845  0.00  0.00    +0.055 C 
ATOM     10  C   LIG    1       25.192 -20.694   7.927  0.00  0.00    +0.087 C 
ENDROOT
BRANCH   6  11
ATOM     11  O   LIG    1       25.409 -26.295   6.119  0.00  0.00    -0.507 OA
ATOM     12  H   LIG    1       24.804 -26.959   6.489  0.00  0.00    +0.292 HD
ENDBRANCH   6  11
BRANCH   1  13
ATOM     13  C   LIG    1       27.640 -21.462   7.922  0.00  0.00    +0.067 C 
BRANCH  13  14
ATOM     14  CA  LIG    1       28.234 -20.217   7.243  0.00  0.00    +0.165 C 
BRANCH  14  15
ATOM     15  N   LIG    1       28.243 -20.282   5.744  0.00  0.00    -0.318 NA
ATOM     16  H1  LIG    1       27.299 -20.552   5.440  0.00  0.00    +0.119 HD
ATOM     17  H2  LIG    1       28.334 -19.321   5.401  0.00  0.00    +0.119 HD
ENDBRANCH  14  15
BRANCH  14  18
ATOM     18  C   LIG    1       29.661 -19.934   7.734  0.00  0.00    +0.322 C 
ATOM     19  O   LIG    1       29.981 -19.681   8.886  0.00  0.00    -0.249 OA
BRANCH  18  20
ATOM     20  OXT LIG    1       30.553 -19.957   6.706  0.00  0.00    -0.479 OA
ATOM     21  HXT LIG    1       30.011 -20.123   5.894  0.00  0.00    +0.295 HD
ENDBRANCH  18  20
ENDBRANCH  14  18
ENDBRANCH  13  14
ENDBRANCH   1  13
TORSDOF 6
ENDMDL
