MODEL 1
REMARK VINA RESULT:      -2.0      0.000      0.000
REMARK  Name = *****
REMARK                            x       y       z     vdW  Elec       q    Type
REMARK                         _______ _______ _______ _____ _____    ______ ____
ROOT
ATOM      1  C   LIG    1       23.940 -18.731   3.942  0.00  0.00    +0.019 A 
ATOM      2  C   LIG    1       24.847 -17.709   3.618  0.00  0.00    +0.035 A 
ATOM      3  C   LIG    1       24.577 -16.360   3.916  0.00  0.00    +0.049 A 
ATOM      4  N   LIG    1       25.483 -15.333   3.573  0.00  0.00    -0.297 N 
ATOM      5  C   LIG    1       25.063 -14.039   3.184  0.00  0.00    +0.048 A 
ATOM      6  C   LIG    1       23.881 -13.472   3.703  0.00  0.00    +0.034 A 
ATOM      7  S   LIG    1       22.843 -14.366   4.853  0.00  0.00    -0.086 S 
ATOM      8  C   LIG    1       23.490 -12.175   3.332  0.00  0.00    +0.017 A 
ATOM      9  C   LIG    1       24.233 -11.449   2.403  0.00  0.00    +0.001 A 
ATOM     10  C   LIG    1       25.350 -12.027   1.815  0.00  0.00    +0.002 A 
ATOM     11  C   LIG    1       25.755 -13.309   2.198  0.00  0.00    +0.024 A 
ATOM     12  C   LIG    1       23.326 -16.051   4.490  0.00  0.00    +0.034 A 
ATOM     13  C   LIG    1       22.420 -17.071   4.814  0.00  0.00    +0.017 A 
ATOM     14  C   LIG    1       22.725 -18.405   4.544  0.00  0.00    +0.012 A 
ENDROOT
BRANCH   1  15
ATOM     15  C   LIG    1       24.294 -20.138   3.591  0.00  0.00    +0.163 C 
ATOM     16  O   LIG    1       24.395 -20.454   2.415  0.00  0.00    -0.292 OA
BRANCH  15  18
ATOM     17  C   LIG    1       25.665 -20.672   5.624  0.00  0.00    +0.012 C 
ATOM     18  C   LIG    1       24.542 -21.137   4.713  0.00  0.00    +0.076 C 
ENDBRANCH  15  18
ENDBRANCH   1  15
BRANCH   4  19
ATOM     19  C   LIG    1       26.941 -15.569   3.723  0.00  0.00    +0.129 C 
BRANCH  19  20
ATOM     20  C   LIG    1       27.682 -14.638   4.751  0.00  0.00    +0.071 C 
ATOM     21  C   LIG    1       26.705 -13.863   5.657  0.00  0.00    +0.026 C 
BRANCH  20  22
ATOM     22  N   LIG    1       28.653 -13.675   4.135  0.00  0.00    -0.304 NA
ATOM     23  C   LIG    1       28.720 -12.377   4.809  0.00  0.00    +0.105 C 
ATOM     24  C   LIG    1       28.434 -13.479   2.701  0.00  0.00    +0.105 C 
ENDBRANCH  20  22
ENDBRANCH  19  20
ENDBRANCH   4  19
TORSDOF 5
ENDMDL
MODEL 2
REMARK VINA RESULT:      -1.0      2.679      5.322
REMARK  Name = *****
REMARK                            x       y       z     vdW  Elec       q    Type
REMARK                         _______ _______ _______ _____ _____    ______ ____
ROOT
ATOM      1  C   LIG    1       28.097 -19.614   5.708  0.00  0.00    +0.019 A 
ATOM      2  C   LIG    1       26.894 -19.196   5.114  0.00  0.00    +0.035 A 
ATOM      3  C   LIG    1       26.798 -17.973   4.424  0.00  0.00    +0.049 A 
ATOM      4  N   LIG    1       25.584 -17.547   3.843  0.00  0.00    -0.297 N 
ATOM      5  C   LIG    1       25.200 -16.186   3.782  0.00  0.00    +0.048 A 
ATOM      6  C   LIG    1       26.163 -15.164   3.664  0.00  0.00    +0.034 A 
ATOM      7  S   LIG    1       27.912 -15.530   3.615  0.00  0.00    -0.086 S 
ATOM      8  C   LIG    1       25.768 -13.819   3.574  0.00  0.00    +0.017 A 
ATOM      9  C   LIG    1       24.421 -13.469   3.654  0.00  0.00    +0.001 A 
ATOM     10  C   LIG    1       23.467 -14.456   3.861  0.00  0.00    +0.002 A 
ATOM     11  C   LIG    1       23.854 -15.797   3.928  0.00  0.00    +0.024 A 
ATOM     12  C   LIG    1       27.935 -17.136   4.405  0.00  0.00    +0.034 A 
ATOM     13  C   LIG    1       29.135 -17.554   4.998  0.00  0.00    +0.017 A 
ATOM     14  C   LIG    1       29.218 -18.787   5.644  0.00  0.00    +0.012 A 
ENDROOT
BRANCH   1  15
ATOM     15  C   LIG    1       28.121 -20.922   6.427  0.00  0.00    +0.163 C 
ATOM     16  O   LIG    1       29.196 -21.434   6.702  0.00  0.00    -0.292 OA
BRANCH  15  18
ATOM     17  C   LIG    1       25.726 -20.527   7.062  0.00  0.00    +0.012 C 
ATOM     18  C   LIG    1       26.801 -21.571   6.818  0.00  0.00    +0.076 C 
ENDBRANCH  15  18
ENDBRANCH   1  15
BRANCH   4  19
ATOM     19  C   LIG    1       24.711 -18.541   3.170  0.00  0.00    +0.129 C 
BRANCH  19  20
ATOM     20  C   LIG    1       24.266 -19.767   4.048  0.00  0.00    +0.071 C 
ATOM     21  C   LIG    1       24.169 -21.073   3.235  0.00  0.00    +0.026 C 
BRANCH  20  22
ATOM     22  N   LIG    1       22.987 -19.561   4.805  0.00  0.00    -0.304 NA
ATOM     23  C   LIG    1       22.361 -20.799   5.274  0.00  0.00    +0.105 C 
ATOM     24  C   LIG    1       22.009 -18.758   4.070  0.00  0.00    +0.105 C 
ENDBRANCH  20  22
ENDBRANCH  19  20
ENDBRANCH   4  19
TORSDOF 5
ENDMDL
MODEL 3
REMARK VINA RESULT:      -0.6      2.951      5.482
REMARK  Name = *****
REMARK                            x       y       z     vdW  Elec       q    Type
REMARK                         _______ _______ _______ _____ _____    ______ ____
ROOT
ATOM      1  C   LIG    1       22.480 -19.038   4.193  0.00  0.00    +0.019 A 
ATOM      2  C   LIG    1       23.747 -18.439   4.101  0.00  0.00    +0.035 A 
ATOM      3  C   LIG    1       24.929 -19.179   4.299  0.00  0.00    +0.049 A 
ATOM      4  N   LIG    1       26.201 -18.571   4.223  0.00  0.00    -0.297 N 
ATOM      5  C   LIG    1       27.290 -18.972   5.033  0.00  0.00    +0.048 A 
ATOM      6  C   LIG    1       27.431 -20.310   5.453  0.00  0.00    +0.034 A 
ATOM      7  S   LIG    1       26.230 -21.558   5.009  0.00  0.00    -0.086 S 
ATOM      8  C   LIG    1       28.532 -20.701   6.231  0.00  0.00    +0.017 A 
ATOM      9  C   LIG    1       29.475 -19.763   6.647  0.00  0.00    +0.001 A 
ATOM     10  C   LIG    1       29.303 -18.425   6.319  0.00  0.00    +0.002 A 
ATOM     11  C   LIG    1       28.220 -18.035   5.525  0.00  0.00    +0.024 A 
ATOM     12  C   LIG    1       24.802 -20.536   4.666  0.00  0.00    +0.034 A 
ATOM     13  C   LIG    1       23.537 -21.132   4.758  0.00  0.00    +0.017 A 
ATOM     14  C   LIG    1       22.380 -20.389   4.520  0.00  0.00    +0.012 A 
ENDROOT
BRANCH   1  15
ATOM     15  C   LIG    1       21.272 -18.188   3.974  0.00  0.00    +0.163 C 
ATOM     16  O   LIG    1       21.320 -16.997   4.245  0.00  0.00    -0.292 OA
BRANCH  15  18
ATOM     17  C   LIG    1       19.351 -17.911   2.384  0.00  0.00    +0.012 C 
ATOM     18  C   LIG    1       20.017 -18.827   3.395  0.00  0.00    +0.076 C 
ENDBRANCH  15  18
ENDBRANCH   1  15
BRANCH   4  19
ATOM     19  C   LIG    1       26.455 -17.541   3.184  0.00  0.00    +0.129 C 
BRANCH  19  20
ATOM     20  C   LIG    1       26.315 -16.048   3.654  0.00  0.00    +0.071 C 
ATOM     21  C   LIG    1       24.896 -15.489   3.431  0.00  0.00    +0.026 C 
BRANCH  20  22
ATOM     22  N   LIG    1       27.315 -15.107   3.050  0.00  0.00    -0.304 NA
ATOM     23  C   LIG    1       28.043 -14.296   4.028  0.00  0.00    +0.105 C 
ATOM     24  C   LIG    1       26.740 -14.243   2.018  0.00  0.00    +0.105 C 
ENDBRANCH  20  22
ENDBRANCH  19  20
ENDBRANCH   4  19
TORSDOF 5
ENDMDL
MODEL 4
REMARK VINA RESULT:       0.1      1.997      3.713
REMARK  Name = *****
REMARK                            x       y       z     vdW  Elec       q    Type
REMARK                         _______ _______ _______ _____ _____    ______ ____
ROOT
ATOM      1  C   LIG    1       23.456 -18.631   4.077  0.00  0.00    +0.019 A 
ATOM      2  C   LIG    1       23.507 -17.258   4.366  0.00  0.00    +0.035 A 
ATOM      3  C   LIG    1       24.612 -16.466   3.998  0.00  0.00    +0.049 A 
ATOM      4  N   LIG    1       24.668 -15.090   4.305  0.00  0.00    -0.297 N 
ATOM      5  C   LIG    1       25.877 -14.425   4.623  0.00  0.00    +0.048 A 
ATOM      6  C   LIG    1       27.102 -14.833   4.056  0.00  0.00    +0.034 A 
ATOM      7  S   LIG    1       27.194 -16.221   2.934  0.00  0.00    -0.086 S 
ATOM      8  C   LIG    1       28.290 -14.146   4.355  0.00  0.00    +0.017 A 
ATOM      9  C   LIG    1       28.287 -13.086   5.260  0.00  0.00    +0.001 A 
ATOM     10  C   LIG    1       27.105 -12.729   5.896  0.00  0.00    +0.002 A 
ATOM     11  C   LIG    1       25.917 -13.396   5.584  0.00  0.00    +0.024 A 
ATOM     12  C   LIG    1       25.709 -17.111   3.387  0.00  0.00    +0.034 A 
ATOM     13  C   LIG    1       25.657 -18.482   3.098  0.00  0.00    +0.017 A 
ATOM     14  C   LIG    1       24.536 -19.239   3.438  0.00  0.00    +0.012 A 
ENDROOT
BRANCH   1  15
ATOM     15  C   LIG    1       22.253 -19.406   4.503  0.00  0.00    +0.163 C 
ATOM     16  O   LIG    1       21.140 -18.980   4.232  0.00  0.00    -0.292 OA
BRANCH  15  18
ATOM     17  C   LIG    1       23.202 -20.508   6.547  0.00  0.00    +0.012 C 
ATOM     18  C   LIG    1       22.448 -20.720   5.246  0.00  0.00    +0.076 C 
ENDBRANCH  15  18
ENDBRANCH   1  15
BRANCH   4  19
ATOM     19  C   LIG    1       23.438 -14.267   4.192  0.00  0.00    +0.129 C 
BRANCH  19  20
ATOM     20  C   LIG    1       23.399 -13.255   2.990  0.00  0.00    +0.071 C 
ATOM     21  C   LIG    1       24.292 -13.700   1.815  0.00  0.00    +0.026 C 
BRANCH  20  22
ATOM     22  N   LIG    1       23.732 -11.839   3.355  0.00  0.00    -0.304 NA
ATOM     23  C   LIG    1       25.108 -11.447   3.043  0.00  0.00    +0.105 C 
ATOM     24  C   LIG    1       23.429 -11.520   4.750  0.00  0.00    +0.105 C 
ENDBRANCH  20  22
ENDBRANCH  19  20
ENDBRANCH   4  19
TORSDOF 5
ENDMDL
MODEL 5
REMARK VINA RESULT:       0.8      2.845      6.347
REMARK  Name = *****
REMARK                            x       y       z     vdW  Elec       q    Type
REMARK                         _______ _______ _______ _____ _____    ______ ____
ROOT
ATOM      1  C   LIG    1       24.899 -14.800   4.066  0.00  0.00    +0.019 A 
ATOM      2  C   LIG    1       25.331 -16.120   4.272  0.00  0.00    +0.035 A 
ATOM      3  C   LIG    1       24.463 -17.216   4.106  0.00  0.00    +0.049 A 
ATOM      4  N   LIG    1       24.895 -18.541   4.331  0.00  0.00    -0.297 N 
ATOM      5  C   LIG    1       24.049 -19.543   4.864  0.00  0.00    +0.048 A 
ATOM      6  C   LIG    1       22.663 -19.536   4.607  0.00  0.00    +0.034 A 
ATOM      7  S   LIG    1       21.903 -18.251   3.622  0.00  0.00    -0.086 S 
ATOM      8  C   LIG    1       21.838 -20.552   5.116  0.00  0.00    +0.017 A 
ATOM      9  C   LIG    1       22.367 -21.553   5.929  0.00  0.00    +0.001 A 
ATOM     10  C   LIG    1       23.714 -21.523   6.266  0.00  0.00    +0.002 A 
ATOM     11  C   LIG    1       24.541 -20.526   5.743  0.00  0.00    +0.024 A 
ATOM     12  C   LIG    1       23.114 -16.945   3.793  0.00  0.00    +0.034 A 
ATOM     13  C   LIG    1       22.683 -15.626   3.587  0.00  0.00    +0.017 A 
ATOM     14  C   LIG    1       23.570 -14.558   3.719  0.00  0.00    +0.012 A 
ENDROOT
BRANCH   1  15
ATOM     15  C   LIG    1       25.877 -13.690   4.265  0.00  0.00    +0.163 C 
ATOM     16  O   LIG    1       25.853 -13.051   5.307  0.00  0.00    -0.292 OA
BRANCH  15  18
ATOM     17  C   LIG    1       28.312 -13.623   3.664  0.00  0.00    +0.012 C 
ATOM     18  C   LIG    1       26.893 -13.398   3.170  0.00  0.00    +0.076 C 
ENDBRANCH  15  18
ENDBRANCH   1  15
BRANCH   4  19
ATOM     19  C   LIG    1       26.257 -18.946   3.899  0.00  0.00    +0.129 C 
BRANCH  19  20
ATOM     20  C   LIG    1       27.407 -18.696   4.940  0.00  0.00    +0.071 C 
ATOM     21  C   LIG    1       28.458 -17.691   4.430  0.00  0.00    +0.026 C 
BRANCH  20  22
ATOM     22  N   LIG    1       28.102 -19.938   5.413  0.00  0.00    -0.304 NA
ATOM     23  C   LIG    1       27.362 -20.689   6.430  0.00  0.00    +0.105 C 
ATOM     24  C   LIG    1       29.468 -19.691   5.875  0.00  0.00    +0.105 C 
ENDBRANCH  20  22
ENDBRANCH  19  20
ENDBRANCH   4  19
TORSDOF 5
ENDMDL
