MODEL 1
REMARK VINA RESULT:       1.3      0.000      0.000
REMARK  Name = *****
REMARK                            x       y       z     vdW  Elec       q    Type
REMARK                         _______ _______ _______ _____ _____    ______ ____
ROOT
ATOM      1  C   LIG    1       22.074 -19.634   3.982  0.00  0.00    +0.134 C 
ATOM      2  N   LIG    1       23.154 -18.631   3.856  0.00  0.00    -0.159 NA
ATOM      3  S   LIG    1       22.671 -17.106   4.444  0.00  0.00    +0.064 S 
ATOM      4  O   LIG    1       22.588 -17.189   5.889  0.00  0.00    -0.153 OA
ATOM      5  O   LIG    1       21.537 -16.673   3.655  0.00  0.00    -0.153 OA
ATOM      6  C   LIG    1       24.038 -16.091   4.036  0.00  0.00    +0.128 A 
ATOM      7  C   LIG    1       25.281 -16.704   3.923  0.00  0.00    +0.057 A 
ATOM      8  C   LIG    1       26.357 -15.894   3.533  0.00  0.00    +0.047 A 
ATOM      9  C   LIG    1       26.200 -14.524   3.266  0.00  0.00    +0.069 A 
ATOM     10  C   LIG    1       24.937 -13.942   3.379  0.00  0.00    +0.125 A 
ATOM     11 CL   LIG    1       27.619 -13.675   2.765  0.00  0.00    -0.082 Cl
ATOM     12  N   LIG    1       25.474 -18.070   3.998  0.00  0.00    -0.325 N 
ATOM     13  H   LIG    1       26.419 -18.369   4.240  0.00  0.00    +0.148 HD
ATOM     14  C   LIG    1       23.845 -14.726   3.776  0.00  0.00    +0.060 A 
ATOM     15  C   LIG    1       24.456 -19.015   4.440  0.00  0.00    +0.172 C 
ENDROOT
BRANCH  10  16
ATOM     16  S   LIG    1       24.690 -12.230   3.026  0.00  0.00    +0.057 S 
ATOM     17  O   LIG    1       25.895 -11.684   2.456  0.00  0.00    -0.153 OA
ATOM     18  O   LIG    1       24.033 -11.611   4.156  0.00  0.00    -0.153 OA
BRANCH  16  19
ATOM     19  N   LIG    1       23.529 -12.240   1.813  0.00  0.00    -0.203 NA
ATOM     20  H   LIG    1       23.754 -12.968   1.132  0.00  0.00    +0.144 HD
ATOM     21  H   LIG    1       23.442 -11.310   1.401  0.00  0.00    +0.144 HD
ENDBRANCH  16  19
ENDBRANCH  10  16
BRANCH  15  22
ATOM     22  C   LIG    1       24.919 -20.425   3.956  0.00  0.00    +0.109 C 
BRANCH  22  23
ATOM     23  S   LIG    1       25.270 -21.570   5.363  0.00  0.00    -0.149 S 
BRANCH  23  24
ATOM     24  C   LIG    1       26.222 -20.436   6.461  0.00  0.00    +0.182 C 
BRANCH  24  25
ATOM     25  C   LIG    1       27.733 -20.342   6.253  0.00  0.00    +0.399 C 
ATOM     26  F   LIG    1       28.034 -20.118   4.954  0.00  0.00    -0.170 F 
ATOM     27  F   LIG    1       28.327 -21.505   6.611  0.00  0.00    -0.170 F 
ATOM     28  F   LIG    1       28.315 -19.361   6.975  0.00  0.00    -0.170 F 
ENDBRANCH  24  25
ENDBRANCH  23  24
ENDBRANCH  22  23
ENDBRANCH  15  22
TORSDOF 6
ENDMDL
MODEL 2
REMARK VINA RESULT:       1.7      3.557      4.519
REMARK  Name = *****
REMARK                            x       y       z     vdW  Elec       q    Type
REMARK                         _______ _______ _______ _____ _____    ______ ____
ROOT
ATOM      1  C   LIG    1       27.986 -20.673   6.423  0.00  0.00    +0.134 C 
ATOM      2  N   LIG    1       27.404 -19.573   5.622  0.00  0.00    -0.159 NA
ATOM      3  S   LIG    1       28.564 -18.383   5.248  0.00  0.00    +0.064 S 
ATOM      4  O   LIG    1       29.475 -18.938   4.266  0.00  0.00    -0.153 OA
ATOM      5  O   LIG    1       29.052 -17.841   6.498  0.00  0.00    -0.153 OA
ATOM      6  C   LIG    1       27.602 -17.150   4.459  0.00  0.00    +0.128 A 
ATOM      7  C   LIG    1       26.433 -17.557   3.824  0.00  0.00    +0.057 A 
ATOM      8  C   LIG    1       25.639 -16.555   3.251  0.00  0.00    +0.047 A 
ATOM      9  C   LIG    1       25.994 -15.197   3.310  0.00  0.00    +0.069 A 
ATOM     10  C   LIG    1       27.168 -14.822   3.963  0.00  0.00    +0.125 A 
ATOM     11 CL   LIG    1       24.889 -14.086   2.583  0.00  0.00    -0.082 Cl
ATOM     12  N   LIG    1       25.936 -18.845   3.881  0.00  0.00    -0.325 N 
ATOM     13  H   LIG    1       25.296 -19.104   3.130  0.00  0.00    +0.148 HD
ATOM     14  C   LIG    1       27.987 -15.803   4.536  0.00  0.00    +0.060 A 
ATOM     15  C   LIG    1       26.681 -19.985   4.402  0.00  0.00    +0.172 C 
ENDROOT
BRANCH  10  16
ATOM     16  S   LIG    1       27.638 -13.124   4.083  0.00  0.00    +0.057 S 
ATOM     17  O   LIG    1       26.493 -12.340   4.467  0.00  0.00    -0.153 OA
ATOM     18  O   LIG    1       28.446 -12.782   2.933  0.00  0.00    -0.153 OA
BRANCH  16  19
ATOM     19  N   LIG    1       28.709 -13.101   5.376  0.00  0.00    -0.203 NA
ATOM     20  H   LIG    1       28.882 -14.057   5.692  0.00  0.00    +0.144 HD
ATOM     21  H   LIG    1       28.361 -12.485   6.111  0.00  0.00    +0.144 HD
ENDBRANCH  16  19
ENDBRANCH  10  16
BRANCH  15  22
ATOM     22  C   LIG    1       25.633 -21.104   4.693  0.00  0.00    +0.109 C 
BRANCH  22  23
ATOM     23  S   LIG    1       25.068 -21.097   6.452  0.00  0.00    -0.149 S 
BRANCH  23  24
ATOM     24  C   LIG    1       23.369 -20.415   6.234  0.00  0.00    +0.182 C 
BRANCH  24  25
ATOM     25  C   LIG    1       22.775 -20.415   4.826  0.00  0.00    +0.399 C 
ATOM     26  F   LIG    1       23.486 -21.210   3.996  0.00  0.00    -0.170 F 
ATOM     27  F   LIG    1       22.801 -19.164   4.309  0.00  0.00    -0.170 F 
ATOM     28  F   LIG    1       21.493 -20.835   4.784  0.00  0.00    -0.170 F 
ENDBRANCH  24  25
ENDBRANCH  23  24
ENDBRANCH  22  23
ENDBRANCH  15  22
TORSDOF 6
ENDMDL
MODEL 3
REMARK VINA RESULT:       1.8      3.593      6.500
REMARK  Name = *****
REMARK                            x       y       z     vdW  Elec       q    Type
REMARK                         _______ _______ _______ _____ _____    ______ ____
ROOT
ATOM      1  C   LIG    1       23.932 -12.554   4.574  0.00  0.00    +0.134 C 
ATOM      2  N   LIG    1       24.396 -13.925   4.267  0.00  0.00    -0.159 NA
ATOM      3  S   LIG    1       23.105 -15.036   4.232  0.00  0.00    +0.064 S 
ATOM      4  O   LIG    1       22.322 -14.775   3.039  0.00  0.00    -0.153 OA
ATOM      5  O   LIG    1       22.491 -15.033   5.543  0.00  0.00    -0.153 OA
ATOM      6  C   LIG    1       23.926 -16.567   4.018  0.00  0.00    +0.128 A 
ATOM      7  C   LIG    1       25.167 -16.548   3.389  0.00  0.00    +0.057 A 
ATOM      8  C   LIG    1       25.844 -17.770   3.281  0.00  0.00    +0.047 A 
ATOM      9  C   LIG    1       25.306 -18.967   3.781  0.00  0.00    +0.069 A 
ATOM     10  C   LIG    1       24.064 -18.950   4.415  0.00  0.00    +0.125 A 
ATOM     11 CL   LIG    1       26.284 -20.380   3.595  0.00  0.00    -0.082 Cl
ATOM     12  N   LIG    1       25.830 -15.388   3.035  0.00  0.00    -0.325 N 
ATOM     13  H   LIG    1       26.533 -15.490   2.303  0.00  0.00    +0.148 HD
ATOM     14  C   LIG    1       23.360 -17.745   4.529  0.00  0.00    +0.060 A 
ATOM     15  C   LIG    1       25.223 -14.063   3.051  0.00  0.00    +0.172 C 
ENDROOT
BRANCH  10  16
ATOM     16  S   LIG    1       23.364 -20.428   5.081  0.00  0.00    +0.057 S 
ATOM     17  O   LIG    1       21.938 -20.269   5.195  0.00  0.00    -0.153 OA
ATOM     18  O   LIG    1       24.174 -20.866   6.197  0.00  0.00    -0.153 OA
BRANCH  16  19
ATOM     19  N   LIG    1       23.639 -21.571   3.882  0.00  0.00    -0.203 NA
ATOM     20  H   LIG    1       24.576 -21.441   3.496  0.00  0.00    +0.144 HD
ATOM     21  H   LIG    1       22.899 -21.531   3.181  0.00  0.00    +0.144 HD
ENDBRANCH  16  19
ENDBRANCH  10  16
BRANCH  15  22
ATOM     22  C   LIG    1       26.398 -13.037   3.024  0.00  0.00    +0.109 C 
BRANCH  22  23
ATOM     23  S   LIG    1       28.040 -13.854   2.801  0.00  0.00    -0.149 S 
BRANCH  23  24
ATOM     24  C   LIG    1       29.027 -12.922   4.048  0.00  0.00    +0.182 C 
BRANCH  24  25
ATOM     25  C   LIG    1       28.350 -12.564   5.371  0.00  0.00    +0.399 C 
ATOM     26  F   LIG    1       29.232 -12.023   6.240  0.00  0.00    -0.170 F 
ATOM     27  F   LIG    1       27.840 -13.676   5.952  0.00  0.00    -0.170 F 
ATOM     28  F   LIG    1       27.333 -11.687   5.234  0.00  0.00    -0.170 F 
ENDBRANCH  24  25
ENDBRANCH  23  24
ENDBRANCH  22  23
ENDBRANCH  15  22
TORSDOF 6
ENDMDL
MODEL 4
REMARK VINA RESULT:       4.3      4.126      7.100
REMARK  Name = *****
REMARK                            x       y       z     vdW  Elec       q    Type
REMARK                         _______ _______ _______ _____ _____    ______ ____
ROOT
ATOM      1  C   LIG    1       27.287 -13.956   2.146  0.00  0.00    +0.134 C 
ATOM      2  N   LIG    1       26.148 -14.795   2.579  0.00  0.00    -0.159 NA
ATOM      3  S   LIG    1       26.641 -16.027   3.647  0.00  0.00    +0.064 S 
ATOM      4  O   LIG    1       26.981 -15.411   4.915  0.00  0.00    -0.153 OA
ATOM      5  O   LIG    1       27.592 -16.861   2.943  0.00  0.00    -0.153 OA
ATOM      6  C   LIG    1       25.169 -16.948   3.869  0.00  0.00    +0.128 A 
ATOM      7  C   LIG    1       23.961 -16.280   3.699  0.00  0.00    +0.057 A 
ATOM      8  C   LIG    1       22.790 -17.042   3.816  0.00  0.00    +0.047 A 
ATOM      9  C   LIG    1       22.821 -18.418   4.092  0.00  0.00    +0.069 A 
ATOM     10  C   LIG    1       24.049 -19.060   4.248  0.00  0.00    +0.125 A 
ATOM     11 CL   LIG    1       21.290 -19.216   4.172  0.00  0.00    -0.082 Cl
ATOM     12  N   LIG    1       23.861 -14.975   3.254  0.00  0.00    -0.325 N 
ATOM     13  H   LIG    1       22.992 -14.496   3.489  0.00  0.00    +0.148 HD
ATOM     14  C   LIG    1       25.236 -18.322   4.146  0.00  0.00    +0.060 A 
ATOM     15  C   LIG    1       24.993 -14.063   3.139  0.00  0.00    +0.172 C 
ENDROOT
BRANCH  10  16
ATOM     16  S   LIG    1       24.134 -20.794   4.570  0.00  0.00    +0.057 S 
ATOM     17  O   LIG    1       23.867 -21.517   3.353  0.00  0.00    -0.153 OA
ATOM     18  O   LIG    1       23.420 -21.076   5.796  0.00  0.00    -0.153 OA
BRANCH  16  19
ATOM     19  N   LIG    1       25.750 -21.048   4.950  0.00  0.00    -0.203 NA
ATOM     20  H   LIG    1       25.943 -20.672   5.881  0.00  0.00    +0.144 HD
ATOM     21  H   LIG    1       26.348 -20.660   4.221  0.00  0.00    +0.144 HD
ENDBRANCH  16  19
ENDBRANCH  10  16
BRANCH  15  22
ATOM     22  C   LIG    1       24.531 -12.899   2.208  0.00  0.00    +0.109 C 
BRANCH  22  23
ATOM     23  S   LIG    1       23.854 -11.466   3.158  0.00  0.00    -0.149 S 
BRANCH  23  24
ATOM     24  C   LIG    1       23.862 -12.183   4.856  0.00  0.00    +0.182 C 
BRANCH  24  25
ATOM     25  C   LIG    1       25.201 -12.269   5.589  0.00  0.00    +0.399 C 
ATOM     26  F   LIG    1       26.228 -11.962   4.766  0.00  0.00    -0.170 F 
ATOM     27  F   LIG    1       25.406 -13.528   6.040  0.00  0.00    -0.170 F 
ATOM     28  F   LIG    1       25.282 -11.447   6.657  0.00  0.00    -0.170 F 
ENDBRANCH  24  25
ENDBRANCH  23  24
ENDBRANCH  22  23
ENDBRANCH  15  22
TORSDOF 6
ENDMDL
