MODEL 1
REMARK VINA RESULT:      -4.1      0.000      0.000
REMARK  Name = *****
REMARK                            x       y       z     vdW  Elec       q    Type
REMARK                         _______ _______ _______ _____ _____    ______ ____
ROOT
ATOM      1  C   LIG    1       25.846 -19.199   3.990  0.00  0.00    +0.095 C 
ENDROOT
BRANCH   1   2
ATOM      2  C   LIG    1       26.858 -19.082   5.198  0.00  0.00    +0.033 C 
ATOM      3  C   LIG    1       28.366 -19.311   4.858  0.00  0.00    +0.018 C 
ATOM      4  C   LIG    1       28.579 -20.804   5.123  0.00  0.00    +0.015 C 
ATOM      5  C   LIG    1       28.083 -20.719   6.566  0.00  0.00    +0.012 C 
ATOM      6  C   LIG    1       28.999 -19.626   7.062  0.00  0.00    -0.027 C 
ATOM      7  C   LIG    1       29.173 -18.771   6.025  0.00  0.00    -0.027 C 
ATOM      8  C   LIG    1       26.667 -20.136   6.361  0.00  0.00    +0.015 C 
ENDBRANCH   1   2
BRANCH   1   9
ATOM      9  C   LIG    1       24.491 -19.758   4.477  0.00  0.00    -0.016 A 
ATOM     10  C   LIG    1       23.312 -19.000   4.363  0.00  0.00    +0.006 A 
ATOM     11  C   LIG    1       22.066 -19.521   4.726  0.00  0.00    +0.000 A 
ATOM     12  C   LIG    1       21.973 -20.799   5.263  0.00  0.00    +0.000 A 
ATOM     13  C   LIG    1       23.128 -21.555   5.436  0.00  0.00    +0.000 A 
ATOM     14  C   LIG    1       24.374 -21.047   5.039  0.00  0.00    +0.006 A 
ENDBRANCH   1   9
BRANCH   1  15
ATOM     15  O   LIG    1       26.411 -20.059   2.995  0.00  0.00    -0.384 OA
ATOM     16  H   LIG    1       26.352 -19.595   2.144  0.00  0.00    +0.211 HD
ENDBRANCH   1  15
BRANCH   1  17
ATOM     17  C   LIG    1       25.674 -17.807   3.309  0.00  0.00    +0.055 C 
BRANCH  17  18
ATOM     18  C   LIG    1       26.716 -16.709   3.657  0.00  0.00    +0.087 C 
BRANCH  18  19
ATOM     19  N   LIG    1       26.436 -15.432   2.954  0.00  0.00    -0.302 NA
ATOM     20  C   LIG    1       25.049 -14.962   3.125  0.00  0.00    +0.084 C 
ATOM     21  C   LIG    1       24.745 -14.302   4.475  0.00  0.00    +0.015 C 
ATOM     22  C   LIG    1       25.753 -13.212   4.820  0.00  0.00    +0.002 C 
ATOM     23  C   LIG    1       27.183 -13.702   4.633  0.00  0.00    +0.015 C 
ATOM     24  C   LIG    1       27.375 -14.343   3.259  0.00  0.00    +0.084 C 
ENDBRANCH  18  19
ENDBRANCH  17  18
ENDBRANCH   1  17
TORSDOF 6
ENDMDL
MODEL 2
REMARK VINA RESULT:      -3.2      0.960      2.018
REMARK  Name = *****
REMARK                            x       y       z     vdW  Elec       q    Type
REMARK                         _______ _______ _______ _____ _____    ______ ____
ROOT
ATOM      1  C   LIG    1       26.015 -18.908   3.888  0.00  0.00    +0.095 C 
ENDROOT
BRANCH   1   2
ATOM      2  C   LIG    1       27.072 -19.813   4.639  0.00  0.00    +0.033 C 
ATOM      3  C   LIG    1       26.597 -20.456   5.982  0.00  0.00    +0.018 C 
ATOM      4  C   LIG    1       27.043 -19.451   7.047  0.00  0.00    +0.015 C 
ATOM      5  C   LIG    1       28.507 -19.488   6.610  0.00  0.00    +0.012 C 
ATOM      6  C   LIG    1       28.736 -20.978   6.695  0.00  0.00    -0.027 C 
ATOM      7  C   LIG    1       27.577 -21.567   6.314  0.00  0.00    -0.027 C 
ATOM      8  C   LIG    1       28.385 -19.079   5.125  0.00  0.00    +0.015 C 
ENDBRANCH   1   2
BRANCH   1   9
ATOM      9  C   LIG    1       24.580 -19.381   4.208  0.00  0.00    -0.016 A 
ATOM     10  C   LIG    1       24.310 -20.731   4.496  0.00  0.00    +0.006 A 
ATOM     11  C   LIG    1       23.031 -21.162   4.864  0.00  0.00    +0.000 A 
ATOM     12  C   LIG    1       21.975 -20.260   4.903  0.00  0.00    +0.000 A 
ATOM     13  C   LIG    1       22.199 -18.927   4.574  0.00  0.00    +0.000 A 
ATOM     14  C   LIG    1       23.489 -18.487   4.239  0.00  0.00    +0.006 A 
ENDBRANCH   1   9
BRANCH   1  15
ATOM     15  O   LIG    1       26.262 -18.982   2.480  0.00  0.00    -0.384 OA
ATOM     16  H   LIG    1       27.186 -18.723   2.334  0.00  0.00    +0.211 HD
ENDBRANCH   1  15
BRANCH   1  17
ATOM     17  C   LIG    1       26.223 -17.415   4.284  0.00  0.00    +0.055 C 
BRANCH  17  18
ATOM     18  C   LIG    1       26.131 -16.357   3.152  0.00  0.00    +0.087 C 
BRANCH  18  19
ATOM     19  N   LIG    1       26.528 -15.005   3.618  0.00  0.00    -0.302 NA
ATOM     20  C   LIG    1       26.726 -14.041   2.520  0.00  0.00    +0.084 C 
ATOM     21  C   LIG    1       25.439 -13.469   1.915  0.00  0.00    +0.015 C 
ATOM     22  C   LIG    1       24.498 -12.919   2.981  0.00  0.00    +0.002 C 
ATOM     23  C   LIG    1       24.306 -13.917   4.116  0.00  0.00    +0.015 C 
ATOM     24  C   LIG    1       25.648 -14.424   4.643  0.00  0.00    +0.084 C 
ENDBRANCH  18  19
ENDBRANCH  17  18
ENDBRANCH   1  17
TORSDOF 6
ENDMDL
MODEL 3
REMARK VINA RESULT:      -2.8      1.602      5.850
REMARK  Name = *****
REMARK                            x       y       z     vdW  Elec       q    Type
REMARK                         _______ _______ _______ _____ _____    ______ ____
ROOT
ATOM      1  C   LIG    1       26.365 -17.514   3.715  0.00  0.00    +0.095 C 
ENDROOT
BRANCH   1   2
ATOM      2  C   LIG    1       26.257 -16.026   4.238  0.00  0.00    +0.033 C 
ATOM      3  C   LIG    1       25.197 -15.122   3.530  0.00  0.00    +0.018 C 
ATOM      4  C   LIG    1       25.990 -14.431   2.418  0.00  0.00    +0.015 C 
ATOM      5  C   LIG    1       27.026 -13.852   3.381  0.00  0.00    +0.012 C 
ATOM      6  C   LIG    1       26.089 -13.142   4.329  0.00  0.00    -0.027 C 
ATOM      7  C   LIG    1       24.978 -13.912   4.419  0.00  0.00    -0.027 C 
ATOM      8  C   LIG    1       27.552 -15.137   4.059  0.00  0.00    +0.015 C 
ENDBRANCH   1   2
BRANCH   1   9
ATOM      9  C   LIG    1       27.322 -18.329   4.612  0.00  0.00    -0.016 A 
ATOM     10  C   LIG    1       28.623 -17.871   4.888  0.00  0.00    +0.006 A 
ATOM     11  C   LIG    1       29.475 -18.557   5.760  0.00  0.00    +0.000 A 
ATOM     12  C   LIG    1       29.065 -19.751   6.340  0.00  0.00    +0.000 A 
ATOM     13  C   LIG    1       27.803 -20.258   6.047  0.00  0.00    +0.000 A 
ATOM     14  C   LIG    1       26.935 -19.551   5.200  0.00  0.00    +0.006 A 
ENDBRANCH   1   9
BRANCH   1  15
ATOM     15  O   LIG    1       26.842 -17.496   2.365  0.00  0.00    -0.384 OA
ATOM     16  H   LIG    1       26.491 -18.287   1.924  0.00  0.00    +0.211 HD
ENDBRANCH   1  15
BRANCH   1  17
ATOM     17  C   LIG    1       24.947 -18.159   3.664  0.00  0.00    +0.055 C 
BRANCH  17  18
ATOM     18  C   LIG    1       24.840 -19.603   3.100  0.00  0.00    +0.087 C 
BRANCH  18  19
ATOM     19  N   LIG    1       23.530 -20.226   3.410  0.00  0.00    -0.302 NA
ATOM     20  C   LIG    1       23.647 -21.564   4.019  0.00  0.00    +0.084 C 
ATOM     21  C   LIG    1       24.017 -21.572   5.507  0.00  0.00    +0.015 C 
ATOM     22  C   LIG    1       23.114 -20.658   6.328  0.00  0.00    +0.002 C 
ATOM     23  C   LIG    1       22.991 -19.282   5.687  0.00  0.00    +0.015 C 
ATOM     24  C   LIG    1       22.622 -19.389   4.207  0.00  0.00    +0.084 C 
ENDBRANCH  18  19
ENDBRANCH  17  18
ENDBRANCH   1  17
TORSDOF 6
ENDMDL
MODEL 4
REMARK VINA RESULT:      -2.6      0.982      1.191
REMARK  Name = *****
REMARK                            x       y       z     vdW  Elec       q    Type
REMARK                         _______ _______ _______ _____ _____    ______ ____
ROOT
ATOM      1  C   LIG    1       24.970 -19.047   3.683  0.00  0.00    +0.095 C 
ENDROOT
BRANCH   1   2
ATOM      2  C   LIG    1       25.843 -19.232   4.987  0.00  0.00    +0.033 C 
ATOM      3  C   LIG    1       27.210 -19.968   4.802  0.00  0.00    +0.018 C 
ATOM      4  C   LIG    1       26.879 -21.434   5.092  0.00  0.00    +0.015 C 
ATOM      5  C   LIG    1       26.309 -21.134   6.477  0.00  0.00    +0.012 C 
ATOM      6  C   LIG    1       27.490 -20.395   7.059  0.00  0.00    -0.027 C 
ATOM      7  C   LIG    1       28.038 -19.687   6.043  0.00  0.00    -0.027 C 
ATOM      8  C   LIG    1       25.199 -20.116   6.128  0.00  0.00    +0.015 C 
ENDBRANCH   1   2
BRANCH   1   9
ATOM      9  C   LIG    1       23.488 -19.366   3.981  0.00  0.00    -0.016 A 
ATOM     10  C   LIG    1       22.487 -18.395   3.798  0.00  0.00    +0.006 A 
ATOM     11  C   LIG    1       21.133 -18.690   3.988  0.00  0.00    +0.000 A 
ATOM     12  C   LIG    1       20.747 -19.954   4.415  0.00  0.00    +0.000 A 
ATOM     13  C   LIG    1       21.718 -20.922   4.654  0.00  0.00    +0.000 A 
ATOM     14  C   LIG    1       23.073 -20.637   4.430  0.00  0.00    +0.006 A 
ENDBRANCH   1   9
BRANCH   1  15
ATOM     15  O   LIG    1       25.471 -19.917   2.663  0.00  0.00    -0.384 OA
ATOM     16  H   LIG    1       26.411 -19.706   2.541  0.00  0.00    +0.211 HD
ENDBRANCH   1  15
BRANCH   1  17
ATOM     17  C   LIG    1       25.139 -17.597   3.136  0.00  0.00    +0.055 C 
BRANCH  17  18
ATOM     18  C   LIG    1       26.341 -16.770   3.668  0.00  0.00    +0.087 C 
BRANCH  18  19
ATOM     19  N   LIG    1       26.438 -15.442   3.013  0.00  0.00    -0.302 NA
ATOM     20  C   LIG    1       25.153 -14.721   2.958  0.00  0.00    +0.084 C 
ATOM     21  C   LIG    1       24.722 -14.057   4.272  0.00  0.00    +0.015 C 
ATOM     22  C   LIG    1       25.826 -13.191   4.866  0.00  0.00    +0.002 C 
ATOM     23  C   LIG    1       27.152 -13.939   4.911  0.00  0.00    +0.015 C 
ATOM     24  C   LIG    1       27.484 -14.562   3.555  0.00  0.00    +0.084 C 
ENDBRANCH  18  19
ENDBRANCH  17  18
ENDBRANCH   1  17
TORSDOF 6
ENDMDL
MODEL 5
REMARK VINA RESULT:      -1.8      1.568      5.796
REMARK  Name = *****
REMARK                            x       y       z     vdW  Elec       q    Type
REMARK                         _______ _______ _______ _____ _____    ______ ____
ROOT
ATOM      1  C   LIG    1       26.186 -17.636   3.485  0.00  0.00    +0.095 C 
ENDROOT
BRANCH   1   2
ATOM      2  C   LIG    1       26.693 -16.172   3.171  0.00  0.00    +0.033 C 
ATOM      3  C   LIG    1       27.160 -15.326   4.399  0.00  0.00    +0.018 C 
ATOM      4  C   LIG    1       25.903 -14.556   4.812  0.00  0.00    +0.015 C 
ATOM      5  C   LIG    1       25.712 -13.931   3.431  0.00  0.00    +0.012 C 
ATOM      6  C   LIG    1       27.078 -13.309   3.267  0.00  0.00    -0.027 C 
ATOM      7  C   LIG    1       27.958 -14.155   3.855  0.00  0.00    -0.027 C 
ATOM      8  C   LIG    1       25.622 -15.193   2.543  0.00  0.00    +0.015 C 
ENDBRANCH   1   2
BRANCH   1   9
ATOM      9  C   LIG    1       27.162 -18.346   4.449  0.00  0.00    -0.016 A 
ATOM     10  C   LIG    1       28.428 -17.800   4.730  0.00  0.00    +0.006 A 
ATOM     11  C   LIG    1       29.293 -18.388   5.659  0.00  0.00    +0.000 A 
ATOM     12  C   LIG    1       28.933 -19.569   6.297  0.00  0.00    +0.000 A 
ATOM     13  C   LIG    1       27.709 -20.162   6.003  0.00  0.00    +0.000 A 
ATOM     14  C   LIG    1       26.827 -19.553   5.097  0.00  0.00    +0.006 A 
ENDBRANCH   1   9
BRANCH   1  15
ATOM     15  O   LIG    1       26.084 -18.363   2.257  0.00  0.00    -0.384 OA
ATOM     16  H   LIG    1       25.323 -18.004   1.771  0.00  0.00    +0.211 HD
ENDBRANCH   1  15
BRANCH   1  17
ATOM     17  C   LIG    1       24.745 -17.580   4.076  0.00  0.00    +0.055 C 
BRANCH  17  18
ATOM     18  C   LIG    1       23.786 -18.751   3.728  0.00  0.00    +0.087 C 
BRANCH  18  19
ATOM     19  N   LIG    1       22.690 -18.888   4.720  0.00  0.00    -0.302 NA
ATOM     20  C   LIG    1       21.688 -19.903   4.348  0.00  0.00    +0.084 C 
ATOM     21  C   LIG    1       22.110 -21.356   4.594  0.00  0.00    +0.015 C 
ATOM     22  C   LIG    1       22.628 -21.572   6.011  0.00  0.00    +0.002 C 
ATOM     23  C   LIG    1       23.656 -20.514   6.390  0.00  0.00    +0.015 C 
ATOM     24  C   LIG    1       23.136 -19.106   6.103  0.00  0.00    +0.084 C 
ENDBRANCH  18  19
ENDBRANCH  17  18
ENDBRANCH   1  17
TORSDOF 6
ENDMDL
