MODEL 1
REMARK VINA RESULT:      -6.6      0.000      0.000
REMARK  Name = *****
REMARK                            x       y       z     vdW  Elec       q    Type
REMARK                         _______ _______ _______ _____ _____    ______ ____
ROOT
ATOM      1  C   LIG    1       22.679 -29.169  12.593  0.00  0.00    +0.008 A 
ATOM      2  C   LIG    1       22.797 -30.096  11.438  0.00  0.00    -0.002 A 
ATOM      3  C   LIG    1       24.048 -30.050  10.670  0.00  0.00    +0.004 A 
ATOM      4  C   LIG    1       25.124 -29.282  11.205  0.00  0.00    +0.052 A 
ATOM      5  N   LIG    1       24.973 -28.509  12.313  0.00  0.00    -0.255 NA
ATOM      6  C   LIG    1       23.817 -28.416  12.994  0.00  0.00    +0.050 A 
ENDROOT
BRANCH   2   7
ATOM      7  C   LIG    1       21.630 -31.060  11.032  0.00  0.00    -0.017 A 
ATOM      8  C   LIG    1       20.422 -30.577  10.467  0.00  0.00    +0.011 A 
ATOM      9  C   LIG    1       19.233 -31.339  10.389  0.00  0.00    +0.039 A 
ATOM     10  C   LIG    1       19.220 -32.644  10.834  0.00  0.00    +0.123 A 
ATOM     11  F   LIG    1       18.068 -33.327  10.875  0.00  0.00    -0.205 F 
ATOM     12  C   LIG    1       20.391 -33.214  11.300  0.00  0.00    +0.039 A 
ATOM     13  C   LIG    1       21.582 -32.440  11.374  0.00  0.00    +0.011 A 
ENDBRANCH   2   7
BRANCH   4  14
ATOM     14  C   LIG    1       26.576 -29.152  10.731  0.00  0.00    +0.032 C 
ATOM     15  C   LIG    1       27.675 -28.774  11.710  0.00  0.00    +0.014 C 
ATOM     16  C   LIG    1       26.695 -28.199   9.513  0.00  0.00    +0.014 C 
ENDBRANCH   4  14
BRANCH   6  17
ATOM     17  C   LIG    1       23.917 -27.415  14.168  0.00  0.00    +0.032 C 
ATOM     18  C   LIG    1       23.713 -25.963  13.708  0.00  0.00    +0.014 C 
ATOM     19  C   LIG    1       25.277 -27.472  14.912  0.00  0.00    +0.014 C 
ENDBRANCH   6  17
BRANCH   3  20
ATOM     20  C   LIG    1       24.259 -30.836   9.396  0.00  0.00    +0.008 C 
ATOM     21  C   LIG    1       24.236 -30.397   8.110  0.00  0.00    +0.005 C 
BRANCH  21  22
ATOM     22  C   LIG    1       24.500 -31.248   6.855  0.00  0.00    +0.140 C 
BRANCH  22  23
ATOM     23  O   LIG    1       23.244 -31.634   6.304  0.00  0.00    -0.388 OA
ATOM     24  H   LIG    1       22.778 -30.826   6.027  0.00  0.00    +0.210 HD
ENDBRANCH  22  23
BRANCH  22  25
ATOM     25  C   LIG    1       25.260 -30.485   5.745  0.00  0.00    +0.067 C 
BRANCH  25  26
ATOM     26  C   LIG    1       24.664 -29.139   5.240  0.00  0.00    +0.128 C 
BRANCH  26  27
ATOM     27  O   LIG    1       23.220 -29.241   5.305  0.00  0.00    -0.391 OA
ATOM     28  H   LIG    1       23.004 -29.621   6.181  0.00  0.00    +0.210 HD
ENDBRANCH  26  27
BRANCH  26  29
ATOM     29  C   LIG    1       25.115 -27.921   6.095  0.00  0.00    +0.151 C 
BRANCH  29  30
ATOM     30  C   LIG    1       24.944 -26.542   5.415  0.00  0.00    +0.307 C 
ATOM     31  O   LIG    1       25.874 -25.893   5.018  0.00  0.00    -0.251 OA
BRANCH  30  32
ATOM     32  O   LIG    1       23.645 -26.085   5.421  0.00  0.00    -0.481 OA
ATOM     33  H   LIG    1       23.411 -25.496   6.112  0.00  0.00    +0.295 HD
ENDBRANCH  30  32
ENDBRANCH  29  30
ENDBRANCH  26  29
ENDBRANCH  25  26
ENDBRANCH  22  25
ENDBRANCH  21  22
ENDBRANCH   3  20
BRANCH   1  34
ATOM     34  C   LIG    1       21.388 -28.920  13.385  0.00  0.00    +0.197 C 
BRANCH  34  36
ATOM     35  C   LIG    1       19.862 -27.203  14.027  0.00  0.00    +0.194 C 
ATOM     36  O   LIG    1       20.594 -27.800  12.976  0.00  0.00    -0.378 OA
ENDBRANCH  34  36
ENDBRANCH   1  34
TORSDOF 14
ENDMDL
MODEL 2
REMARK VINA RESULT:      -6.6      1.007      1.379
REMARK  Name = *****
REMARK                            x       y       z     vdW  Elec       q    Type
REMARK                         _______ _______ _______ _____ _____    ______ ____
ROOT
ATOM      1  C   LIG    1       22.572 -29.642  12.424  0.00  0.00    +0.008 A 
ATOM      2  C   LIG    1       22.670 -30.227  11.063  0.00  0.00    -0.002 A 
ATOM      3  C   LIG    1       23.873 -29.906  10.284  0.00  0.00    +0.004 A 
ATOM      4  C   LIG    1       24.940 -29.242  10.958  0.00  0.00    +0.052 A 
ATOM      5  N   LIG    1       24.813 -28.795  12.236  0.00  0.00    -0.255 NA
ATOM      6  C   LIG    1       23.693 -28.952  12.964  0.00  0.00    +0.050 A 
ENDROOT
BRANCH   2   7
ATOM      7  C   LIG    1       21.529 -31.120  10.465  0.00  0.00    -0.017 A 
ATOM      8  C   LIG    1       20.180 -30.685  10.426  0.00  0.00    +0.011 A 
ATOM      9  C   LIG    1       19.083 -31.551  10.211  0.00  0.00    +0.039 A 
ATOM     10  C   LIG    1       19.299 -32.892   9.974  0.00  0.00    +0.123 A 
ATOM     11  F   LIG    1       18.260 -33.734   9.893  0.00  0.00    -0.205 F 
ATOM     12  C   LIG    1       20.596 -33.366   9.893  0.00  0.00    +0.039 A 
ATOM     13  C   LIG    1       21.693 -32.488  10.110  0.00  0.00    +0.011 A 
ENDBRANCH   2   7
BRANCH   4  14
ATOM     14  C   LIG    1       26.356 -28.905  10.477  0.00  0.00    +0.032 C 
ATOM     15  C   LIG    1       27.386 -30.005  10.286  0.00  0.00    +0.014 C 
ATOM     16  C   LIG    1       27.010 -27.806  11.353  0.00  0.00    +0.014 C 
ENDBRANCH   4  14
BRANCH   6  17
ATOM     17  C   LIG    1       23.810 -28.288  14.355  0.00  0.00    +0.032 C 
ATOM     18  C   LIG    1       23.461 -26.792  14.312  0.00  0.00    +0.014 C 
ATOM     19  C   LIG    1       25.225 -28.410  14.979  0.00  0.00    +0.014 C 
ENDBRANCH   6  17
BRANCH   3  20
ATOM     20  C   LIG    1       24.051 -30.319   8.841  0.00  0.00    +0.008 C 
ATOM     21  C   LIG    1       24.284 -29.537   7.753  0.00  0.00    +0.005 C 
BRANCH  21  22
ATOM     22  C   LIG    1       24.496 -30.028   6.310  0.00  0.00    +0.140 C 
BRANCH  22  23
ATOM     23  O   LIG    1       23.237 -30.445   5.790  0.00  0.00    -0.388 OA
ATOM     24  H   LIG    1       22.633 -29.682   5.820  0.00  0.00    +0.210 HD
ENDBRANCH  22  23
BRANCH  22  25
ATOM     25  C   LIG    1       25.031 -28.931   5.360  0.00  0.00    +0.067 C 
BRANCH  25  26
ATOM     26  C   LIG    1       25.511 -27.589   5.986  0.00  0.00    +0.128 C 
BRANCH  26  27
ATOM     27  O   LIG    1       26.816 -27.285   5.435  0.00  0.00    -0.391 OA
ATOM     28  H   LIG    1       27.340 -28.110   5.478  0.00  0.00    +0.210 HD
ENDBRANCH  26  27
BRANCH  26  29
ATOM     29  C   LIG    1       24.553 -26.403   5.678  0.00  0.00    +0.151 C 
BRANCH  29  30
ATOM     30  C   LIG    1       25.235 -25.019   5.573  0.00  0.00    +0.307 C 
ATOM     31  O   LIG    1       25.927 -24.567   6.445  0.00  0.00    -0.251 OA
BRANCH  30  32
ATOM     32  O   LIG    1       24.875 -24.315   4.445  0.00  0.00    -0.481 OA
ATOM     33  H   LIG    1       25.570 -24.068   3.866  0.00  0.00    +0.295 HD
ENDBRANCH  30  32
ENDBRANCH  29  30
ENDBRANCH  26  29
ENDBRANCH  25  26
ENDBRANCH  22  25
ENDBRANCH  21  22
ENDBRANCH   3  20
BRANCH   1  34
ATOM     34  C   LIG    1       21.316 -29.686  13.306  0.00  0.00    +0.197 C 
BRANCH  34  36
ATOM     35  C   LIG    1       19.743 -28.297  14.441  0.00  0.00    +0.194 C 
ATOM     36  O   LIG    1       20.451 -28.546  13.244  0.00  0.00    -0.378 OA
ENDBRANCH  34  36
ENDBRANCH   1  34
TORSDOF 14
ENDMDL
MODEL 3
REMARK VINA RESULT:      -6.5      3.328      5.636
REMARK  Name = *****
REMARK                            x       y       z     vdW  Elec       q    Type
REMARK                         _______ _______ _______ _____ _____    ______ ____
ROOT
ATOM      1  C   LIG    1       25.006 -32.083   9.876  0.00  0.00    +0.008 A 
ATOM      2  C   LIG    1       25.615 -31.111   8.934  0.00  0.00    -0.002 A 
ATOM      3  C   LIG    1       25.790 -29.734   9.417  0.00  0.00    +0.004 A 
ATOM      4  C   LIG    1       25.561 -29.485  10.802  0.00  0.00    +0.052 A 
ATOM      5  N   LIG    1       25.071 -30.444  11.632  0.00  0.00    -0.255 NA
ATOM      6  C   LIG    1       24.778 -31.691  11.224  0.00  0.00    +0.050 A 
ENDROOT
BRANCH   2   7
ATOM      7  C   LIG    1       26.026 -31.519   7.478  0.00  0.00    -0.017 A 
ATOM      8  C   LIG    1       25.178 -31.282   6.366  0.00  0.00    +0.011 A 
ATOM      9  C   LIG    1       25.340 -31.908   5.108  0.00  0.00    +0.039 A 
ATOM     10  C   LIG    1       26.398 -32.767   4.897  0.00  0.00    +0.123 A 
ATOM     11  F   LIG    1       26.484 -33.455   3.750  0.00  0.00    -0.205 F 
ATOM     12  C   LIG    1       27.325 -32.963   5.905  0.00  0.00    +0.039 A 
ATOM     13  C   LIG    1       27.154 -32.328   7.166  0.00  0.00    +0.011 A 
ENDBRANCH   2   7
BRANCH   4  14
ATOM     14  C   LIG    1       25.794 -28.216  11.630  0.00  0.00    +0.032 C 
ATOM     15  C   LIG    1       27.174 -27.897  12.179  0.00  0.00    +0.014 C 
ATOM     16  C   LIG    1       24.792 -28.112  12.809  0.00  0.00    +0.014 C 
ENDBRANCH   4  14
BRANCH   6  17
ATOM     17  C   LIG    1       24.175 -32.545  12.364  0.00  0.00    +0.032 C 
ATOM     18  C   LIG    1       22.705 -32.191  12.635  0.00  0.00    +0.014 C 
ATOM     19  C   LIG    1       24.936 -32.404  13.708  0.00  0.00    +0.014 C 
ENDBRANCH   6  17
BRANCH   3  20
ATOM     20  C   LIG    1       26.272 -28.608   8.531  0.00  0.00    +0.008 C 
ATOM     21  C   LIG    1       25.580 -27.902   7.597  0.00  0.00    +0.005 C 
BRANCH  21  22
ATOM     22  C   LIG    1       26.124 -26.735   6.754  0.00  0.00    +0.140 C 
BRANCH  22  23
ATOM     23  O   LIG    1       26.849 -27.278   5.655  0.00  0.00    -0.388 OA
ATOM     24  H   LIG    1       26.445 -28.133   5.422  0.00  0.00    +0.210 HD
ENDBRANCH  22  23
BRANCH  22  25
ATOM     25  C   LIG    1       25.013 -25.839   6.158  0.00  0.00    +0.067 C 
BRANCH  25  26
ATOM     26  C   LIG    1       25.310 -24.321   5.985  0.00  0.00    +0.128 C 
BRANCH  26  27
ATOM     27  O   LIG    1       24.830 -23.921   4.679  0.00  0.00    -0.391 OA
ATOM     28  H   LIG    1       24.313 -24.673   4.325  0.00  0.00    +0.210 HD
ENDBRANCH  26  27
BRANCH  26  29
ATOM     29  C   LIG    1       24.609 -23.443   7.061  0.00  0.00    +0.151 C 
BRANCH  29  30
ATOM     30  C   LIG    1       23.233 -22.868   6.646  0.00  0.00    +0.307 C 
ATOM     31  O   LIG    1       23.057 -21.701   6.423  0.00  0.00    -0.251 OA
BRANCH  30  32
ATOM     32  O   LIG    1       22.219 -23.799   6.676  0.00  0.00    -0.481 OA
ATOM     33  H   LIG    1       22.478 -24.700   6.678  0.00  0.00    +0.295 HD
ENDBRANCH  30  32
ENDBRANCH  29  30
ENDBRANCH  26  29
ENDBRANCH  25  26
ENDBRANCH  22  25
ENDBRANCH  21  22
ENDBRANCH   3  20
BRANCH   1  34
ATOM     34  C   LIG    1       24.554 -33.501   9.497  0.00  0.00    +0.197 C 
BRANCH  34  36
ATOM     35  C   LIG    1       22.231 -33.228   9.029  0.00  0.00    +0.194 C 
ATOM     36  O   LIG    1       23.500 -33.598   8.531  0.00  0.00    -0.378 OA
ENDBRANCH  34  36
ENDBRANCH   1  34
TORSDOF 14
ENDMDL
MODEL 4
REMARK VINA RESULT:      -6.2      2.986      5.751
REMARK  Name = *****
REMARK                            x       y       z     vdW  Elec       q    Type
REMARK                         _______ _______ _______ _____ _____    ______ ____
ROOT
ATOM      1  C   LIG    1       19.493 -29.794  13.874  0.00  0.00    +0.008 A 
ATOM      2  C   LIG    1       20.627 -29.570  12.941  0.00  0.00    -0.002 A 
ATOM      3  C   LIG    1       20.600 -30.304  11.668  0.00  0.00    +0.004 A 
ATOM      4  C   LIG    1       19.403 -31.004  11.335  0.00  0.00    +0.052 A 
ATOM      5  N   LIG    1       18.366 -31.110  12.208  0.00  0.00    -0.255 NA
ATOM      6  C   LIG    1       18.377 -30.560  13.435  0.00  0.00    +0.050 A 
ENDROOT
BRANCH   2   7
ATOM      7  C   LIG    1       21.819 -28.619  13.305  0.00  0.00    -0.017 A 
ATOM      8  C   LIG    1       21.702 -27.208  13.225  0.00  0.00    +0.011 A 
ATOM      9  C   LIG    1       22.810 -26.329  13.219  0.00  0.00    +0.039 A 
ATOM     10  C   LIG    1       24.089 -26.830  13.343  0.00  0.00    +0.123 A 
ATOM     11  F   LIG    1       25.144 -26.014  13.214  0.00  0.00    -0.205 F 
ATOM     12  C   LIG    1       24.270 -28.189  13.531  0.00  0.00    +0.039 A 
ATOM     13  C   LIG    1       23.150 -29.065  13.537  0.00  0.00    +0.011 A 
ENDBRANCH   2   7
BRANCH   4  14
ATOM     14  C   LIG    1       19.010 -31.729  10.043  0.00  0.00    +0.032 C 
ATOM     15  C   LIG    1       17.691 -31.420   9.356  0.00  0.00    +0.014 C 
ATOM     16  C   LIG    1       19.096 -33.269  10.205  0.00  0.00    +0.014 C 
ENDBRANCH   4  14
BRANCH   6  17
ATOM     17  C   LIG    1       17.096 -30.898  14.232  0.00  0.00    +0.032 C 
ATOM     18  C   LIG    1       16.919 -32.413  14.425  0.00  0.00    +0.014 C 
ATOM     19  C   LIG    1       15.800 -30.366  13.567  0.00  0.00    +0.014 C 
ENDBRANCH   6  17
BRANCH   3  20
ATOM     20  C   LIG    1       21.744 -30.278  10.681  0.00  0.00    +0.008 C 
ATOM     21  C   LIG    1       22.735 -31.192  10.502  0.00  0.00    +0.005 C 
BRANCH  21  22
ATOM     22  C   LIG    1       23.852 -31.123   9.446  0.00  0.00    +0.140 C 
BRANCH  22  23
ATOM     23  O   LIG    1       23.259 -31.259   8.158  0.00  0.00    -0.388 OA
ATOM     24  H   LIG    1       23.622 -30.560   7.586  0.00  0.00    +0.210 HD
ENDBRANCH  22  23
BRANCH  22  25
ATOM     25  C   LIG    1       24.616 -29.778   9.447  0.00  0.00    +0.067 C 
BRANCH  25  26
ATOM     26  C   LIG    1       25.455 -29.410   8.189  0.00  0.00    +0.128 C 
BRANCH  26  27
ATOM     27  O   LIG    1       25.803 -30.642   7.512  0.00  0.00    -0.391 OA
ATOM     28  H   LIG    1       25.007 -31.212   7.535  0.00  0.00    +0.210 HD
ENDBRANCH  26  27
BRANCH  26  29
ATOM     29  C   LIG    1       24.683 -28.498   7.194  0.00  0.00    +0.151 C 
BRANCH  29  30
ATOM     30  C   LIG    1       24.468 -29.098   5.784  0.00  0.00    +0.307 C 
ATOM     31  O   LIG    1       25.219 -28.894   4.869  0.00  0.00    -0.251 OA
BRANCH  30  32
ATOM     32  O   LIG    1       23.279 -29.781   5.655  0.00  0.00    -0.481 OA
ATOM     33  H   LIG    1       23.012 -29.996   4.782  0.00  0.00    +0.295 HD
ENDBRANCH  30  32
ENDBRANCH  29  30
ENDBRANCH  26  29
ENDBRANCH  25  26
ENDBRANCH  22  25
ENDBRANCH  21  22
ENDBRANCH   3  20
BRANCH   1  34
ATOM     34  C   LIG    1       19.440 -29.288  15.322  0.00  0.00    +0.197 C 
BRANCH  34  36
ATOM     35  C   LIG    1       18.112 -27.342  14.951  0.00  0.00    +0.194 C 
ATOM     36  O   LIG    1       19.300 -27.873  15.500  0.00  0.00    -0.378 OA
ENDBRANCH  34  36
ENDBRANCH   1  34
TORSDOF 14
ENDMDL
MODEL 5
REMARK VINA RESULT:      -5.8      2.853      7.308
REMARK  Name = *****
REMARK                            x       y       z     vdW  Elec       q    Type
REMARK                         _______ _______ _______ _____ _____    ______ ____
ROOT
ATOM      1  C   LIG    1       23.959 -29.860  11.802  0.00  0.00    +0.008 A 
ATOM      2  C   LIG    1       22.616 -29.543  12.348  0.00  0.00    -0.002 A 
ATOM      3  C   LIG    1       22.506 -28.353  13.204  0.00  0.00    +0.004 A 
ATOM      4  C   LIG    1       23.635 -27.485  13.276  0.00  0.00    +0.052 A 
ATOM      5  N   LIG    1       24.820 -27.798  12.689  0.00  0.00    -0.255 NA
ATOM      6  C   LIG    1       25.020 -28.930  11.991  0.00  0.00    +0.050 A 
ENDROOT
BRANCH   2   7
ATOM      7  C   LIG    1       21.371 -30.449  12.056  0.00  0.00    -0.017 A 
ATOM      8  C   LIG    1       20.733 -30.459  10.789  0.00  0.00    +0.011 A 
ATOM      9  C   LIG    1       19.441 -30.988  10.566  0.00  0.00    +0.039 A 
ATOM     10  C   LIG    1       18.750 -31.581  11.603  0.00  0.00    +0.123 A 
ATOM     11  F   LIG    1       17.481 -31.972  11.425  0.00  0.00    -0.205 F 
ATOM     12  C   LIG    1       19.356 -31.701  12.840  0.00  0.00    +0.039 A 
ATOM     13  C   LIG    1       20.656 -31.166  13.055  0.00  0.00    +0.011 A 
ENDBRANCH   2   7
BRANCH   4  14
ATOM     14  C   LIG    1       23.787 -26.116  13.949  0.00  0.00    +0.032 C 
ATOM     15  C   LIG    1       24.967 -25.220  13.614  0.00  0.00    +0.014 C 
ATOM     16  C   LIG    1       23.717 -26.228  15.494  0.00  0.00    +0.014 C 
ENDBRANCH   4  14
BRANCH   6  17
ATOM     17  C   LIG    1       26.480 -29.053  11.495  0.00  0.00    +0.032 C 
ATOM     18  C   LIG    1       27.455 -28.244  12.364  0.00  0.00    +0.014 C 
ATOM     19  C   LIG    1       26.674 -28.584  10.030  0.00  0.00    +0.014 C 
ENDBRANCH   6  17
BRANCH   3  20
ATOM     20  C   LIG    1       21.236 -27.981  13.935  0.00  0.00    +0.008 C 
ATOM     21  C   LIG    1       20.307 -27.044  13.606  0.00  0.00    +0.005 C 
BRANCH  21  22
ATOM     22  C   LIG    1       19.010 -26.743  14.377  0.00  0.00    +0.140 C 
BRANCH  22  23
ATOM     23  O   LIG    1       18.329 -25.684  13.711  0.00  0.00    -0.388 OA
ATOM     24  H   LIG    1       18.790 -25.515  12.870  0.00  0.00    +0.210 HD
ENDBRANCH  22  23
BRANCH  22  25
ATOM     25  C   LIG    1       18.033 -27.941  14.427  0.00  0.00    +0.067 C 
BRANCH  25  26
ATOM     26  C   LIG    1       16.547 -27.662  14.797  0.00  0.00    +0.128 C 
BRANCH  26  27
ATOM     27  O   LIG    1       15.902 -27.085  13.636  0.00  0.00    -0.391 OA
ATOM     28  H   LIG    1       15.677 -27.829  13.040  0.00  0.00    +0.210 HD
ENDBRANCH  26  27
BRANCH  26  29
ATOM     29  C   LIG    1       15.775 -28.949  15.207  0.00  0.00    +0.151 C 
BRANCH  29  30
ATOM     30  C   LIG    1       15.909 -30.135  14.223  0.00  0.00    +0.307 C 
ATOM     31  O   LIG    1       16.203 -31.245  14.578  0.00  0.00    -0.251 OA
BRANCH  30  32
ATOM     32  O   LIG    1       15.777 -29.769  12.902  0.00  0.00    -0.481 OA
ATOM     33  H   LIG    1       15.401 -28.926  12.737  0.00  0.00    +0.295 HD
ENDBRANCH  30  32
ENDBRANCH  29  30
ENDBRANCH  26  29
ENDBRANCH  25  26
ENDBRANCH  22  25
ENDBRANCH  21  22
ENDBRANCH   3  20
BRANCH   1  34
ATOM     34  C   LIG    1       24.320 -31.158  11.067  0.00  0.00    +0.197 C 
BRANCH  34  36
ATOM     35  C   LIG    1       24.713 -32.148   8.932  0.00  0.00    +0.194 C 
ATOM     36  O   LIG    1       23.940 -31.238   9.688  0.00  0.00    -0.378 OA
ENDBRANCH  34  36
ENDBRANCH   1  34
TORSDOF 14
ENDMDL
MODEL 6
REMARK VINA RESULT:      -5.7      3.843      8.422
REMARK  Name = *****
REMARK                            x       y       z     vdW  Elec       q    Type
REMARK                         _______ _______ _______ _____ _____    ______ ____
ROOT
ATOM      1  C   LIG    1       25.645 -29.570  10.501  0.00  0.00    +0.008 A 
ATOM      2  C   LIG    1       24.915 -29.135  11.719  0.00  0.00    -0.002 A 
ATOM      3  C   LIG    1       23.474 -29.419  11.770  0.00  0.00    +0.004 A 
ATOM      4  C   LIG    1       22.931 -30.265  10.759  0.00  0.00    +0.052 A 
ATOM      5  N   LIG    1       23.675 -30.692   9.705  0.00  0.00    -0.255 NA
ATOM      6  C   LIG    1       24.969 -30.369   9.537  0.00  0.00    +0.050 A 
ENDROOT
BRANCH   2   7
ATOM      7  C   LIG    1       25.636 -28.378  12.886  0.00  0.00    -0.017 A 
ATOM      8  C   LIG    1       26.050 -27.028  12.760  0.00  0.00    +0.011 A 
ATOM      9  C   LIG    1       26.976 -26.406  13.630  0.00  0.00    +0.039 A 
ATOM     10  C   LIG    1       27.491 -27.106  14.701  0.00  0.00    +0.123 A 
ATOM     11  F   LIG    1       28.458 -26.563  15.453  0.00  0.00    -0.205 F 
ATOM     12  C   LIG    1       27.050 -28.394  14.946  0.00  0.00    +0.039 A 
ATOM     13  C   LIG    1       26.118 -29.010  14.066  0.00  0.00    +0.011 A 
ENDBRANCH   2   7
BRANCH   4  14
ATOM     14  C   LIG    1       21.524 -30.857  10.618  0.00  0.00    +0.032 C 
ATOM     15  C   LIG    1       20.625 -31.005  11.834  0.00  0.00    +0.014 C 
ATOM     16  C   LIG    1       21.553 -32.229   9.896  0.00  0.00    +0.014 C 
ENDBRANCH   4  14
BRANCH   6  17
ATOM     17  C   LIG    1       25.541 -30.939   8.218  0.00  0.00    +0.032 C 
ATOM     18  C   LIG    1       25.056 -30.152   6.991  0.00  0.00    +0.014 C 
ATOM     19  C   LIG    1       25.177 -32.428   7.982  0.00  0.00    +0.014 C 
ENDBRANCH   6  17
BRANCH   3  20
ATOM     20  C   LIG    1       22.579 -28.921  12.882  0.00  0.00    +0.008 C 
ATOM     21  C   LIG    1       21.979 -27.708  13.014  0.00  0.00    +0.005 C 
BRANCH  21  22
ATOM     22  C   LIG    1       21.043 -27.278  14.157  0.00  0.00    +0.140 C 
BRANCH  22  23
ATOM     23  O   LIG    1       21.694 -26.260  14.910  0.00  0.00    -0.388 OA
ATOM     24  H   LIG    1       22.510 -26.015  14.439  0.00  0.00    +0.210 HD
ENDBRANCH  22  23
BRANCH  22  25
ATOM     25  C   LIG    1       19.704 -26.682  13.662  0.00  0.00    +0.067 C 
BRANCH  25  26
ATOM     26  C   LIG    1       18.582 -26.428  14.711  0.00  0.00    +0.128 C 
BRANCH  26  27
ATOM     27  O   LIG    1       17.559 -25.621  14.079  0.00  0.00    -0.391 OA
ATOM     28  H   LIG    1       16.807 -25.578  14.704  0.00  0.00    +0.210 HD
ENDBRANCH  26  27
BRANCH  26  29
ATOM     29  C   LIG    1       17.929 -27.743  15.226  0.00  0.00    +0.151 C 
BRANCH  29  30
ATOM     30  C   LIG    1       16.984 -28.444  14.221  0.00  0.00    +0.307 C 
ATOM     31  O   LIG    1       15.828 -28.140  14.096  0.00  0.00    -0.251 OA
BRANCH  30  32
ATOM     32  O   LIG    1       17.562 -29.518  13.582  0.00  0.00    -0.481 OA
ATOM     33  H   LIG    1       17.025 -30.277  13.470  0.00  0.00    +0.295 HD
ENDBRANCH  30  32
ENDBRANCH  29  30
ENDBRANCH  26  29
ENDBRANCH  25  26
ENDBRANCH  22  25
ENDBRANCH  21  22
ENDBRANCH   3  20
BRANCH   1  34
ATOM     34  C   LIG    1       27.094 -29.188  10.168  0.00  0.00    +0.197 C 
BRANCH  34  36
ATOM     35  C   LIG    1       28.858 -29.470  11.749  0.00  0.00    +0.194 C 
ATOM     36  O   LIG    1       28.117 -30.043  10.691  0.00  0.00    -0.378 OA
ENDBRANCH  34  36
ENDBRANCH   1  34
TORSDOF 14
ENDMDL
MODEL 7
REMARK VINA RESULT:      -5.5      2.191      2.590
REMARK  Name = *****
REMARK                            x       y       z     vdW  Elec       q    Type
REMARK                         _______ _______ _______ _____ _____    ______ ____
ROOT
ATOM      1  C   LIG    1       22.526 -28.459  12.864  0.00  0.00    +0.008 A 
ATOM      2  C   LIG    1       22.729 -29.684  12.050  0.00  0.00    -0.002 A 
ATOM      3  C   LIG    1       24.048 -29.860  11.427  0.00  0.00    +0.004 A 
ATOM      4  C   LIG    1       25.087 -28.963  11.813  0.00  0.00    +0.052 A 
ATOM      5  N   LIG    1       24.850 -27.898  12.625  0.00  0.00    -0.255 NA
ATOM      6  C   LIG    1       23.639 -27.614  13.133  0.00  0.00    +0.050 A 
ENDROOT
BRANCH   2   7
ATOM      7  C   LIG    1       21.584 -30.732  11.835  0.00  0.00    -0.017 A 
ATOM      8  C   LIG    1       20.681 -30.641  10.745  0.00  0.00    +0.011 A 
ATOM      9  C   LIG    1       19.455 -31.342  10.682  0.00  0.00    +0.039 A 
ATOM     10  C   LIG    1       19.103 -32.210  11.695  0.00  0.00    +0.123 A 
ATOM     11  F   LIG    1       17.891 -32.780  11.699  0.00  0.00    -0.205 F 
ATOM     12  C   LIG    1       19.985 -32.427  12.739  0.00  0.00    +0.039 A 
ATOM     13  C   LIG    1       21.217 -31.718  12.794  0.00  0.00    +0.011 A 
ENDBRANCH   2   7
BRANCH   4  14
ATOM     14  C   LIG    1       26.580 -28.970  11.464  0.00  0.00    +0.032 C 
ATOM     15  C   LIG    1       27.605 -28.450  12.457  0.00  0.00    +0.014 C 
ATOM     16  C   LIG    1       26.852 -28.268  10.109  0.00  0.00    +0.014 C 
ENDBRANCH   4  14
BRANCH   6  17
ATOM     17  C   LIG    1       23.651 -26.310  13.965  0.00  0.00    +0.032 C 
ATOM     18  C   LIG    1       24.848 -25.413  13.612  0.00  0.00    +0.014 C 
ATOM     19  C   LIG    1       23.698 -26.557  15.495  0.00  0.00    +0.014 C 
ENDBRANCH   6  17
BRANCH   3  20
ATOM     20  C   LIG    1       24.359 -30.986  10.467  0.00  0.00    +0.008 C 
ATOM     21  C   LIG    1       24.136 -31.051   9.128  0.00  0.00    +0.005 C 
BRANCH  21  22
ATOM     22  C   LIG    1       24.516 -32.218   8.200  0.00  0.00    +0.140 C 
BRANCH  22  23
ATOM     23  O   LIG    1       25.039 -33.274   9.000  0.00  0.00    -0.388 OA
ATOM     24  H   LIG    1       24.974 -34.099   8.487  0.00  0.00    +0.210 HD
ENDBRANCH  22  23
BRANCH  22  25
ATOM     25  C   LIG    1       23.312 -32.801   7.422  0.00  0.00    +0.067 C 
BRANCH  25  26
ATOM     26  C   LIG    1       23.299 -32.653   5.872  0.00  0.00    +0.128 C 
BRANCH  26  27
ATOM     27  O   LIG    1       23.374 -31.241   5.561  0.00  0.00    -0.391 OA
ATOM     28  H   LIG    1       22.975 -30.764   6.317  0.00  0.00    +0.210 HD
ENDBRANCH  26  27
BRANCH  26  29
ATOM     29  C   LIG    1       24.494 -33.376   5.188  0.00  0.00    +0.151 C 
BRANCH  29  30
ATOM     30  C   LIG    1       25.525 -32.442   4.510  0.00  0.00    +0.307 C 
ATOM     31  O   LIG    1       26.388 -31.873   5.122  0.00  0.00    -0.251 OA
BRANCH  30  32
ATOM     32  O   LIG    1       25.280 -32.237   3.170  0.00  0.00    -0.481 OA
ATOM     33  H   LIG    1       24.944 -31.395   2.931  0.00  0.00    +0.295 HD
ENDBRANCH  30  32
ENDBRANCH  29  30
ENDBRANCH  26  29
ENDBRANCH  25  26
ENDBRANCH  22  25
ENDBRANCH  21  22
ENDBRANCH   3  20
BRANCH   1  34
ATOM     34  C   LIG    1       21.172 -27.994  13.419  0.00  0.00    +0.197 C 
BRANCH  34  36
ATOM     35  C   LIG    1       19.680 -26.154  13.140  0.00  0.00    +0.194 C 
ATOM     36  O   LIG    1       20.340 -27.243  12.527  0.00  0.00    -0.378 OA
ENDBRANCH  34  36
ENDBRANCH   1  34
TORSDOF 14
ENDMDL
MODEL 8
REMARK VINA RESULT:      -5.5      3.703      5.895
REMARK  Name = *****
REMARK                            x       y       z     vdW  Elec       q    Type
REMARK                         _______ _______ _______ _____ _____    ______ ____
ROOT
ATOM      1  C   LIG    1       25.356 -30.625  12.189  0.00  0.00    +0.008 A 
ATOM      2  C   LIG    1       25.604 -29.383  11.414  0.00  0.00    -0.002 A 
ATOM      3  C   LIG    1       25.904 -29.537   9.984  0.00  0.00    +0.004 A 
ATOM      4  C   LIG    1       25.730 -30.829   9.408  0.00  0.00    +0.052 A 
ATOM      5  N   LIG    1       25.428 -31.918  10.164  0.00  0.00    -0.255 NA
ATOM      6  C   LIG    1       25.258 -31.864  11.497  0.00  0.00    +0.050 A 
ENDROOT
BRANCH   2   7
ATOM      7  C   LIG    1       25.581 -27.970  12.092  0.00  0.00    -0.017 A 
ATOM      8  C   LIG    1       26.752 -27.180  12.217  0.00  0.00    +0.011 A 
ATOM      9  C   LIG    1       26.862 -26.073  13.090  0.00  0.00    +0.039 A 
ATOM     10  C   LIG    1       25.775 -25.678  13.842  0.00  0.00    +0.123 A 
ATOM     11  F   LIG    1       25.911 -24.709  14.758  0.00  0.00    -0.205 F 
ATOM     12  C   LIG    1       24.569 -26.338  13.691  0.00  0.00    +0.039 A 
ATOM     13  C   LIG    1       24.468 -27.450  12.810  0.00  0.00    +0.011 A 
ENDBRANCH   2   7
BRANCH   4  14
ATOM     14  C   LIG    1       25.816 -31.278   7.945  0.00  0.00    +0.032 C 
ATOM     15  C   LIG    1       24.558 -31.405   7.103  0.00  0.00    +0.014 C 
ATOM     16  C   LIG    1       26.603 -32.607   7.801  0.00  0.00    +0.014 C 
ENDBRANCH   4  14
BRANCH   6  17
ATOM     17  C   LIG    1       24.989 -33.262  12.102  0.00  0.00    +0.032 C 
ATOM     18  C   LIG    1       23.514 -33.450  12.490  0.00  0.00    +0.014 C 
ATOM     19  C   LIG    1       25.837 -33.558  13.366  0.00  0.00    +0.014 C 
ENDBRANCH   6  17
BRANCH   3  20
ATOM     20  C   LIG    1       26.306 -28.378   9.100  0.00  0.00    +0.008 C 
ATOM     21  C   LIG    1       25.786 -28.000   7.902  0.00  0.00    +0.005 C 
BRANCH  21  22
ATOM     22  C   LIG    1       26.218 -26.780   7.070  0.00  0.00    +0.140 C 
BRANCH  22  23
ATOM     23  O   LIG    1       27.001 -27.241   5.973  0.00  0.00    -0.388 OA
ATOM     24  H   LIG    1       27.754 -26.632   5.865  0.00  0.00    +0.210 HD
ENDBRANCH  22  23
BRANCH  22  25
ATOM     25  C   LIG    1       25.029 -25.993   6.471  0.00  0.00    +0.067 C 
BRANCH  25  26
ATOM     26  C   LIG    1       25.265 -24.512   6.053  0.00  0.00    +0.128 C 
BRANCH  26  27
ATOM     27  O   LIG    1       24.690 -24.325   4.737  0.00  0.00    -0.391 OA
ATOM     28  H   LIG    1       23.725 -24.221   4.863  0.00  0.00    +0.210 HD
ENDBRANCH  26  27
BRANCH  26  29
ATOM     29  C   LIG    1       24.605 -23.498   7.031  0.00  0.00    +0.151 C 
BRANCH  29  30
ATOM     30  C   LIG    1       23.250 -22.918   6.560  0.00  0.00    +0.307 C 
ATOM     31  O   LIG    1       23.116 -21.773   6.222  0.00  0.00    -0.251 OA
BRANCH  30  32
ATOM     32  O   LIG    1       22.203 -23.803   6.683  0.00  0.00    -0.481 OA
ATOM     33  H   LIG    1       22.157 -24.488   6.045  0.00  0.00    +0.295 HD
ENDBRANCH  30  32
ENDBRANCH  29  30
ENDBRANCH  26  29
ENDBRANCH  25  26
ENDBRANCH  22  25
ENDBRANCH  21  22
ENDBRANCH   3  20
BRANCH   1  34
ATOM     34  C   LIG    1       25.233 -30.691  13.718  0.00  0.00    +0.197 C 
BRANCH  34  36
ATOM     35  C   LIG    1       27.560 -30.472  14.196  0.00  0.00    +0.194 C 
ATOM     36  O   LIG    1       26.250 -30.018  14.470  0.00  0.00    -0.378 OA
ENDBRANCH  34  36
ENDBRANCH   1  34
TORSDOF 14
ENDMDL
MODEL 9
REMARK VINA RESULT:      -5.4      3.590      6.242
REMARK  Name = *****
REMARK                            x       y       z     vdW  Elec       q    Type
REMARK                         _______ _______ _______ _____ _____    ______ ____
ROOT
ATOM      1  C   LIG    1       24.706 -31.027  10.611  0.00  0.00    +0.008 A 
ATOM      2  C   LIG    1       25.247 -29.725  10.147  0.00  0.00    -0.002 A 
ATOM      3  C   LIG    1       25.367 -29.531   8.696  0.00  0.00    +0.004 A 
ATOM      4  C   LIG    1       24.768 -30.508   7.847  0.00  0.00    +0.052 A 
ATOM      5  N   LIG    1       24.220 -31.649   8.341  0.00  0.00    -0.255 NA
ATOM      6  C   LIG    1       24.185 -31.942   9.653  0.00  0.00    +0.050 A 
ENDROOT
BRANCH   2   7
ATOM      7  C   LIG    1       25.703 -28.615  11.155  0.00  0.00    -0.017 A 
ATOM      8  C   LIG    1       27.056 -28.201  11.253  0.00  0.00    +0.011 A 
ATOM      9  C   LIG    1       27.574 -27.463  12.342  0.00  0.00    +0.039 A 
ATOM     10  C   LIG    1       26.738 -27.063  13.363  0.00  0.00    +0.123 A 
ATOM     11  F   LIG    1       27.247 -26.472  14.453  0.00  0.00    -0.205 F 
ATOM     12  C   LIG    1       25.385 -27.341  13.281  0.00  0.00    +0.039 A 
ATOM     13  C   LIG    1       24.873 -28.083  12.181  0.00  0.00    +0.011 A 
ENDBRANCH   2   7
BRANCH   4  14
ATOM     14  C   LIG    1       24.594 -30.520   6.324  0.00  0.00    +0.032 C 
ATOM     15  C   LIG    1       23.676 -29.517   5.646  0.00  0.00    +0.014 C 
ATOM     16  C   LIG    1       24.202 -31.928   5.805  0.00  0.00    +0.014 C 
ENDBRANCH   4  14
BRANCH   6  17
ATOM     17  C   LIG    1       23.564 -33.332   9.920  0.00  0.00    +0.032 C 
ATOM     18  C   LIG    1       22.721 -33.825   8.733  0.00  0.00    +0.014 C 
ATOM     19  C   LIG    1       22.655 -33.371  11.175  0.00  0.00    +0.014 C 
ENDBRANCH   6  17
BRANCH   3  20
ATOM     20  C   LIG    1       26.020 -28.314   8.081  0.00  0.00    +0.008 C 
ATOM     21  C   LIG    1       25.561 -27.512   7.084  0.00  0.00    +0.005 C 
BRANCH  21  22
ATOM     22  C   LIG    1       26.263 -26.260   6.530  0.00  0.00    +0.140 C 
BRANCH  22  23
ATOM     23  O   LIG    1       27.412 -26.677   5.799  0.00  0.00    -0.388 OA
ATOM     24  H   LIG    1       28.133 -26.828   6.436  0.00  0.00    +0.210 HD
ENDBRANCH  22  23
BRANCH  22  25
ATOM     25  C   LIG    1       25.383 -25.444   5.554  0.00  0.00    +0.067 C 
BRANCH  25  26
ATOM     26  C   LIG    1       24.657 -24.181   6.100  0.00  0.00    +0.128 C 
BRANCH  26  27
ATOM     27  O   LIG    1       23.330 -24.580   6.523  0.00  0.00    -0.391 OA
ATOM     28  H   LIG    1       22.871 -23.767   6.818  0.00  0.00    +0.210 HD
ENDBRANCH  26  27
BRANCH  26  29
ATOM     29  C   LIG    1       25.392 -23.539   7.312  0.00  0.00    +0.151 C 
BRANCH  29  30
ATOM     30  C   LIG    1       24.819 -22.182   7.783  0.00  0.00    +0.307 C 
ATOM     31  O   LIG    1       23.651 -21.909   7.711  0.00  0.00    -0.251 OA
BRANCH  30  32
ATOM     32  O   LIG    1       25.787 -21.285   8.176  0.00  0.00    -0.481 OA
ATOM     33  H   LIG    1       26.086 -21.352   9.062  0.00  0.00    +0.295 HD
ENDBRANCH  30  32
ENDBRANCH  29  30
ENDBRANCH  26  29
ENDBRANCH  25  26
ENDBRANCH  22  25
ENDBRANCH  21  22
ENDBRANCH   3  20
BRANCH   1  34
ATOM     34  C   LIG    1       24.697 -31.499  12.072  0.00  0.00    +0.197 C 
BRANCH  34  36
ATOM     35  C   LIG    1       26.236 -31.130  13.858  0.00  0.00    +0.194 C 
ATOM     36  O   LIG    1       25.970 -31.813  12.650  0.00  0.00    -0.378 OA
ENDBRANCH  34  36
ENDBRANCH   1  34
TORSDOF 14
ENDMDL
