MODEL 1
REMARK VINA RESULT:      16.6      0.000      0.000
REMARK  Name = *****
REMARK                            x       y       z     vdW  Elec       q    Type
REMARK                         _______ _______ _______ _____ _____    ______ ____
ROOT
ATOM      1  N   LIG    1       25.476 -13.830   4.232  0.00  0.00    -0.293 NA
ATOM      2  C   LIG    1       24.660 -12.667   4.894  0.00  0.00    +0.094 C 
ATOM      3  C   LIG    1       24.309 -12.601   3.540  0.00  0.00    +0.095 C 
ATOM      4  C   LIG    1       23.521 -14.337   3.682  0.00  0.00    +0.070 C 
ATOM      5  C   LIG    1       24.571 -15.762   4.132  0.00  0.00    +0.216 C 
ATOM      6  O   LIG    1       23.574 -16.844   4.168  0.00  0.00    -0.481 OA
ATOM      7  C   LIG    1       22.525 -16.138   4.831  0.00  0.00    +0.166 A 
ATOM      8  C   LIG    1       21.782 -16.711   5.840  0.00  0.00    +0.159 A 
ATOM      9  C   LIG    1       21.203 -15.860   6.779  0.00  0.00    +0.049 A 
ATOM     10  C   LIG    1       21.582 -14.492   6.814  0.00  0.00    +0.008 A 
ATOM     11  C   LIG    1       22.408 -13.966   5.805  0.00  0.00    -0.038 A 
ATOM     12  C   LIG    1       26.213 -15.883   3.283  0.00  0.00    +0.160 C 
ATOM     13  C   LIG    1       26.903 -14.279   2.449  0.00  0.00    +0.038 C 
ATOM     14  C   LIG    1       22.579 -14.749   4.711  0.00  0.00    +0.014 A 
ATOM     15  C   LIG    1       23.252 -14.552   2.324  0.00  0.00    +0.033 C 
ATOM     16  C   LIG    1       26.026 -12.566   2.558  0.00  0.00    +0.040 C 
ATOM     17  C   LIG    1       23.379 -12.790   5.907  0.00  0.00    +0.057 C 
ATOM     18  C   LIG    1       24.751 -14.328   2.469  0.00  0.00    +0.086 C 
ENDROOT
BRANCH   3  19
ATOM     19  O   LIG    1       23.434 -11.574   3.116  0.00  0.00    -0.386 OA
ATOM     20  H   LIG    1       22.532 -11.803   3.376  0.00  0.00    +0.210 HD
ENDBRANCH   3  19
BRANCH   8  21
ATOM     21  O   LIG    1       21.760 -18.057   6.025  0.00  0.00    -0.503 OA
ATOM     22  H   LIG    1       21.657 -18.430   5.127  0.00  0.00    +0.292 HD
ENDBRANCH   8  21
BRANCH  12  23
ATOM     23  O   LIG    1       26.213 -17.021   2.348  0.00  0.00    -0.371 OA
BRANCH  23  24
ATOM     24  C   LIG    1       26.925 -18.197   2.792  0.00  0.00    +0.188 C 
BRANCH  24  25
ATOM     25  C   LIG    1       26.303 -19.460   2.113  0.00  0.00    +0.188 C 
BRANCH  25  26
ATOM     26  O   LIG    1       24.993 -19.807   2.587  0.00  0.00    -0.375 OA
BRANCH  26  27
ATOM     27  C   LIG    1       24.833 -21.169   3.062  0.00  0.00    +0.188 C 
BRANCH  27  28
ATOM     28  C   LIG    1       23.596 -21.445   3.938  0.00  0.00    +0.188 C 
BRANCH  28  29
ATOM     29  O   LIG    1       22.418 -20.837   3.383  0.00  0.00    -0.375 OA
BRANCH  29  30
ATOM     30  C   LIG    1       21.317 -20.559   4.264  0.00  0.00    +0.188 C 
BRANCH  30  31
ATOM     31  C   LIG    1       21.430 -20.941   5.762  0.00  0.00    +0.188 C 
BRANCH  31  32
ATOM     32  O   LIG    1       22.545 -20.415   6.492  0.00  0.00    -0.375 OA
BRANCH  32  33
ATOM     33  C   LIG    1       23.610 -21.342   6.713  0.00  0.00    +0.188 C 
BRANCH  33  34
ATOM     34  C   LIG    1       24.937 -20.850   6.098  0.00  0.00    +0.188 C 
BRANCH  34  35
ATOM     35  O   LIG    1       26.008 -20.757   7.062  0.00  0.00    -0.375 OA
BRANCH  35  36
ATOM     36  C   LIG    1       27.155 -21.567   6.764  0.00  0.00    +0.188 C 
BRANCH  36  37
ATOM     37  C   LIG    1       27.836 -21.219   5.416  0.00  0.00    +0.188 C 
BRANCH  37  38
ATOM     38  O   LIG    1       29.077 -20.502   5.476  0.00  0.00    -0.375 OA
BRANCH  38  39
ATOM     39  C   LIG    1       29.415 -20.110   6.806  0.00  0.00    +0.188 C 
BRANCH  39  40
ATOM     40  C   LIG    1       29.444 -18.588   6.974  0.00  0.00    +0.188 C 
BRANCH  40  41
ATOM     41  O   LIG    1       29.474 -17.997   5.672  0.00  0.00    -0.375 OA
BRANCH  41  42
ATOM     42  C   LIG    1       28.188 -17.664   5.146  0.00  0.00    +0.188 C 
BRANCH  42  43
ATOM     43  C   LIG    1       27.804 -16.193   5.372  0.00  0.00    +0.187 C 
BRANCH  43  44
ATOM     44  O   LIG    1       28.895 -15.290   5.161  0.00  0.00    -0.381 OA
ATOM     45  C   LIG    1       29.129 -14.991   3.791  0.00  0.00    +0.194 C 
ENDBRANCH  43  44
ENDBRANCH  42  43
ENDBRANCH  41  42
ENDBRANCH  40  41
ENDBRANCH  39  40
ENDBRANCH  38  39
ENDBRANCH  37  38
ENDBRANCH  36  37
ENDBRANCH  35  36
ENDBRANCH  34  35
ENDBRANCH  33  34
ENDBRANCH  32  33
ENDBRANCH  31  32
ENDBRANCH  30  31
ENDBRANCH  29  30
ENDBRANCH  28  29
ENDBRANCH  27  28
ENDBRANCH  26  27
ENDBRANCH  25  26
ENDBRANCH  24  25
ENDBRANCH  23  24
ENDBRANCH  12  23
BRANCH   1  46
ATOM     46  C   LIG    1       26.921 -13.550   4.877  0.00  0.00    +0.111 C 
BRANCH  46  48
ATOM     47  C   LIG    1       28.908 -11.896   5.034  0.00  0.00    +0.005 C 
ATOM     48  C   LIG    1       27.604 -12.188   4.968  0.00  0.00    -0.019 C 
ENDBRANCH  46  48
ENDBRANCH   1  46
TORSDOF 26
ENDMDL
MODEL 2
REMARK VINA RESULT:      17.1      1.462      4.564
REMARK  Name = *****
REMARK                            x       y       z     vdW  Elec       q    Type
REMARK                         _______ _______ _______ _____ _____    ______ ____
ROOT
ATOM      1  N   LIG    1       25.891 -12.582   4.151  0.00  0.00    -0.293 NA
ATOM      2  C   LIG    1       24.789 -11.471   4.066  0.00  0.00    +0.094 C 
ATOM      3  C   LIG    1       24.777 -12.058   2.795  0.00  0.00    +0.095 C 
ATOM      4  C   LIG    1       24.217 -13.706   3.588  0.00  0.00    +0.070 C 
ATOM      5  C   LIG    1       25.304 -14.530   4.802  0.00  0.00    +0.216 C 
ATOM      6  O   LIG    1       24.482 -15.694   5.169  0.00  0.00    -0.481 OA
ATOM      7  C   LIG    1       23.218 -15.038   5.256  0.00  0.00    +0.166 A 
ATOM      8  C   LIG    1       22.332 -15.289   6.281  0.00  0.00    +0.159 A 
ATOM      9  C   LIG    1       21.431 -14.282   6.619  0.00  0.00    +0.049 A 
ATOM     10  C   LIG    1       21.604 -12.978   6.084  0.00  0.00    +0.008 A 
ATOM     11  C   LIG    1       22.576 -12.747   5.095  0.00  0.00    -0.038 A 
ATOM     12  C   LIG    1       27.105 -14.614   4.379  0.00  0.00    +0.160 C 
ATOM     13  C   LIG    1       27.760 -13.395   3.027  0.00  0.00    +0.038 C 
ATOM     14  C   LIG    1       23.114 -13.854   4.524  0.00  0.00    +0.014 A 
ATOM     15  C   LIG    1       24.322 -14.525   2.456  0.00  0.00    +0.033 C 
ATOM     16  C   LIG    1       26.663 -12.045   2.197  0.00  0.00    +0.040 C 
ATOM     17  C   LIG    1       23.326 -11.449   4.802  0.00  0.00    +0.057 C 
ATOM     18  C   LIG    1       25.695 -13.923   2.721  0.00  0.00    +0.086 C 
ENDROOT
BRANCH   3  19
ATOM     19  O   LIG    1       23.905 -11.535   1.813  0.00  0.00    -0.386 OA
ATOM     20  H   LIG    1       22.993 -11.640   2.115  0.00  0.00    +0.210 HD
ENDBRANCH   3  19
BRANCH   8  21
ATOM     21  O   LIG    1       22.445 -16.400   7.055  0.00  0.00    -0.503 OA
ATOM     22  H   LIG    1       23.263 -16.838   6.746  0.00  0.00    +0.292 HD
ENDBRANCH   8  21
BRANCH  12  23
ATOM     23  O   LIG    1       27.488 -16.005   4.083  0.00  0.00    -0.371 OA
BRANCH  23  24
ATOM     24  C   LIG    1       26.679 -16.681   3.094  0.00  0.00    +0.188 C 
BRANCH  24  25
ATOM     25  C   LIG    1       26.441 -18.157   3.548  0.00  0.00    +0.188 C 
BRANCH  25  26
ATOM     26  O   LIG    1       27.596 -18.803   4.105  0.00  0.00    -0.375 OA
BRANCH  26  27
ATOM     27  C   LIG    1       28.866 -18.142   3.863  0.00  0.00    +0.188 C 
BRANCH  27  28
ATOM     28  C   LIG    1       29.188 -16.934   4.764  0.00  0.00    +0.188 C 
BRANCH  28  29
ATOM     29  O   LIG    1       29.066 -17.273   6.155  0.00  0.00    -0.375 OA
BRANCH  29  30
ATOM     30  C   LIG    1       28.298 -18.436   6.506  0.00  0.00    +0.188 C 
BRANCH  30  31
ATOM     31  C   LIG    1       29.027 -19.686   7.062  0.00  0.00    +0.188 C 
BRANCH  31  32
ATOM     32  O   LIG    1       28.754 -20.942   6.428  0.00  0.00    -0.375 OA
BRANCH  32  33
ATOM     33  C   LIG    1       27.537 -21.569   6.837  0.00  0.00    +0.188 C 
BRANCH  33  34
ATOM     34  C   LIG    1       26.326 -20.624   6.689  0.00  0.00    +0.188 C 
BRANCH  34  35
ATOM     35  O   LIG    1       25.058 -21.311   6.763  0.00  0.00    -0.375 OA
BRANCH  35  36
ATOM     36  C   LIG    1       23.954 -20.596   6.188  0.00  0.00    +0.188 C 
BRANCH  36  37
ATOM     37  C   LIG    1       22.596 -21.331   6.316  0.00  0.00    +0.188 C 
BRANCH  37  38
ATOM     38  O   LIG    1       21.866 -21.570   5.104  0.00  0.00    -0.375 OA
BRANCH  38  39
ATOM     39  C   LIG    1       22.620 -21.235   3.939  0.00  0.00    +0.188 C 
BRANCH  39  40
ATOM     40  C   LIG    1       22.889 -19.731   3.834  0.00  0.00    +0.188 C 
BRANCH  40  41
ATOM     41  O   LIG    1       22.095 -19.067   4.821  0.00  0.00    -0.375 OA
BRANCH  41  42
ATOM     42  C   LIG    1       21.600 -17.789   4.419  0.00  0.00    +0.188 C 
BRANCH  42  43
ATOM     43  C   LIG    1       20.938 -17.805   3.032  0.00  0.00    +0.187 C 
BRANCH  43  44
ATOM     44  O   LIG    1       19.739 -18.584   2.992  0.00  0.00    -0.381 OA
ATOM     45  C   LIG    1       19.786 -19.744   3.812  0.00  0.00    +0.194 C 
ENDBRANCH  43  44
ENDBRANCH  42  43
ENDBRANCH  41  42
ENDBRANCH  40  41
ENDBRANCH  39  40
ENDBRANCH  38  39
ENDBRANCH  37  38
ENDBRANCH  36  37
ENDBRANCH  35  36
ENDBRANCH  34  35
ENDBRANCH  33  34
ENDBRANCH  32  33
ENDBRANCH  31  32
ENDBRANCH  30  31
ENDBRANCH  29  30
ENDBRANCH  28  29
ENDBRANCH  27  28
ENDBRANCH  26  27
ENDBRANCH  25  26
ENDBRANCH  24  25
ENDBRANCH  23  24
ENDBRANCH  12  23
BRANCH   1  46
ATOM     46  C   LIG    1       27.081 -11.735   4.819  0.00  0.00    +0.111 C 
BRANCH  46  48
ATOM     47  C   LIG    1       29.080 -12.382   6.334  0.00  0.00    +0.005 C 
ATOM     48  C   LIG    1       28.474 -12.267   5.147  0.00  0.00    -0.019 C 
ENDBRANCH  46  48
ENDBRANCH   1  46
TORSDOF 26
ENDMDL
MODEL 3
REMARK VINA RESULT:      19.3      1.859      6.842
REMARK  Name = *****
REMARK                            x       y       z     vdW  Elec       q    Type
REMARK                         _______ _______ _______ _____ _____    ______ ____
ROOT
ATOM      1  N   LIG    1       22.873 -18.469   4.889  0.00  0.00    -0.293 NA
ATOM      2  C   LIG    1       22.363 -19.622   5.820  0.00  0.00    +0.094 C 
ATOM      3  C   LIG    1       22.085 -20.082   4.528  0.00  0.00    +0.095 C 
ATOM      4  C   LIG    1       23.961 -20.100   4.156  0.00  0.00    +0.070 C 
ATOM      5  C   LIG    1       24.902 -18.536   4.227  0.00  0.00    +0.216 C 
ATOM      6  O   LIG    1       26.261 -19.015   3.928  0.00  0.00    -0.481 OA
ATOM      7  C   LIG    1       26.246 -20.198   4.725  0.00  0.00    +0.166 A 
ATOM      8  C   LIG    1       27.317 -20.565   5.510  0.00  0.00    +0.159 A 
ATOM      9  C   LIG    1       27.058 -21.355   6.628  0.00  0.00    +0.049 A 
ATOM     10  C   LIG    1       25.718 -21.549   7.054  0.00  0.00    +0.008 A 
ATOM     11  C   LIG    1       24.653 -21.087   6.260  0.00  0.00    -0.038 A 
ATOM     12  C   LIG    1       24.116 -17.059   3.433  0.00  0.00    +0.160 C 
ATOM     13  C   LIG    1       22.212 -17.135   3.100  0.00  0.00    +0.038 C 
ATOM     14  C   LIG    1       24.977 -20.711   4.998  0.00  0.00    +0.014 A 
ATOM     15  C   LIG    1       23.895 -20.373   2.783  0.00  0.00    +0.033 C 
ATOM     16  C   LIG    1       21.098 -18.608   3.651  0.00  0.00    +0.040 C 
ATOM     17  C   LIG    1       23.259 -20.659   6.717  0.00  0.00    +0.057 C 
ATOM     18  C   LIG    1       23.131 -19.080   3.034  0.00  0.00    +0.086 C 
ENDROOT
BRANCH   3  19
ATOM     19  O   LIG    1       21.429 -21.325   4.376  0.00  0.00    -0.386 OA
ATOM     20  H   LIG    1       21.446 -21.794   5.220  0.00  0.00    +0.210 HD
ENDBRANCH   3  19
BRANCH   8  21
ATOM     21  O   LIG    1       28.552 -20.035   5.313  0.00  0.00    -0.503 OA
ATOM     22  H   LIG    1       29.054 -20.735   4.852  0.00  0.00    +0.292 HD
ENDBRANCH   8  21
BRANCH  12  23
ATOM     23  O   LIG    1       24.861 -16.684   2.219  0.00  0.00    -0.371 OA
BRANCH  23  24
ATOM     24  C   LIG    1       25.948 -15.751   2.413  0.00  0.00    +0.188 C 
BRANCH  24  25
ATOM     25  C   LIG    1       25.410 -14.485   3.155  0.00  0.00    +0.188 C 
BRANCH  25  26
ATOM     26  O   LIG    1       24.685 -13.569   2.320  0.00  0.00    -0.375 OA
BRANCH  26  27
ATOM     27  C   LIG    1       23.864 -12.595   3.015  0.00  0.00    +0.188 C 
BRANCH  27  28
ATOM     28  C   LIG    1       22.859 -13.158   4.039  0.00  0.00    +0.188 C 
BRANCH  28  29
ATOM     29  O   LIG    1       22.059 -12.112   4.614  0.00  0.00    -0.375 OA
BRANCH  29  30
ATOM     30  C   LIG    1       21.738 -12.192   6.013  0.00  0.00    +0.188 C 
BRANCH  30  31
ATOM     31  C   LIG    1       22.772 -11.700   7.058  0.00  0.00    +0.188 C 
BRANCH  31  32
ATOM     32  O   LIG    1       24.106 -11.453   6.596  0.00  0.00    -0.375 OA
BRANCH  32  33
ATOM     33  C   LIG    1       24.996 -12.565   6.710  0.00  0.00    +0.188 C 
BRANCH  33  34
ATOM     34  C   LIG    1       25.360 -13.153   5.330  0.00  0.00    +0.188 C 
BRANCH  34  35
ATOM     35  O   LIG    1       26.575 -12.599   4.782  0.00  0.00    -0.375 OA
BRANCH  35  36
ATOM     36  C   LIG    1       26.438 -12.036   3.468  0.00  0.00    +0.188 C 
BRANCH  36  37
ATOM     37  C   LIG    1       27.747 -12.053   2.638  0.00  0.00    +0.188 C 
BRANCH  37  38
ATOM     38  O   LIG    1       28.974 -11.830   3.348  0.00  0.00    -0.375 OA
BRANCH  38  39
ATOM     39  C   LIG    1       29.450 -13.009   3.995  0.00  0.00    +0.188 C 
BRANCH  39  40
ATOM     40  C   LIG    1       28.808 -14.281   3.432  0.00  0.00    +0.188 C 
BRANCH  40  41
ATOM     41  O   LIG    1       27.886 -14.781   4.405  0.00  0.00    -0.375 OA
BRANCH  41  42
ATOM     42  C   LIG    1       27.958 -16.193   4.614  0.00  0.00    +0.188 C 
BRANCH  42  43
ATOM     43  C   LIG    1       29.391 -16.700   4.838  0.00  0.00    +0.187 C 
BRANCH  43  44
ATOM     44  O   LIG    1       29.445 -17.910   5.600  0.00  0.00    -0.381 OA
ATOM     45  C   LIG    1       28.903 -17.785   6.907  0.00  0.00    +0.194 C 
ENDBRANCH  43  44
ENDBRANCH  42  43
ENDBRANCH  41  42
ENDBRANCH  40  41
ENDBRANCH  39  40
ENDBRANCH  38  39
ENDBRANCH  37  38
ENDBRANCH  36  37
ENDBRANCH  35  36
ENDBRANCH  34  35
ENDBRANCH  33  34
ENDBRANCH  32  33
ENDBRANCH  31  32
ENDBRANCH  30  31
ENDBRANCH  29  30
ENDBRANCH  28  29
ENDBRANCH  27  28
ENDBRANCH  26  27
ENDBRANCH  25  26
ENDBRANCH  24  25
ENDBRANCH  23  24
ENDBRANCH  12  23
BRANCH   1  46
ATOM     46  C   LIG    1       22.216 -17.207   5.634  0.00  0.00    +0.111 C 
BRANCH  46  48
ATOM     47  C   LIG    1       23.177 -14.910   6.349  0.00  0.00    +0.005 C 
ATOM     48  C   LIG    1       22.641 -15.750   5.457  0.00  0.00    -0.019 C 
ENDBRANCH  46  48
ENDBRANCH   1  46
TORSDOF 26
ENDMDL
MODEL 4
REMARK VINA RESULT:      19.4      2.012      7.239
REMARK  Name = *****
REMARK                            x       y       z     vdW  Elec       q    Type
REMARK                         _______ _______ _______ _____ _____    ______ ____
ROOT
ATOM      1  N   LIG    1       22.028 -18.662   4.888  0.00  0.00    -0.293 NA
ATOM      2  C   LIG    1       21.885 -20.095   5.509  0.00  0.00    +0.094 C 
ATOM      3  C   LIG    1       21.582 -20.280   4.155  0.00  0.00    +0.095 C 
ATOM      4  C   LIG    1       23.366 -19.757   3.708  0.00  0.00    +0.070 C 
ATOM      5  C   LIG    1       23.942 -18.078   4.141  0.00  0.00    +0.216 C 
ATOM      6  O   LIG    1       25.334 -18.129   3.667  0.00  0.00    -0.481 OA
ATOM      7  C   LIG    1       25.663 -19.439   4.128  0.00  0.00    +0.166 A 
ATOM      8  C   LIG    1       26.865 -19.717   4.743  0.00  0.00    +0.159 A 
ATOM      9  C   LIG    1       26.905 -20.793   5.627  0.00  0.00    +0.049 A 
ATOM     10  C   LIG    1       25.693 -21.400   6.047  0.00  0.00    +0.008 A 
ATOM     11  C   LIG    1       24.476 -21.029   5.449  0.00  0.00    -0.038 A 
ATOM     12  C   LIG    1       22.770 -16.685   3.795  0.00  0.00    +0.160 C 
ATOM     13  C   LIG    1       20.906 -17.133   3.539  0.00  0.00    +0.038 C 
ATOM     14  C   LIG    1       24.575 -20.291   4.315  0.00  0.00    +0.014 A 
ATOM     15  C   LIG    1       23.219 -19.696   2.316  0.00  0.00    +0.033 C 
ATOM     16  C   LIG    1       20.208 -18.919   3.738  0.00  0.00    +0.040 C 
ATOM     17  C   LIG    1       23.077 -21.072   6.064  0.00  0.00    +0.057 C 
ATOM     18  C   LIG    1       22.220 -18.726   2.929  0.00  0.00    +0.086 C 
ENDROOT
BRANCH   3  19
ATOM     19  O   LIG    1       21.204 -21.569   3.715  0.00  0.00    -0.386 OA
ATOM     20  H   LIG    1       21.298 -21.613   2.754  0.00  0.00    +0.210 HD
ENDBRANCH   3  19
BRANCH   8  21
ATOM     21  O   LIG    1       27.925 -18.874   4.635  0.00  0.00    -0.503 OA
ATOM     22  H   LIG    1       28.400 -18.960   5.485  0.00  0.00    +0.292 HD
ENDBRANCH   8  21
BRANCH  12  23
ATOM     23  O   LIG    1       23.284 -15.860   2.688  0.00  0.00    -0.371 OA
BRANCH  23  24
ATOM     24  C   LIG    1       22.751 -14.519   2.607  0.00  0.00    +0.188 C 
BRANCH  24  25
ATOM     25  C   LIG    1       23.640 -13.561   3.464  0.00  0.00    +0.188 C 
BRANCH  25  26
ATOM     26  O   LIG    1       24.020 -12.347   2.798  0.00  0.00    -0.375 OA
BRANCH  26  27
ATOM     27  C   LIG    1       25.079 -12.473   1.813  0.00  0.00    +0.188 C 
BRANCH  27  28
ATOM     28  C   LIG    1       26.228 -11.452   1.914  0.00  0.00    +0.188 C 
BRANCH  28  29
ATOM     29  O   LIG    1       27.168 -11.824   2.935  0.00  0.00    -0.375 OA
BRANCH  29  30
ATOM     30  C   LIG    1       27.978 -12.992   2.721  0.00  0.00    +0.188 C 
BRANCH  30  31
ATOM     31  C   LIG    1       27.321 -14.275   2.149  0.00  0.00    +0.188 C 
BRANCH  31  32
ATOM     32  O   LIG    1       26.138 -14.754   2.800  0.00  0.00    -0.375 OA
BRANCH  32  33
ATOM     33  C   LIG    1       26.347 -15.849   3.695  0.00  0.00    +0.188 C 
BRANCH  33  34
ATOM     34  C   LIG    1       27.797 -16.373   3.631  0.00  0.00    +0.188 C 
BRANCH  34  35
ATOM     35  O   LIG    1       28.338 -16.704   4.928  0.00  0.00    -0.375 OA
BRANCH  35  36
ATOM     36  C   LIG    1       28.625 -15.573   5.764  0.00  0.00    +0.188 C 
BRANCH  36  37
ATOM     37  C   LIG    1       28.127 -14.224   5.188  0.00  0.00    +0.188 C 
BRANCH  37  38
ATOM     38  O   LIG    1       28.263 -13.065   6.024  0.00  0.00    -0.375 OA
BRANCH  38  39
ATOM     39  C   LIG    1       27.017 -12.647   6.582  0.00  0.00    +0.188 C 
BRANCH  39  40
ATOM     40  C   LIG    1       25.852 -12.830   5.603  0.00  0.00    +0.188 C 
BRANCH  40  41
ATOM     41  O   LIG    1       25.206 -11.564   5.441  0.00  0.00    -0.375 OA
BRANCH  41  42
ATOM     42  C   LIG    1       23.783 -11.609   5.564  0.00  0.00    +0.188 C 
BRANCH  42  43
ATOM     43  C   LIG    1       23.307 -11.883   6.999  0.00  0.00    +0.187 C 
BRANCH  43  44
ATOM     44  O   LIG    1       21.966 -12.380   7.059  0.00  0.00    -0.381 OA
ATOM     45  C   LIG    1       20.993 -11.448   6.610  0.00  0.00    +0.194 C 
ENDBRANCH  43  44
ENDBRANCH  42  43
ENDBRANCH  41  42
ENDBRANCH  40  41
ENDBRANCH  39  40
ENDBRANCH  38  39
ENDBRANCH  37  38
ENDBRANCH  36  37
ENDBRANCH  35  36
ENDBRANCH  34  35
ENDBRANCH  33  34
ENDBRANCH  32  33
ENDBRANCH  31  32
ENDBRANCH  30  31
ENDBRANCH  29  30
ENDBRANCH  28  29
ENDBRANCH  27  28
ENDBRANCH  26  27
ENDBRANCH  25  26
ENDBRANCH  24  25
ENDBRANCH  23  24
ENDBRANCH  12  23
BRANCH   1  46
ATOM     46  C   LIG    1       21.190 -17.814   5.965  0.00  0.00    +0.111 C 
BRANCH  46  48
ATOM     47  C   LIG    1       21.681 -15.305   6.382  0.00  0.00    +0.005 C 
ATOM     48  C   LIG    1       20.936 -16.309   5.907  0.00  0.00    -0.019 C 
ENDBRANCH  46  48
ENDBRANCH   1  46
TORSDOF 26
ENDMDL
