MODEL 1
REMARK VINA RESULT:      -6.3      0.000      0.000
REMARK  Name = *****
REMARK                            x       y       z     vdW  Elec       q    Type
REMARK                         _______ _______ _______ _____ _____    ______ ____
ROOT
ATOM      1  C   LIG    1       26.308 -17.936   3.305  0.00  0.00    +0.261 C 
ENDROOT
BRANCH   1   2
ATOM      2  O   LIG    1       25.349 -16.890   3.155  0.00  0.00    -0.488 OA
BRANCH   2   6
ATOM      3  C   LIG    1       28.688 -13.235   3.698  0.00  0.00    +0.044 C 
ATOM      4  C   LIG    1       27.296 -13.782   3.855  0.00  0.00    -0.047 A 
ATOM      5  C   LIG    1       27.009 -15.099   3.427  0.00  0.00    +0.050 A 
ATOM      6  C   LIG    1       25.712 -15.623   3.554  0.00  0.00    +0.139 A 
ATOM      7  C   LIG    1       24.706 -14.807   4.083  0.00  0.00    +0.083 A 
ATOM      8 CL   LIG    1       23.084 -15.378   4.266  0.00  0.00    -0.080 Cl
ATOM      9  C   LIG    1       24.981 -13.494   4.494  0.00  0.00    +0.024 A 
ATOM     10  C   LIG    1       26.279 -12.991   4.376  0.00  0.00    +0.005 A 
ENDBRANCH   2   6
ENDBRANCH   1   2
BRANCH   1  11
ATOM     11  C   LIG    1       25.727 -19.085   4.161  0.00  0.00    +0.166 C 
BRANCH  11  12
ATOM     12  O   LIG    1       26.689 -20.121   4.407  0.00  0.00    -0.387 OA
ATOM     13  H   LIG    1       27.256 -19.826   5.143  0.00  0.00    +0.210 HD
ENDBRANCH  11  12
BRANCH  11  14
ATOM     14  C   LIG    1       24.541 -19.718   3.408  0.00  0.00    +0.116 C 
BRANCH  14  15
ATOM     15  N   LIG    1       23.894 -20.827   4.131  0.00  0.00    -0.309 NA
ATOM     16  H   LIG    1       23.550 -21.498   3.438  0.00  0.00    +0.122 HD
BRANCH  15  17
ATOM     17  C   LIG    1       22.807 -20.408   5.043  0.00  0.00    +0.011 C 
ATOM     18  C   LIG    1       21.605 -21.358   4.858  0.00  0.00    +0.027 C 
ATOM     19  C   LIG    1       22.330 -18.971   4.760  0.00  0.00    +0.027 C 
ATOM     20  C   LIG    1       23.274 -20.519   6.505  0.00  0.00    +0.027 C 
ENDBRANCH  15  17
ENDBRANCH  14  15
ENDBRANCH  11  14
ENDBRANCH   1  11
TORSDOF 7
ENDMDL
MODEL 2
REMARK VINA RESULT:      -6.0      2.594      7.024
REMARK  Name = *****
REMARK                            x       y       z     vdW  Elec       q    Type
REMARK                         _______ _______ _______ _____ _____    ______ ____
ROOT
ATOM      1  C   LIG    1       25.557 -18.294   3.563  0.00  0.00    +0.261 C 
ENDROOT
BRANCH   1   2
ATOM      2  O   LIG    1       25.890 -19.533   4.186  0.00  0.00    -0.488 OA
BRANCH   2   6
ATOM      3  C   LIG    1       21.297 -21.353   4.817  0.00  0.00    +0.044 C 
ATOM      4  C   LIG    1       22.683 -21.068   5.327  0.00  0.00    -0.047 A 
ATOM      5  C   LIG    1       23.617 -20.417   4.488  0.00  0.00    +0.050 A 
ATOM      6  C   LIG    1       24.921 -20.154   4.943  0.00  0.00    +0.139 A 
ATOM      7  C   LIG    1       25.283 -20.576   6.225  0.00  0.00    +0.083 A 
ATOM      8 CL   LIG    1       26.869 -20.294   6.854  0.00  0.00    -0.080 Cl
ATOM      9  C   LIG    1       24.365 -21.238   7.056  0.00  0.00    +0.024 A 
ATOM     10  C   LIG    1       23.068 -21.479   6.597  0.00  0.00    +0.005 A 
ENDBRANCH   2   6
ENDBRANCH   1   2
BRANCH   1  11
ATOM     11  C   LIG    1       26.831 -17.454   3.312  0.00  0.00    +0.166 C 
BRANCH  11  12
ATOM     12  O   LIG    1       27.888 -17.781   4.226  0.00  0.00    -0.387 OA
ATOM     13  H   LIG    1       28.377 -18.536   3.851  0.00  0.00    +0.210 HD
ENDBRANCH  11  12
BRANCH  11  14
ATOM     14  C   LIG    1       26.492 -15.963   3.503  0.00  0.00    +0.116 C 
BRANCH  14  15
ATOM     15  N   LIG    1       27.642 -15.133   3.905  0.00  0.00    -0.309 NA
ATOM     16  H   LIG    1       27.967 -15.466   4.817  0.00  0.00    +0.122 HD
BRANCH  15  17
ATOM     17  C   LIG    1       27.361 -13.681   3.944  0.00  0.00    +0.011 C 
ATOM     18  C   LIG    1       26.522 -13.301   2.706  0.00  0.00    +0.027 C 
ATOM     19  C   LIG    1       28.649 -12.838   3.926  0.00  0.00    +0.027 C 
ATOM     20  C   LIG    1       26.535 -13.338   5.195  0.00  0.00    +0.027 C 
ENDBRANCH  15  17
ENDBRANCH  14  15
ENDBRANCH  11  14
ENDBRANCH   1  11
TORSDOF 7
ENDMDL
MODEL 3
REMARK VINA RESULT:      -5.9      2.541      6.539
REMARK  Name = *****
REMARK                            x       y       z     vdW  Elec       q    Type
REMARK                         _______ _______ _______ _____ _____    ______ ____
ROOT
ATOM      1  C   LIG    1       25.797 -17.656   3.456  0.00  0.00    +0.261 C 
ENDROOT
BRANCH   1   2
ATOM      2  O   LIG    1       26.007 -19.061   3.584  0.00  0.00    -0.488 OA
BRANCH   2   6
ATOM      3  C   LIG    1       21.543 -20.924   4.769  0.00  0.00    +0.044 C 
ATOM      4  C   LIG    1       23.002 -20.709   5.065  0.00  0.00    -0.047 A 
ATOM      5  C   LIG    1       23.796 -19.965   4.163  0.00  0.00    +0.050 A 
ATOM      6  C   LIG    1       25.164 -19.764   4.416  0.00  0.00    +0.139 A 
ATOM      7  C   LIG    1       25.728 -20.340   5.559  0.00  0.00    +0.083 A 
ATOM      8 CL   LIG    1       27.403 -20.142   5.936  0.00  0.00    -0.080 Cl
ATOM      9  C   LIG    1       24.947 -21.093   6.450  0.00  0.00    +0.024 A 
ATOM     10  C   LIG    1       23.586 -21.272   6.194  0.00  0.00    +0.005 A 
ENDBRANCH   2   6
ENDBRANCH   1   2
BRANCH   1  11
ATOM     11  C   LIG    1       27.150 -16.911   3.375  0.00  0.00    +0.166 C 
BRANCH  11  12
ATOM     12  O   LIG    1       28.107 -17.417   4.317  0.00  0.00    -0.387 OA
ATOM     13  H   LIG    1       28.929 -16.907   4.203  0.00  0.00    +0.210 HD
ENDBRANCH  11  12
BRANCH  11  14
ATOM     14  C   LIG    1       26.919 -15.421   3.698  0.00  0.00    +0.116 C 
BRANCH  14  15
ATOM     15  N   LIG    1       25.880 -14.783   2.871  0.00  0.00    -0.309 NA
ATOM     16  H   LIG    1       26.347 -14.289   2.105  0.00  0.00    +0.122 HD
BRANCH  15  17
ATOM     17  C   LIG    1       24.983 -13.872   3.615  0.00  0.00    +0.011 C 
ATOM     18  C   LIG    1       25.754 -13.283   4.815  0.00  0.00    +0.027 C 
ATOM     19  C   LIG    1       23.736 -14.596   4.156  0.00  0.00    +0.027 C 
ATOM     20  C   LIG    1       24.552 -12.704   2.713  0.00  0.00    +0.027 C 
ENDBRANCH  15  17
ENDBRANCH  14  15
ENDBRANCH  11  14
ENDBRANCH   1  11
TORSDOF 7
ENDMDL
MODEL 4
REMARK VINA RESULT:      -5.9      2.531      6.463
REMARK  Name = *****
REMARK                            x       y       z     vdW  Elec       q    Type
REMARK                         _______ _______ _______ _____ _____    ______ ____
ROOT
ATOM      1  C   LIG    1       25.759 -17.683   3.454  0.00  0.00    +0.261 C 
ENDROOT
BRANCH   1   2
ATOM      2  O   LIG    1       25.949 -19.088   3.605  0.00  0.00    -0.488 OA
BRANCH   2   6
ATOM      3  C   LIG    1       21.423 -20.863   4.690  0.00  0.00    +0.044 C 
ATOM      4  C   LIG    1       22.878 -20.673   5.020  0.00  0.00    -0.047 A 
ATOM      5  C   LIG    1       23.708 -19.949   4.134  0.00  0.00    +0.050 A 
ATOM      6  C   LIG    1       25.073 -19.772   4.419  0.00  0.00    +0.139 A 
ATOM      7  C   LIG    1       25.597 -20.351   5.579  0.00  0.00    +0.083 A 
ATOM      8 CL   LIG    1       27.267 -20.182   5.997  0.00  0.00    -0.080 Cl
ATOM      9  C   LIG    1       24.782 -21.085   6.454  0.00  0.00    +0.024 A 
ATOM     10  C   LIG    1       23.424 -21.241   6.165  0.00  0.00    +0.005 A 
ENDBRANCH   2   6
ENDBRANCH   1   2
BRANCH   1  11
ATOM     11  C   LIG    1       27.122 -16.956   3.379  0.00  0.00    +0.166 C 
BRANCH  11  12
ATOM     12  O   LIG    1       28.076 -17.491   4.308  0.00  0.00    -0.387 OA
ATOM     13  H   LIG    1       28.642 -16.755   4.604  0.00  0.00    +0.210 HD
ENDBRANCH  11  12
BRANCH  11  14
ATOM     14  C   LIG    1       26.915 -15.469   3.725  0.00  0.00    +0.116 C 
BRANCH  14  15
ATOM     15  N   LIG    1       25.914 -14.791   2.882  0.00  0.00    -0.309 NA
ATOM     16  H   LIG    1       26.410 -14.327   2.116  0.00  0.00    +0.122 HD
BRANCH  15  17
ATOM     17  C   LIG    1       25.053 -13.833   3.610  0.00  0.00    +0.011 C 
ATOM     18  C   LIG    1       23.806 -14.578   4.130  0.00  0.00    +0.027 C 
ATOM     19  C   LIG    1       24.579 -12.676   2.711  0.00  0.00    +0.027 C 
ATOM     20  C   LIG    1       25.805 -13.269   4.827  0.00  0.00    +0.027 C 
ENDBRANCH  15  17
ENDBRANCH  14  15
ENDBRANCH  11  14
ENDBRANCH   1  11
TORSDOF 7
ENDMDL
MODEL 5
REMARK VINA RESULT:      -5.6      2.454      6.132
REMARK  Name = *****
REMARK                            x       y       z     vdW  Elec       q    Type
REMARK                         _______ _______ _______ _____ _____    ______ ____
ROOT
ATOM      1  C   LIG    1       25.613 -17.292   3.419  0.00  0.00    +0.261 C 
ENDROOT
BRANCH   1   2
ATOM      2  O   LIG    1       25.611 -18.708   3.250  0.00  0.00    -0.488 OA
BRANCH   2   6
ATOM      3  C   LIG    1       27.095 -21.551   7.060  0.00  0.00    +0.044 C 
ATOM      4  C   LIG    1       26.011 -20.895   6.249  0.00  0.00    -0.047 A 
ATOM      5  C   LIG    1       26.356 -20.118   5.119  0.00  0.00    +0.050 A 
ATOM      6  C   LIG    1       25.358 -19.487   4.357  0.00  0.00    +0.139 A 
ATOM      7  C   LIG    1       24.024 -19.618   4.756  0.00  0.00    +0.083 A 
ATOM      8 CL   LIG    1       22.740 -18.868   3.873  0.00  0.00    -0.080 Cl
ATOM      9  C   LIG    1       23.677 -20.375   5.886  0.00  0.00    +0.024 A 
ATOM     10  C   LIG    1       24.678 -21.009   6.626  0.00  0.00    +0.005 A 
ENDBRANCH   2   6
ENDBRANCH   1   2
BRANCH   1  11
ATOM     11  C   LIG    1       27.044 -16.728   3.251  0.00  0.00    +0.166 C 
BRANCH  11  12
ATOM     12  O   LIG    1       27.942 -17.215   4.259  0.00  0.00    -0.387 OA
ATOM     13  H   LIG    1       27.542 -17.019   5.126  0.00  0.00    +0.210 HD
ENDBRANCH  11  12
BRANCH  11  14
ATOM     14  C   LIG    1       26.993 -15.193   3.371  0.00  0.00    +0.116 C 
BRANCH  14  15
ATOM     15  N   LIG    1       25.794 -14.584   2.769  0.00  0.00    -0.309 NA
ATOM     16  H   LIG    1       26.087 -14.074   1.931  0.00  0.00    +0.122 HD
BRANCH  15  17
ATOM     17  C   LIG    1       25.033 -13.703   3.683  0.00  0.00    +0.011 C 
ATOM     18  C   LIG    1       25.943 -13.304   4.864  0.00  0.00    +0.027 C 
ATOM     19  C   LIG    1       23.783 -14.396   4.255  0.00  0.00    +0.027 C 
ATOM     20  C   LIG    1       24.622 -12.415   2.950  0.00  0.00    +0.027 C 
ENDBRANCH  15  17
ENDBRANCH  14  15
ENDBRANCH  11  14
ENDBRANCH   1  11
TORSDOF 7
ENDMDL
MODEL 6
REMARK VINA RESULT:      -4.8      1.539      2.017
REMARK  Name = *****
REMARK                            x       y       z     vdW  Elec       q    Type
REMARK                         _______ _______ _______ _____ _____    ______ ____
ROOT
ATOM      1  C   LIG    1       25.796 -17.977   3.196  0.00  0.00    +0.261 C 
ENDROOT
BRANCH   1   2
ATOM      2  O   LIG    1       25.158 -16.812   3.717  0.00  0.00    -0.488 OA
BRANCH   2   6
ATOM      3  C   LIG    1       24.840 -12.136   2.034  0.00  0.00    +0.044 C 
ATOM      4  C   LIG    1       25.633 -13.281   2.602  0.00  0.00    -0.047 A 
ATOM      5  C   LIG    1       24.990 -14.510   2.874  0.00  0.00    +0.050 A 
ATOM      6  C   LIG    1       25.712 -15.587   3.416  0.00  0.00    +0.139 A 
ATOM      7  C   LIG    1       27.067 -15.409   3.708  0.00  0.00    +0.083 A 
ATOM      8 CL   LIG    1       28.021 -16.684   4.381  0.00  0.00    -0.080 Cl
ATOM      9  C   LIG    1       27.707 -14.185   3.455  0.00  0.00    +0.024 A 
ATOM     10  C   LIG    1       26.981 -13.128   2.902  0.00  0.00    +0.005 A 
ENDBRANCH   2   6
ENDBRANCH   1   2
BRANCH   1  11
ATOM     11  C   LIG    1       25.461 -19.212   4.065  0.00  0.00    +0.166 C 
BRANCH  11  12
ATOM     12  O   LIG    1       26.606 -20.048   4.286  0.00  0.00    -0.387 OA
ATOM     13  H   LIG    1       26.761 -20.557   3.470  0.00  0.00    +0.210 HD
ENDBRANCH  11  12
BRANCH  11  14
ATOM     14  C   LIG    1       24.397 -20.060   3.339  0.00  0.00    +0.116 C 
BRANCH  14  15
ATOM     15  N   LIG    1       23.808 -21.123   4.172  0.00  0.00    -0.309 NA
ATOM     16  H   LIG    1       23.448 -21.850   3.547  0.00  0.00    +0.122 HD
BRANCH  15  17
ATOM     17  C   LIG    1       22.753 -20.655   5.099  0.00  0.00    +0.011 C 
ATOM     18  C   LIG    1       21.518 -21.569   4.951  0.00  0.00    +0.027 C 
ATOM     19  C   LIG    1       22.316 -19.208   4.803  0.00  0.00    +0.027 C 
ATOM     20  C   LIG    1       23.244 -20.761   6.552  0.00  0.00    +0.027 C 
ENDBRANCH  15  17
ENDBRANCH  14  15
ENDBRANCH  11  14
ENDBRANCH   1  11
TORSDOF 7
ENDMDL
MODEL 7
REMARK VINA RESULT:      -4.5      2.754      6.342
REMARK  Name = *****
REMARK                            x       y       z     vdW  Elec       q    Type
REMARK                         _______ _______ _______ _____ _____    ______ ____
ROOT
ATOM      1  C   LIG    1       24.404 -18.147   3.492  0.00  0.00    +0.261 C 
ENDROOT
BRANCH   1   2
ATOM      2  O   LIG    1       24.191 -19.549   3.645  0.00  0.00    -0.488 OA
BRANCH   2   6
ATOM      3  C   LIG    1       28.027 -20.607   6.639  0.00  0.00    +0.044 C 
ATOM      4  C   LIG    1       26.577 -20.731   6.262  0.00  0.00    -0.047 A 
ATOM      5  C   LIG    1       26.095 -20.072   5.108  0.00  0.00    +0.050 A 
ATOM      6  C   LIG    1       24.740 -20.166   4.747  0.00  0.00    +0.139 A 
ATOM      7  C   LIG    1       23.875 -20.897   5.567  0.00  0.00    +0.083 A 
ATOM      8 CL   LIG    1       22.194 -21.056   5.193  0.00  0.00    -0.080 Cl
ATOM      9  C   LIG    1       24.344 -21.540   6.723  0.00  0.00    +0.024 A 
ATOM     10  C   LIG    1       25.697 -21.451   7.062  0.00  0.00    +0.005 A 
ENDBRANCH   2   6
ENDBRANCH   1   2
BRANCH   1  11
ATOM     11  C   LIG    1       23.443 -17.350   4.406  0.00  0.00    +0.166 C 
BRANCH  11  12
ATOM     12  O   LIG    1       22.069 -17.701   4.187  0.00  0.00    -0.387 OA
ATOM     13  H   LIG    1       21.539 -16.888   4.285  0.00  0.00    +0.210 HD
ENDBRANCH  11  12
BRANCH  11  14
ATOM     14  C   LIG    1       23.596 -15.847   4.101  0.00  0.00    +0.116 C 
BRANCH  14  15
ATOM     15  N   LIG    1       24.955 -15.455   3.687  0.00  0.00    -0.309 NA
ATOM     16  H   LIG    1       25.619 -15.887   4.336  0.00  0.00    +0.122 HD
BRANCH  15  17
ATOM     17  C   LIG    1       25.170 -13.993   3.608  0.00  0.00    +0.011 C 
ATOM     18  C   LIG    1       25.860 -13.520   4.905  0.00  0.00    +0.027 C 
ATOM     19  C   LIG    1       23.849 -13.217   3.457  0.00  0.00    +0.027 C 
ATOM     20  C   LIG    1       26.104 -13.661   2.432  0.00  0.00    +0.027 C 
ENDBRANCH  15  17
ENDBRANCH  14  15
ENDBRANCH  11  14
ENDBRANCH   1  11
TORSDOF 7
ENDMDL
MODEL 8
REMARK VINA RESULT:      -3.7      1.821      2.768
REMARK  Name = *****
REMARK                            x       y       z     vdW  Elec       q    Type
REMARK                         _______ _______ _______ _____ _____    ______ ____
ROOT
ATOM      1  C   LIG    1       26.126 -18.182   3.301  0.00  0.00    +0.261 C 
ENDROOT
BRANCH   1   2
ATOM      2  O   LIG    1       26.507 -16.814   3.164  0.00  0.00    -0.488 OA
BRANCH   2   6
ATOM      3  C   LIG    1       22.196 -15.410   5.228  0.00  0.00    +0.044 C 
ATOM      4  C   LIG    1       23.502 -15.087   4.554  0.00  0.00    -0.047 A 
ATOM      5  C   LIG    1       24.372 -16.135   4.175  0.00  0.00    +0.050 A 
ATOM      6  C   LIG    1       25.601 -15.852   3.556  0.00  0.00    +0.139 A 
ATOM      7  C   LIG    1       25.959 -14.516   3.352  0.00  0.00    +0.083 A 
ATOM      8 CL   LIG    1       27.456 -14.087   2.601  0.00  0.00    -0.080 Cl
ATOM      9  C   LIG    1       25.107 -13.471   3.741  0.00  0.00    +0.024 A 
ATOM     10  C   LIG    1       23.881 -13.767   4.342  0.00  0.00    +0.005 A 
ENDBRANCH   2   6
ENDBRANCH   1   2
BRANCH   1  11
ATOM     11  C   LIG    1       26.589 -18.739   4.668  0.00  0.00    +0.166 C 
BRANCH  11  12
ATOM     12  O   LIG    1       28.019 -18.785   4.780  0.00  0.00    -0.387 OA
ATOM     13  H   LIG    1       28.389 -18.562   3.907  0.00  0.00    +0.210 HD
ENDBRANCH  11  12
BRANCH  11  14
ATOM     14  C   LIG    1       26.060 -20.178   4.825  0.00  0.00    +0.116 C 
BRANCH  14  15
ATOM     15  N   LIG    1       24.914 -20.298   5.742  0.00  0.00    -0.309 NA
ATOM     16  H   LIG    1       25.138 -21.019   6.434  0.00  0.00    +0.122 HD
BRANCH  15  17
ATOM     17  C   LIG    1       23.627 -20.592   5.074  0.00  0.00    +0.011 C 
ATOM     18  C   LIG    1       22.820 -21.571   5.952  0.00  0.00    +0.027 C 
ATOM     19  C   LIG    1       23.823 -21.239   3.691  0.00  0.00    +0.027 C 
ATOM     20  C   LIG    1       22.802 -19.302   4.929  0.00  0.00    +0.027 C 
ENDBRANCH  15  17
ENDBRANCH  14  15
ENDBRANCH  11  14
ENDBRANCH   1  11
TORSDOF 7
ENDMDL
MODEL 9
REMARK VINA RESULT:      -3.7      2.530      6.834
REMARK  Name = *****
REMARK                            x       y       z     vdW  Elec       q    Type
REMARK                         _______ _______ _______ _____ _____    ______ ____
ROOT
ATOM      1  C   LIG    1       23.186 -15.993   4.456  0.00  0.00    +0.261 C 
ENDROOT
BRANCH   1   2
ATOM      2  O   LIG    1       23.642 -16.940   3.492  0.00  0.00    -0.488 OA
BRANCH   2   6
ATOM      3  C   LIG    1       21.744 -21.229   5.168  0.00  0.00    +0.044 C 
ATOM      4  C   LIG    1       22.907 -20.392   4.711  0.00  0.00    -0.047 A 
ATOM      5  C   LIG    1       22.695 -19.047   4.330  0.00  0.00    +0.050 A 
ATOM      6  C   LIG    1       23.767 -18.253   3.888  0.00  0.00    +0.139 A 
ATOM      7  C   LIG    1       25.039 -18.828   3.805  0.00  0.00    +0.083 A 
ATOM      8 CL   LIG    1       26.407 -17.918   3.268  0.00  0.00    -0.080 Cl
ATOM      9  C   LIG    1       25.253 -20.167   4.167  0.00  0.00    +0.024 A 
ATOM     10  C   LIG    1       24.181 -20.940   4.619  0.00  0.00    +0.005 A 
ENDBRANCH   2   6
ENDBRANCH   1   2
BRANCH   1  11
ATOM     11  C   LIG    1       23.828 -14.609   4.202  0.00  0.00    +0.166 C 
BRANCH  11  12
ATOM     12  O   LIG    1       23.084 -13.831   3.254  0.00  0.00    -0.387 OA
ATOM     13  H   LIG    1       22.189 -13.703   3.617  0.00  0.00    +0.210 HD
ENDBRANCH  11  12
BRANCH  11  14
ATOM     14  C   LIG    1       25.245 -14.813   3.631  0.00  0.00    +0.116 C 
BRANCH  14  15
ATOM     15  N   LIG    1       26.069 -13.592   3.621  0.00  0.00    -0.309 NA
ATOM     16  H   LIG    1       26.228 -13.327   2.645  0.00  0.00    +0.122 HD
BRANCH  15  17
ATOM     17  C   LIG    1       27.351 -13.716   4.348  0.00  0.00    +0.011 C 
ATOM     18  C   LIG    1       27.120 -13.362   5.832  0.00  0.00    +0.027 C 
ATOM     19  C   LIG    1       28.431 -12.769   3.793  0.00  0.00    +0.027 C 
ATOM     20  C   LIG    1       27.854 -15.169   4.284  0.00  0.00    +0.027 C 
ENDBRANCH  15  17
ENDBRANCH  14  15
ENDBRANCH  11  14
ENDBRANCH   1  11
TORSDOF 7
ENDMDL
