MODEL 1
REMARK VINA RESULT:      -4.4      0.000      0.000
REMARK  Name = *****
REMARK                            x       y       z     vdW  Elec       q    Type
REMARK                         _______ _______ _______ _____ _____    ______ ____
ROOT
ATOM      1  O   LIG    1       25.766 -16.942   2.852  0.00  0.00    -0.461 OA
ENDROOT
BRANCH   1   2
ATOM      2  C   LIG    1       26.021 -15.684   3.497  0.00  0.00    +0.187 C 
ATOM      3  C   LIG    1       24.668 -15.228   4.061  0.00  0.00    +0.099 C 
ATOM      4  C   LIG    1       24.596 -13.724   4.332  0.00  0.00    +0.070 C 
ATOM      5  N   LIG    1       24.912 -12.951   3.039  0.00  0.00    +0.243 N 
ATOM      6  C   LIG    1       26.429 -13.218   2.933  0.00  0.00    +0.070 C 
ATOM      7  C   LIG    1       26.919 -12.972   4.370  0.00  0.00    +0.060 C 
ATOM      8  C   LIG    1       24.102 -13.377   1.812  0.00  0.00    +0.192 C 
ATOM      9  C   LIG    1       24.612 -11.447   3.209  0.00  0.00    +0.192 C 
ATOM     10  C   LIG    1       25.729 -13.298   5.278  0.00  0.00    +0.060 C 
ATOM     11  C   LIG    1       26.662 -14.681   2.522  0.00  0.00    +0.099 C 
ENDBRANCH   1   2
BRANCH   1  12
ATOM     12  C   LIG    1       26.095 -18.071   3.540  0.00  0.00    +0.310 C 
ATOM     13  O   LIG    1       27.156 -18.231   4.120  0.00  0.00    -0.251 OA
BRANCH  12  14
ATOM     14  C   LIG    1       24.935 -19.062   3.551  0.00  0.00    +0.098 C 
BRANCH  14  15
ATOM     15  C   LIG    1       25.448 -20.368   4.203  0.00  0.00    +0.014 C 
BRANCH  15  17
ATOM     16  C   LIG    1       26.622 -20.914   6.396  0.00  0.00    +0.004 C 
ATOM     17  C   LIG    1       25.349 -20.396   5.733  0.00  0.00    -0.003 C 
ENDBRANCH  15  17
ENDBRANCH  14  15
BRANCH  14  18
ATOM     18  C   LIG    1       23.684 -18.476   4.243  0.00  0.00    +0.014 C 
BRANCH  18  19
ATOM     19  C   LIG    1       22.404 -19.260   3.916  0.00  0.00    -0.003 C 
ATOM     20  C   LIG    1       22.110 -20.332   4.955  0.00  0.00    +0.004 C 
ENDBRANCH  18  19
ENDBRANCH  14  18
ENDBRANCH  12  14
ENDBRANCH   1  12
TORSDOF 7
ENDMDL
MODEL 2
REMARK VINA RESULT:      -4.0      0.646      2.107
REMARK  Name = *****
REMARK                            x       y       z     vdW  Elec       q    Type
REMARK                         _______ _______ _______ _____ _____    ______ ____
ROOT
ATOM      1  O   LIG    1       25.787 -16.990   3.142  0.00  0.00    -0.461 OA
ENDROOT
BRANCH   1   2
ATOM      2  C   LIG    1       26.098 -15.689   3.666  0.00  0.00    +0.187 C 
ATOM      3  C   LIG    1       24.773 -15.136   4.209  0.00  0.00    +0.099 C 
ATOM      4  C   LIG    1       24.759 -13.612   4.344  0.00  0.00    +0.070 C 
ATOM      5  N   LIG    1       25.075 -12.970   2.981  0.00  0.00    +0.243 N 
ATOM      6  C   LIG    1       26.579 -13.300   2.874  0.00  0.00    +0.070 C 
ATOM      7  C   LIG    1       27.107 -12.943   4.274  0.00  0.00    +0.060 C 
ATOM      8  C   LIG    1       24.226 -13.475   1.812  0.00  0.00    +0.192 C 
ATOM      9  C   LIG    1       24.831 -11.447   3.019  0.00  0.00    +0.192 C 
ATOM     10  C   LIG    1       25.925 -13.144   5.228  0.00  0.00    +0.060 C 
ATOM     11  C   LIG    1       26.753 -14.801   2.593  0.00  0.00    +0.099 C 
ENDBRANCH   1   2
BRANCH   1  12
ATOM     12  C   LIG    1       26.275 -18.066   3.821  0.00  0.00    +0.310 C 
ATOM     13  O   LIG    1       27.457 -18.244   4.056  0.00  0.00    -0.251 OA
BRANCH  12  14
ATOM     14  C   LIG    1       25.142 -18.964   4.307  0.00  0.00    +0.098 C 
BRANCH  14  15
ATOM     15  C   LIG    1       23.954 -18.781   3.332  0.00  0.00    +0.014 C 
BRANCH  15  17
ATOM     16  C   LIG    1       22.131 -17.619   4.678  0.00  0.00    +0.004 C 
ATOM     17  C   LIG    1       22.572 -18.904   3.983  0.00  0.00    -0.003 C 
ENDBRANCH  15  17
ENDBRANCH  14  15
BRANCH  14  18
ATOM     18  C   LIG    1       25.596 -20.433   4.460  0.00  0.00    +0.014 C 
BRANCH  18  19
ATOM     19  C   LIG    1       25.826 -20.833   5.925  0.00  0.00    -0.003 C 
ATOM     20  C   LIG    1       24.517 -21.030   6.676  0.00  0.00    +0.004 C 
ENDBRANCH  18  19
ENDBRANCH  14  18
ENDBRANCH  12  14
ENDBRANCH   1  12
TORSDOF 7
ENDMDL
MODEL 3
REMARK VINA RESULT:      -4.0      1.077      3.061
REMARK  Name = *****
REMARK                            x       y       z     vdW  Elec       q    Type
REMARK                         _______ _______ _______ _____ _____    ______ ____
ROOT
ATOM      1  O   LIG    1       26.365 -17.162   3.598  0.00  0.00    -0.461 OA
ENDROOT
BRANCH   1   2
ATOM      2  C   LIG    1       25.701 -15.946   3.216  0.00  0.00    +0.187 C 
ATOM      3  C   LIG    1       26.806 -14.883   3.129  0.00  0.00    +0.099 C 
ATOM      4  C   LIG    1       26.283 -13.450   3.238  0.00  0.00    +0.070 C 
ATOM      5  N   LIG    1       25.500 -13.285   4.553  0.00  0.00    +0.243 N 
ATOM      6  C   LIG    1       24.233 -14.098   4.212  0.00  0.00    +0.070 C 
ATOM      7  C   LIG    1       23.886 -13.611   2.795  0.00  0.00    +0.060 C 
ATOM      8  C   LIG    1       26.237 -13.750   5.812  0.00  0.00    +0.192 C 
ATOM      9  C   LIG    1       25.168 -11.801   4.814  0.00  0.00    +0.192 C 
ATOM     10  C   LIG    1       25.217 -13.188   2.163  0.00  0.00    +0.060 C 
ATOM     11  C   LIG    1       24.575 -15.596   4.204  0.00  0.00    +0.099 C 
ENDBRANCH   1   2
BRANCH   1  12
ATOM     12  C   LIG    1       25.777 -18.333   3.226  0.00  0.00    +0.310 C 
ATOM     13  O   LIG    1       25.708 -18.727   2.075  0.00  0.00    -0.251 OA
BRANCH  12  14
ATOM     14  C   LIG    1       25.293 -19.112   4.446  0.00  0.00    +0.098 C 
BRANCH  14  15
ATOM     15  C   LIG    1       24.018 -19.882   4.027  0.00  0.00    +0.014 C 
BRANCH  15  17
ATOM     16  C   LIG    1       22.072 -18.304   4.483  0.00  0.00    +0.004 C 
ATOM     17  C   LIG    1       22.786 -19.589   4.891  0.00  0.00    -0.003 C 
ENDBRANCH  15  17
ENDBRANCH  14  15
BRANCH  14  18
ATOM     18  C   LIG    1       26.400 -20.018   5.028  0.00  0.00    +0.014 C 
BRANCH  18  19
ATOM     19  C   LIG    1       26.090 -20.490   6.457  0.00  0.00    -0.003 C 
ATOM     20  C   LIG    1       27.238 -21.290   7.055  0.00  0.00    +0.004 C 
ENDBRANCH  18  19
ENDBRANCH  14  18
ENDBRANCH  12  14
ENDBRANCH   1  12
TORSDOF 7
ENDMDL
MODEL 4
REMARK VINA RESULT:      -3.7      1.290      2.218
REMARK  Name = *****
REMARK                            x       y       z     vdW  Elec       q    Type
REMARK                         _______ _______ _______ _____ _____    ______ ____
ROOT
ATOM      1  O   LIG    1       24.805 -17.051   3.918  0.00  0.00    -0.461 OA
ENDROOT
BRANCH   1   2
ATOM      2  C   LIG    1       25.327 -15.831   3.368  0.00  0.00    +0.187 C 
ATOM      3  C   LIG    1       26.843 -15.890   3.600  0.00  0.00    +0.099 C 
ATOM      4  C   LIG    1       27.520 -14.519   3.560  0.00  0.00    +0.070 C 
ATOM      5  N   LIG    1       26.867 -13.591   4.600  0.00  0.00    +0.243 N 
ATOM      6  C   LIG    1       25.509 -13.334   3.913  0.00  0.00    +0.070 C 
ATOM      7  C   LIG    1       25.913 -13.047   2.457  0.00  0.00    +0.060 C 
ATOM      8  C   LIG    1       26.767 -14.168   6.014  0.00  0.00    +0.192 C 
ATOM      9  C   LIG    1       27.676 -12.287   4.761  0.00  0.00    +0.192 C 
ATOM     10  C   LIG    1       27.219 -13.814   2.228  0.00  0.00    +0.060 C 
ATOM     11  C   LIG    1       24.646 -14.603   3.998  0.00  0.00    +0.099 C 
ENDBRANCH   1   2
BRANCH   1  12
ATOM     12  C   LIG    1       25.137 -18.210   3.283  0.00  0.00    +0.310 C 
ATOM     13  O   LIG    1       26.100 -18.332   2.546  0.00  0.00    -0.251 OA
BRANCH  12  14
ATOM     14  C   LIG    1       24.192 -19.340   3.681  0.00  0.00    +0.098 C 
BRANCH  14  15
ATOM     15  C   LIG    1       25.056 -20.474   4.284  0.00  0.00    +0.014 C 
BRANCH  15  17
ATOM     16  C   LIG    1       26.136 -20.587   6.587  0.00  0.00    +0.004 C 
ATOM     17  C   LIG    1       26.200 -19.992   5.183  0.00  0.00    -0.003 C 
ENDBRANCH  15  17
ENDBRANCH  14  15
BRANCH  14  18
ATOM     18  C   LIG    1       23.071 -18.849   4.623  0.00  0.00    +0.014 C 
BRANCH  18  19
ATOM     19  C   LIG    1       22.608 -19.933   5.609  0.00  0.00    -0.003 C 
ATOM     20  C   LIG    1       21.844 -21.049   4.913  0.00  0.00    +0.004 C 
ENDBRANCH  18  19
ENDBRANCH  14  18
ENDBRANCH  12  14
ENDBRANCH   1  12
TORSDOF 7
ENDMDL
MODEL 5
REMARK VINA RESULT:      -3.6      1.392      2.518
REMARK  Name = *****
REMARK                            x       y       z     vdW  Elec       q    Type
REMARK                         _______ _______ _______ _____ _____    ______ ____
ROOT
ATOM      1  O   LIG    1       26.115 -17.328   3.536  0.00  0.00    -0.461 OA
ENDROOT
BRANCH   1   2
ATOM      2  C   LIG    1       25.533 -16.060   3.193  0.00  0.00    +0.187 C 
ATOM      3  C   LIG    1       26.716 -15.095   3.028  0.00  0.00    +0.099 C 
ATOM      4  C   LIG    1       26.325 -13.623   3.163  0.00  0.00    +0.070 C 
ATOM      5  N   LIG    1       25.648 -13.392   4.526  0.00  0.00    +0.243 N 
ATOM      6  C   LIG    1       24.296 -14.094   4.274  0.00  0.00    +0.070 C 
ATOM      7  C   LIG    1       23.899 -13.579   2.881  0.00  0.00    +0.060 C 
ATOM      8  C   LIG    1       26.424 -13.919   5.736  0.00  0.00    +0.192 C 
ATOM      9  C   LIG    1       25.461 -11.885   4.802  0.00  0.00    +0.192 C 
ATOM     10  C   LIG    1       25.215 -13.270   2.160  0.00  0.00    +0.060 C 
ATOM     11  C   LIG    1       24.508 -15.616   4.252  0.00  0.00    +0.099 C 
ENDBRANCH   1   2
BRANCH   1  12
ATOM     12  C   LIG    1       25.266 -18.385   3.672  0.00  0.00    +0.310 C 
ATOM     13  O   LIG    1       24.103 -18.376   3.306  0.00  0.00    -0.251 OA
BRANCH  12  14
ATOM     14  C   LIG    1       25.986 -19.591   4.267  0.00  0.00    +0.098 C 
BRANCH  14  15
ATOM     15  C   LIG    1       27.386 -19.116   4.723  0.00  0.00    +0.014 C 
BRANCH  15  17
ATOM     16  C   LIG    1       29.325 -19.361   6.355  0.00  0.00    +0.004 C 
ATOM     17  C   LIG    1       27.957 -19.880   5.923  0.00  0.00    -0.003 C 
ENDBRANCH  15  17
ENDBRANCH  14  15
BRANCH  14  18
ATOM     18  C   LIG    1       25.162 -20.257   5.391  0.00  0.00    +0.014 C 
BRANCH  18  19
ATOM     19  C   LIG    1       24.193 -21.326   4.862  0.00  0.00    -0.003 C 
ATOM     20  C   LIG    1       22.752 -21.032   5.251  0.00  0.00    +0.004 C 
ENDBRANCH  18  19
ENDBRANCH  14  18
ENDBRANCH  12  14
ENDBRANCH   1  12
TORSDOF 7
ENDMDL
MODEL 6
REMARK VINA RESULT:      -3.4      2.059      6.690
REMARK  Name = *****
REMARK                            x       y       z     vdW  Elec       q    Type
REMARK                         _______ _______ _______ _____ _____    ______ ____
ROOT
ATOM      1  O   LIG    1       25.658 -17.388   2.932  0.00  0.00    -0.461 OA
ENDROOT
BRANCH   1   2
ATOM      2  C   LIG    1       25.448 -18.734   3.388  0.00  0.00    +0.187 C 
ATOM      3  C   LIG    1       24.207 -19.235   2.635  0.00  0.00    +0.099 C 
ATOM      4  C   LIG    1       23.517 -20.418   3.316  0.00  0.00    +0.070 C 
ATOM      5  N   LIG    1       23.135 -20.033   4.757  0.00  0.00    +0.243 N 
ATOM      6  C   LIG    1       24.534 -20.018   5.408  0.00  0.00    +0.070 C 
ATOM      7  C   LIG    1       25.173 -21.311   4.874  0.00  0.00    +0.060 C 
ATOM      8  C   LIG    1       22.353 -18.724   4.895  0.00  0.00    +0.192 C 
ATOM      9  C   LIG    1       22.226 -21.106   5.392  0.00  0.00    +0.192 C 
ATOM     10  C   LIG    1       24.512 -21.572   3.517  0.00  0.00    +0.060 C 
ATOM     11  C   LIG    1       25.312 -18.785   4.920  0.00  0.00    +0.099 C 
ENDBRANCH   1   2
BRANCH   1  12
ATOM     12  C   LIG    1       26.652 -16.676   3.535  0.00  0.00    +0.310 C 
ATOM     13  O   LIG    1       27.641 -17.179   4.038  0.00  0.00    -0.251 OA
BRANCH  12  14
ATOM     14  C   LIG    1       26.394 -15.176   3.422  0.00  0.00    +0.098 C 
BRANCH  14  15
ATOM     15  C   LIG    1       24.890 -14.943   3.695  0.00  0.00    +0.014 C 
BRANCH  15  17
ATOM     16  C   LIG    1       24.141 -12.521   3.455  0.00  0.00    +0.004 C 
ATOM     17  C   LIG    1       24.570 -13.627   4.414  0.00  0.00    -0.003 C 
ENDBRANCH  15  17
ENDBRANCH  14  15
BRANCH  14  18
ATOM     18  C   LIG    1       27.324 -14.361   4.349  0.00  0.00    +0.014 C 
BRANCH  18  19
ATOM     19  C   LIG    1       28.188 -13.349   3.581  0.00  0.00    -0.003 C 
ATOM     20  C   LIG    1       28.881 -12.366   4.513  0.00  0.00    +0.004 C 
ENDBRANCH  18  19
ENDBRANCH  14  18
ENDBRANCH  12  14
ENDBRANCH   1  12
TORSDOF 7
ENDMDL
MODEL 7
REMARK VINA RESULT:      -3.1      1.558      3.161
REMARK  Name = *****
REMARK                            x       y       z     vdW  Elec       q    Type
REMARK                         _______ _______ _______ _____ _____    ______ ____
ROOT
ATOM      1  O   LIG    1       23.564 -16.362   4.852  0.00  0.00    -0.461 OA
ENDROOT
BRANCH   1   2
ATOM      2  C   LIG    1       23.941 -15.289   3.974  0.00  0.00    +0.187 C 
ATOM      3  C   LIG    1       25.322 -15.672   3.425  0.00  0.00    +0.099 C 
ATOM      4  C   LIG    1       26.118 -14.480   2.890  0.00  0.00    +0.070 C 
ATOM      5  N   LIG    1       26.270 -13.423   3.999  0.00  0.00    +0.243 N 
ATOM      6  C   LIG    1       24.825 -12.886   4.055  0.00  0.00    +0.070 C 
ATOM      7  C   LIG    1       24.470 -12.706   2.570  0.00  0.00    +0.060 C 
ATOM      8  C   LIG    1       26.807 -13.952   5.332  0.00  0.00    +0.192 C 
ATOM      9  C   LIG    1       27.268 -12.323   3.579  0.00  0.00    +0.192 C 
ATOM     10  C   LIG    1       25.311 -13.739   1.813  0.00  0.00    +0.060 C 
ATOM     11  C   LIG    1       23.914 -13.937   4.709  0.00  0.00    +0.099 C 
ENDBRANCH   1   2
BRANCH   1  12
ATOM     12  C   LIG    1       22.686 -17.284   4.364  0.00  0.00    +0.310 C 
ATOM     13  O   LIG    1       21.647 -17.000   3.794  0.00  0.00    -0.251 OA
BRANCH  12  14
ATOM     14  C   LIG    1       23.219 -18.700   4.558  0.00  0.00    +0.098 C 
BRANCH  14  15
ATOM     15  C   LIG    1       22.003 -19.619   4.827  0.00  0.00    +0.014 C 
BRANCH  15  17
ATOM     16  C   LIG    1       23.033 -21.095   6.629  0.00  0.00    +0.004 C 
ATOM     17  C   LIG    1       22.366 -21.044   5.257  0.00  0.00    -0.003 C 
ENDBRANCH  15  17
ENDBRANCH  14  15
BRANCH  14  18
ATOM     18  C   LIG    1       24.087 -19.158   3.364  0.00  0.00    +0.014 C 
BRANCH  18  19
ATOM     19  C   LIG    1       25.586 -19.181   3.696  0.00  0.00    -0.003 C 
ATOM     20  C   LIG    1       25.918 -20.213   4.764  0.00  0.00    +0.004 C 
ENDBRANCH  18  19
ENDBRANCH  14  18
ENDBRANCH  12  14
ENDBRANCH   1  12
TORSDOF 7
ENDMDL
MODEL 8
REMARK VINA RESULT:      -3.0      2.042      6.294
REMARK  Name = *****
REMARK                            x       y       z     vdW  Elec       q    Type
REMARK                         _______ _______ _______ _____ _____    ______ ____
ROOT
ATOM      1  O   LIG    1       25.793 -17.411   2.978  0.00  0.00    -0.461 OA
ENDROOT
BRANCH   1   2
ATOM      2  C   LIG    1       25.529 -18.736   3.468  0.00  0.00    +0.187 C 
ATOM      3  C   LIG    1       24.368 -19.266   2.615  0.00  0.00    +0.099 C 
ATOM      4  C   LIG    1       23.605 -20.417   3.272  0.00  0.00    +0.070 C 
ATOM      5  N   LIG    1       23.081 -19.970   4.648  0.00  0.00    +0.243 N 
ATOM      6  C   LIG    1       24.407 -19.929   5.437  0.00  0.00    +0.070 C 
ATOM      7  C   LIG    1       25.088 -21.246   5.027  0.00  0.00    +0.060 C 
ATOM      8  C   LIG    1       22.298 -18.654   4.650  0.00  0.00    +0.192 C 
ATOM      9  C   LIG    1       22.105 -21.012   5.233  0.00  0.00    +0.192 C 
ATOM     10  C   LIG    1       24.566 -21.564   3.622  0.00  0.00    +0.060 C 
ATOM     11  C   LIG    1       25.238 -18.720   4.978  0.00  0.00    +0.099 C 
ENDBRANCH   1   2
BRANCH   1  12
ATOM     12  C   LIG    1       26.742 -16.685   3.633  0.00  0.00    +0.310 C 
ATOM     13  O   LIG    1       27.817 -17.134   3.993  0.00  0.00    -0.251 OA
BRANCH  12  14
ATOM     14  C   LIG    1       26.311 -15.229   3.779  0.00  0.00    +0.098 C 
BRANCH  14  15
ATOM     15  C   LIG    1       27.234 -14.379   2.874  0.00  0.00    +0.014 C 
BRANCH  15  17
ATOM     16  C   LIG    1       27.777 -13.304   5.118  0.00  0.00    +0.004 C 
ATOM     17  C   LIG    1       28.073 -13.336   3.621  0.00  0.00    -0.003 C 
ENDBRANCH  15  17
ENDBRANCH  14  15
BRANCH  14  18
ATOM     18  C   LIG    1       24.807 -15.041   3.480  0.00  0.00    +0.014 C 
BRANCH  18  19
ATOM     19  C   LIG    1       24.437 -13.576   3.203  0.00  0.00    -0.003 C 
ATOM     20  C   LIG    1       24.258 -12.780   4.487  0.00  0.00    +0.004 C 
ENDBRANCH  18  19
ENDBRANCH  14  18
ENDBRANCH  12  14
ENDBRANCH   1  12
TORSDOF 7
ENDMDL
MODEL 9
REMARK VINA RESULT:      -2.6      1.487      2.592
REMARK  Name = *****
REMARK                            x       y       z     vdW  Elec       q    Type
REMARK                         _______ _______ _______ _____ _____    ______ ____
ROOT
ATOM      1  O   LIG    1       24.101 -16.837   4.281  0.00  0.00    -0.461 OA
ENDROOT
BRANCH   1   2
ATOM      2  C   LIG    1       24.722 -15.780   3.530  0.00  0.00    +0.187 C 
ATOM      3  C   LIG    1       26.231 -16.047   3.615  0.00  0.00    +0.099 C 
ATOM      4  C   LIG    1       27.085 -14.810   3.334  0.00  0.00    +0.070 C 
ATOM      5  N   LIG    1       26.697 -13.683   4.308  0.00  0.00    +0.243 N 
ATOM      6  C   LIG    1       25.318 -13.297   3.733  0.00  0.00    +0.070 C 
ATOM      7  C   LIG    1       25.584 -13.238   2.219  0.00  0.00    +0.060 C 
ATOM      8  C   LIG    1       26.684 -14.077   5.787  0.00  0.00    +0.192 C 
ATOM      9  C   LIG    1       27.696 -12.510   4.220  0.00  0.00    +0.192 C 
ATOM     10  C   LIG    1       26.733 -14.219   1.961  0.00  0.00    +0.060 C 
ATOM     11  C   LIG    1       24.300 -14.400   4.064  0.00  0.00    +0.099 C 
ENDBRANCH   1   2
BRANCH   1  12
ATOM     12  C   LIG    1       24.228 -18.103   3.792  0.00  0.00    +0.310 C 
ATOM     13  O   LIG    1       25.243 -18.534   3.273  0.00  0.00    -0.251 OA
BRANCH  12  14
ATOM     14  C   LIG    1       22.966 -18.919   4.054  0.00  0.00    +0.098 C 
BRANCH  14  15
ATOM     15  C   LIG    1       23.243 -19.816   5.284  0.00  0.00    +0.014 C 
BRANCH  15  17
ATOM     16  C   LIG    1       25.128 -21.526   5.361  0.00  0.00    +0.004 C 
ATOM     17  C   LIG    1       23.688 -21.242   4.943  0.00  0.00    -0.003 C 
ENDBRANCH  15  17
ENDBRANCH  14  15
BRANCH  14  18
ATOM     18  C   LIG    1       21.721 -18.018   4.213  0.00  0.00    +0.014 C 
BRANCH  18  19
ATOM     19  C   LIG    1       20.790 -18.073   2.992  0.00  0.00    -0.003 C 
ATOM     20  C   LIG    1       19.517 -18.856   3.280  0.00  0.00    +0.004 C 
ENDBRANCH  18  19
ENDBRANCH  14  18
ENDBRANCH  12  14
ENDBRANCH   1  12
TORSDOF 7
ENDMDL
