MODEL 1
REMARK VINA RESULT:      -1.4      0.000      0.000
REMARK  Name = *****
REMARK                            x       y       z     vdW  Elec       q    Type
REMARK                         _______ _______ _______ _____ _____    ______ ____
ROOT
ATOM      1  C   LIG    1       25.824 -15.549   3.694  0.00  0.00    +0.146 C 
ENDROOT
BRANCH   1   2
ATOM      2  C   LIG    1       24.458 -16.226   3.993  0.00  0.00    -0.004 A 
ATOM      3  C   LIG    1       24.262 -17.597   3.747  0.00  0.00    +0.007 A 
ATOM      4  C   LIG    1       23.034 -18.235   3.953  0.00  0.00    +0.000 A 
ATOM      5  C   LIG    1       21.968 -17.534   4.495  0.00  0.00    +0.000 A 
ATOM      6  C   LIG    1       22.139 -16.193   4.822  0.00  0.00    +0.000 A 
ATOM      7  C   LIG    1       23.362 -15.544   4.564  0.00  0.00    +0.007 A 
ENDBRANCH   1   2
BRANCH   1   8
ATOM      8  C   LIG    1       26.316 -14.598   4.886  0.00  0.00    +0.049 C 
ATOM      9  C   LIG    1       25.501 -13.264   4.923  0.00  0.00    +0.013 C 
BRANCH   8  10
ATOM     10  C   LIG    1       27.831 -14.177   4.907  0.00  0.00    +0.091 C 
BRANCH  10  11
ATOM     11  N   LIG    1       28.305 -12.861   4.438  0.00  0.00    -0.308 NA
ATOM     12  C   LIG    1       29.348 -12.903   3.410  0.00  0.00    +0.104 C 
ATOM     13  C   LIG    1       28.798 -12.068   5.574  0.00  0.00    +0.104 C 
ENDBRANCH  10  11
ENDBRANCH   8  10
ENDBRANCH   1   8
BRANCH   1  14
ATOM     14  O   LIG    1       25.677 -14.843   2.411  0.00  0.00    -0.453 OA
BRANCH  14  15
ATOM     15  C   LIG    1       25.616 -13.493   2.201  0.00  0.00    +0.308 C 
ATOM     16  O   LIG    1       26.547 -12.729   2.125  0.00  0.00    -0.251 OA
BRANCH  15  18
ATOM     17  C   LIG    1       23.945 -11.551   2.276  0.00  0.00    +0.015 C 
ATOM     18  C   LIG    1       24.145 -13.058   2.211  0.00  0.00    +0.117 C 
ENDBRANCH  15  18
ENDBRANCH  14  15
ENDBRANCH   1  14
BRANCH   1  19
ATOM     19  C   LIG    1       26.972 -16.596   3.333  0.00  0.00    +0.088 C 
BRANCH  19  20
ATOM     20  C   LIG    1       27.504 -17.635   4.336  0.00  0.00    -0.043 A 
ATOM     21  C   LIG    1       28.775 -17.500   4.917  0.00  0.00    +0.004 A 
ATOM     22  C   LIG    1       29.375 -18.550   5.627  0.00  0.00    +0.000 A 
ATOM     23  C   LIG    1       28.706 -19.755   5.798  0.00  0.00    +0.000 A 
ATOM     24  C   LIG    1       27.417 -19.894   5.290  0.00  0.00    +0.000 A 
ATOM     25  C   LIG    1       26.824 -18.846   4.566  0.00  0.00    +0.004 A 
ENDBRANCH  19  20
ENDBRANCH   1  19
TORSDOF 9
ENDMDL
MODEL 2
REMARK VINA RESULT:      -0.9      2.110      4.866
REMARK  Name = *****
REMARK                            x       y       z     vdW  Elec       q    Type
REMARK                         _______ _______ _______ _____ _____    ______ ____
ROOT
ATOM      1  C   LIG    1       24.992 -15.385   3.834  0.00  0.00    +0.146 C 
ENDROOT
BRANCH   1   2
ATOM      2  C   LIG    1       24.887 -13.999   3.141  0.00  0.00    -0.004 A 
ATOM      3  C   LIG    1       25.968 -13.472   2.413  0.00  0.00    +0.007 A 
ATOM      4  C   LIG    1       25.935 -12.206   1.817  0.00  0.00    +0.000 A 
ATOM      5  C   LIG    1       24.775 -11.447   1.860  0.00  0.00    +0.000 A 
ATOM      6  C   LIG    1       23.657 -11.961   2.508  0.00  0.00    +0.000 A 
ATOM      7  C   LIG    1       23.714 -13.213   3.150  0.00  0.00    +0.007 A 
ENDBRANCH   1   2
BRANCH   1   8
ATOM      8  C   LIG    1       23.561 -16.059   4.086  0.00  0.00    +0.049 C 
ATOM      9  C   LIG    1       22.903 -15.526   5.401  0.00  0.00    +0.013 C 
BRANCH   8  10
ATOM     10  C   LIG    1       23.498 -17.628   4.180  0.00  0.00    +0.091 C 
BRANCH  10  11
ATOM     11  N   LIG    1       22.323 -18.354   4.701  0.00  0.00    -0.308 NA
ATOM     12  C   LIG    1       22.586 -19.724   5.151  0.00  0.00    +0.104 C 
ATOM     13  C   LIG    1       21.261 -18.390   3.684  0.00  0.00    +0.104 C 
ENDBRANCH  10  11
ENDBRANCH   8  10
ENDBRANCH   1   8
BRANCH   1  14
ATOM     14  O   LIG    1       25.765 -15.186   5.070  0.00  0.00    -0.453 OA
BRANCH  14  15
ATOM     15  C   LIG    1       26.433 -14.061   5.467  0.00  0.00    +0.308 C 
ATOM     16  O   LIG    1       25.961 -13.090   6.007  0.00  0.00    -0.251 OA
BRANCH  15  18
ATOM     17  C   LIG    1       28.451 -12.850   4.451  0.00  0.00    +0.015 C 
ATOM     18  C   LIG    1       27.888 -14.156   4.991  0.00  0.00    +0.117 C 
ENDBRANCH  15  18
ENDBRANCH  14  15
ENDBRANCH   1  14
BRANCH   1  19
ATOM     19  C   LIG    1       25.935 -16.404   3.048  0.00  0.00    +0.088 C 
BRANCH  19  20
ATOM     20  C   LIG    1       26.692 -17.550   3.742  0.00  0.00    -0.043 A 
ATOM     21  C   LIG    1       26.084 -18.797   3.959  0.00  0.00    +0.004 A 
ATOM     22  C   LIG    1       26.657 -19.758   4.803  0.00  0.00    +0.000 A 
ATOM     23  C   LIG    1       27.870 -19.508   5.433  0.00  0.00    +0.000 A 
ATOM     24  C   LIG    1       28.527 -18.306   5.184  0.00  0.00    +0.000 A 
ATOM     25  C   LIG    1       27.944 -17.338   4.349  0.00  0.00    +0.004 A 
ENDBRANCH  19  20
ENDBRANCH   1  19
TORSDOF 9
ENDMDL
MODEL 3
REMARK VINA RESULT:       0.1      2.870      6.545
REMARK  Name = *****
REMARK                            x       y       z     vdW  Elec       q    Type
REMARK                         _______ _______ _______ _____ _____    ______ ____
ROOT
ATOM      1  C   LIG    1       25.750 -19.064   4.187  0.00  0.00    +0.146 C 
ENDROOT
BRANCH   1   2
ATOM      2  C   LIG    1       26.804 -19.611   5.189  0.00  0.00    -0.004 A 
ATOM      3  C   LIG    1       28.119 -19.113   5.197  0.00  0.00    +0.007 A 
ATOM      4  C   LIG    1       29.112 -19.612   6.047  0.00  0.00    +0.000 A 
ATOM      5  C   LIG    1       28.801 -20.584   6.986  0.00  0.00    +0.000 A 
ATOM      6  C   LIG    1       27.495 -21.054   7.062  0.00  0.00    +0.000 A 
ATOM      7  C   LIG    1       26.512 -20.585   6.169  0.00  0.00    +0.007 A 
ENDBRANCH   1   2
BRANCH   1   8
ATOM      8  C   LIG    1       24.425 -18.533   4.913  0.00  0.00    +0.049 C 
ATOM      9  C   LIG    1       23.864 -19.589   5.921  0.00  0.00    +0.013 C 
BRANCH   8  10
ATOM     10  C   LIG    1       23.210 -18.118   4.005  0.00  0.00    +0.091 C 
BRANCH  10  11
ATOM     11  N   LIG    1       21.882 -17.772   4.550  0.00  0.00    -0.308 NA
ATOM     12  C   LIG    1       20.747 -18.106   3.686  0.00  0.00    +0.104 C 
ATOM     13  C   LIG    1       21.825 -16.336   4.863  0.00  0.00    +0.104 C 
ENDBRANCH  10  11
ENDBRANCH   8  10
ENDBRANCH   1   8
BRANCH   1  14
ATOM     14  O   LIG    1       25.488 -20.139   3.217  0.00  0.00    -0.453 OA
BRANCH  14  15
ATOM     15  C   LIG    1       24.289 -20.729   2.924  0.00  0.00    +0.308 C 
ATOM     16  O   LIG    1       23.618 -20.554   1.936  0.00  0.00    -0.251 OA
BRANCH  15  18
ATOM     17  C   LIG    1       22.376 -21.399   4.493  0.00  0.00    +0.015 C 
ATOM     18  C   LIG    1       23.844 -21.568   4.128  0.00  0.00    +0.117 C 
ENDBRANCH  15  18
ENDBRANCH  14  15
ENDBRANCH   1  14
BRANCH   1  19
ATOM     19  C   LIG    1       26.331 -17.928   3.230  0.00  0.00    +0.088 C 
BRANCH  19  20
ATOM     20  C   LIG    1       26.348 -16.438   3.613  0.00  0.00    -0.043 A 
ATOM     21  C   LIG    1       25.217 -15.627   3.430  0.00  0.00    +0.004 A 
ATOM     22  C   LIG    1       25.288 -14.231   3.532  0.00  0.00    +0.000 A 
ATOM     23  C   LIG    1       26.490 -13.609   3.848  0.00  0.00    +0.000 A 
ATOM     24  C   LIG    1       27.612 -14.393   4.100  0.00  0.00    +0.000 A 
ATOM     25  C   LIG    1       27.543 -15.791   3.983  0.00  0.00    +0.004 A 
ENDBRANCH  19  20
ENDBRANCH   1  19
TORSDOF 9
ENDMDL
MODEL 4
REMARK VINA RESULT:       0.4      2.565      5.726
REMARK  Name = *****
REMARK                            x       y       z     vdW  Elec       q    Type
REMARK                         _______ _______ _______ _____ _____    ______ ____
ROOT
ATOM      1  C   LIG    1       24.777 -18.347   3.886  0.00  0.00    +0.146 C 
ENDROOT
BRANCH   1   2
ATOM      2  C   LIG    1       25.526 -19.223   4.928  0.00  0.00    -0.004 A 
ATOM      3  C   LIG    1       24.823 -19.912   5.932  0.00  0.00    +0.007 A 
ATOM      4  C   LIG    1       25.461 -20.669   6.920  0.00  0.00    +0.000 A 
ATOM      5  C   LIG    1       26.838 -20.833   6.890  0.00  0.00    +0.000 A 
ATOM      6  C   LIG    1       27.567 -20.230   5.872  0.00  0.00    +0.000 A 
ATOM      7  C   LIG    1       26.924 -19.425   4.910  0.00  0.00    +0.007 A 
ENDBRANCH   1   2
BRANCH   1   8
ATOM      8  C   LIG    1       23.756 -17.316   4.566  0.00  0.00    +0.049 C 
ATOM      9  C   LIG    1       22.323 -17.930   4.689  0.00  0.00    +0.013 C 
BRANCH   8  10
ATOM     10  C   LIG    1       23.567 -15.915   3.878  0.00  0.00    +0.091 C 
BRANCH  10  11
ATOM     11  N   LIG    1       23.120 -14.715   4.612  0.00  0.00    -0.308 NA
ATOM     12  C   LIG    1       24.189 -13.802   5.025  0.00  0.00    +0.104 C 
ATOM     13  C   LIG    1       22.355 -15.109   5.805  0.00  0.00    +0.104 C 
ENDBRANCH  10  11
ENDBRANCH   8  10
ENDBRANCH   1   8
BRANCH   1  14
ATOM     14  O   LIG    1       24.126 -19.271   2.944  0.00  0.00    -0.453 OA
BRANCH  14  15
ATOM     15  C   LIG    1       23.739 -20.563   3.170  0.00  0.00    +0.308 C 
ATOM     16  O   LIG    1       24.354 -21.563   2.889  0.00  0.00    -0.251 OA
BRANCH  15  18
ATOM     17  C   LIG    1       22.145 -21.347   5.017  0.00  0.00    +0.015 C 
ATOM     18  C   LIG    1       22.309 -20.561   3.725  0.00  0.00    +0.117 C 
ENDBRANCH  15  18
ENDBRANCH  14  15
ENDBRANCH   1  14
BRANCH   1  19
ATOM     19  C   LIG    1       25.763 -17.562   2.909  0.00  0.00    +0.088 C 
BRANCH  19  20
ATOM     20  C   LIG    1       26.322 -16.164   3.228  0.00  0.00    -0.043 A 
ATOM     21  C   LIG    1       26.011 -15.056   2.425  0.00  0.00    +0.004 A 
ATOM     22  C   LIG    1       26.702 -13.842   2.545  0.00  0.00    +0.000 A 
ATOM     23  C   LIG    1       27.706 -13.696   3.495  0.00  0.00    +0.000 A 
ATOM     24  C   LIG    1       27.989 -14.757   4.350  0.00  0.00    +0.000 A 
ATOM     25  C   LIG    1       27.306 -15.978   4.217  0.00  0.00    +0.004 A 
ENDBRANCH  19  20
ENDBRANCH   1  19
TORSDOF 9
ENDMDL
MODEL 5
REMARK VINA RESULT:       0.5      1.766      4.547
REMARK  Name = *****
REMARK                            x       y       z     vdW  Elec       q    Type
REMARK                         _______ _______ _______ _____ _____    ______ ____
ROOT
ATOM      1  C   LIG    1       25.544 -15.267   3.626  0.00  0.00    +0.146 C 
ENDROOT
BRANCH   1   2
ATOM      2  C   LIG    1       26.616 -14.397   4.338  0.00  0.00    -0.004 A 
ATOM      3  C   LIG    1       26.425 -13.953   5.658  0.00  0.00    +0.007 A 
ATOM      4  C   LIG    1       27.340 -13.125   6.319  0.00  0.00    +0.000 A 
ATOM      5  C   LIG    1       28.532 -12.774   5.703  0.00  0.00    +0.000 A 
ATOM      6  C   LIG    1       28.795 -13.251   4.424  0.00  0.00    +0.000 A 
ATOM      7  C   LIG    1       27.847 -14.041   3.744  0.00  0.00    +0.007 A 
ENDBRANCH   1   2
BRANCH   1   8
ATOM      8  C   LIG    1       24.669 -14.432   2.575  0.00  0.00    +0.049 C 
ATOM      9  C   LIG    1       25.543 -13.381   1.813  0.00  0.00    +0.013 C 
BRANCH   8  10
ATOM     10  C   LIG    1       23.426 -13.641   3.124  0.00  0.00    +0.091 C 
BRANCH  10  11
ATOM     11  N   LIG    1       23.403 -12.171   3.250  0.00  0.00    -0.308 NA
ATOM     12  C   LIG    1       24.225 -11.448   2.277  0.00  0.00    +0.104 C 
ATOM     13  C   LIG    1       23.822 -11.775   4.604  0.00  0.00    +0.104 C 
ENDBRANCH  10  11
ENDBRANCH   8  10
ENDBRANCH   1   8
BRANCH   1  14
ATOM     14  O   LIG    1       24.736 -15.895   4.683  0.00  0.00    -0.453 OA
BRANCH  14  15
ATOM     15  C   LIG    1       23.380 -16.068   4.709  0.00  0.00    +0.308 C 
ATOM     16  O   LIG    1       22.573 -15.383   5.289  0.00  0.00    -0.251 OA
BRANCH  15  18
ATOM     17  C   LIG    1       22.151 -18.316   4.792  0.00  0.00    +0.015 C 
ATOM     18  C   LIG    1       23.034 -17.376   3.986  0.00  0.00    +0.117 C 
ENDBRANCH  15  18
ENDBRANCH  14  15
ENDBRANCH   1  14
BRANCH   1  19
ATOM     19  C   LIG    1       26.160 -16.552   2.911  0.00  0.00    +0.088 C 
BRANCH  19  20
ATOM     20  C   LIG    1       26.583 -17.817   3.680  0.00  0.00    -0.043 A 
ATOM     21  C   LIG    1       25.726 -18.924   3.786  0.00  0.00    +0.004 A 
ATOM     22  C   LIG    1       25.983 -19.970   4.683  0.00  0.00    +0.000 A 
ATOM     23  C   LIG    1       27.122 -19.951   5.478  0.00  0.00    +0.000 A 
ATOM     24  C   LIG    1       28.023 -18.898   5.346  0.00  0.00    +0.000 A 
ATOM     25  C   LIG    1       27.756 -17.842   4.458  0.00  0.00    +0.004 A 
ENDBRANCH  19  20
ENDBRANCH   1  19
TORSDOF 9
ENDMDL
MODEL 6
REMARK VINA RESULT:       0.5      3.089      6.279
REMARK  Name = *****
REMARK                            x       y       z     vdW  Elec       q    Type
REMARK                         _______ _______ _______ _____ _____    ______ ____
ROOT
ATOM      1  C   LIG    1       25.273 -18.747   3.967  0.00  0.00    +0.146 C 
ENDROOT
BRANCH   1   2
ATOM      2  C   LIG    1       23.979 -17.941   4.265  0.00  0.00    -0.004 A 
ATOM      3  C   LIG    1       23.986 -16.535   4.255  0.00  0.00    +0.007 A 
ATOM      4  C   LIG    1       22.857 -15.769   4.568  0.00  0.00    +0.000 A 
ATOM      5  C   LIG    1       21.644 -16.391   4.825  0.00  0.00    +0.000 A 
ATOM      6  C   LIG    1       21.574 -17.779   4.773  0.00  0.00    +0.000 A 
ATOM      7  C   LIG    1       22.726 -18.545   4.509  0.00  0.00    +0.007 A 
ENDBRANCH   1   2
BRANCH   1   8
ATOM      8  C   LIG    1       24.970 -20.203   3.371  0.00  0.00    +0.049 C 
ATOM      9  C   LIG    1       23.949 -20.133   2.187  0.00  0.00    +0.013 C 
BRANCH   8  10
ATOM     10  C   LIG    1       24.412 -21.294   4.356  0.00  0.00    +0.091 C 
BRANCH  10  11
ATOM     11  N   LIG    1       23.338 -21.022   5.331  0.00  0.00    -0.308 NA
ATOM     12  C   LIG    1       23.578 -21.533   6.682  0.00  0.00    +0.104 C 
ATOM     13  C   LIG    1       22.063 -21.570   4.842  0.00  0.00    +0.104 C 
ENDBRANCH  10  11
ENDBRANCH   8  10
ENDBRANCH   1   8
BRANCH   1  14
ATOM     14  O   LIG    1       26.049 -18.782   5.217  0.00  0.00    -0.453 OA
BRANCH  14  15
ATOM     15  C   LIG    1       26.870 -19.780   5.665  0.00  0.00    +0.308 C 
ATOM     16  O   LIG    1       26.572 -20.687   6.404  0.00  0.00    -0.251 OA
BRANCH  15  18
ATOM     17  C   LIG    1       29.217 -18.946   6.269  0.00  0.00    +0.015 C 
ATOM     18  C   LIG    1       28.299 -19.495   5.187  0.00  0.00    +0.117 C 
ENDBRANCH  15  18
ENDBRANCH  14  15
ENDBRANCH   1  14
BRANCH   1  19
ATOM     19  C   LIG    1       26.282 -17.972   3.006  0.00  0.00    +0.088 C 
BRANCH  19  20
ATOM     20  C   LIG    1       26.702 -16.509   3.236  0.00  0.00    -0.043 A 
ATOM     21  C   LIG    1       27.616 -16.165   4.245  0.00  0.00    +0.004 A 
ATOM     22  C   LIG    1       27.816 -14.834   4.635  0.00  0.00    +0.000 A 
ATOM     23  C   LIG    1       27.126 -13.806   4.004  0.00  0.00    +0.000 A 
ATOM     24  C   LIG    1       26.263 -14.112   2.955  0.00  0.00    +0.000 A 
ATOM     25  C   LIG    1       26.053 -15.449   2.577  0.00  0.00    +0.004 A 
ENDBRANCH  19  20
ENDBRANCH   1  19
TORSDOF 9
ENDMDL
MODEL 7
REMARK VINA RESULT:       0.6      1.578      4.673
REMARK  Name = *****
REMARK                            x       y       z     vdW  Elec       q    Type
REMARK                         _______ _______ _______ _____ _____    ______ ____
ROOT
ATOM      1  C   LIG    1       25.445 -15.865   3.526  0.00  0.00    +0.146 C 
ENDROOT
BRANCH   1   2
ATOM      2  C   LIG    1       24.239 -16.777   3.881  0.00  0.00    -0.004 A 
ATOM      3  C   LIG    1       24.282 -18.161   3.634  0.00  0.00    +0.007 A 
ATOM      4  C   LIG    1       23.200 -19.010   3.891  0.00  0.00    +0.000 A 
ATOM      5  C   LIG    1       22.051 -18.513   4.486  0.00  0.00    +0.000 A 
ATOM      6  C   LIG    1       21.992 -17.164   4.815  0.00  0.00    +0.000 A 
ATOM      7  C   LIG    1       23.064 -16.304   4.507  0.00  0.00    +0.007 A 
ENDBRANCH   1   2
BRANCH   1   8
ATOM      8  C   LIG    1       25.089 -14.779   2.404  0.00  0.00    +0.049 C 
ATOM      9  C   LIG    1       26.368 -14.023   1.915  0.00  0.00    +0.013 C 
BRANCH   8  10
ATOM     10  C   LIG    1       24.044 -13.663   2.772  0.00  0.00    +0.091 C 
BRANCH  10  11
ATOM     11  N   LIG    1       24.423 -12.255   3.006  0.00  0.00    -0.308 NA
ATOM     12  C   LIG    1       23.788 -11.623   4.165  0.00  0.00    +0.104 C 
ATOM     13  C   LIG    1       24.127 -11.449   1.812  0.00  0.00    +0.104 C 
ENDBRANCH  10  11
ENDBRANCH   8  10
ENDBRANCH   1   8
BRANCH   1  14
ATOM     14  O   LIG    1       26.552 -16.755   3.142  0.00  0.00    -0.453 OA
BRANCH  14  15
ATOM     15  C   LIG    1       27.119 -17.754   3.883  0.00  0.00    +0.308 C 
ATOM     16  O   LIG    1       26.645 -18.839   4.119  0.00  0.00    -0.251 OA
BRANCH  15  18
ATOM     17  C   LIG    1       29.111 -18.225   5.427  0.00  0.00    +0.015 C 
ATOM     18  C   LIG    1       28.422 -17.233   4.501  0.00  0.00    +0.117 C 
ENDBRANCH  15  18
ENDBRANCH  14  15
ENDBRANCH   1  14
BRANCH   1  19
ATOM     19  C   LIG    1       26.070 -15.136   4.800  0.00  0.00    +0.088 C 
BRANCH  19  20
ATOM     20  C   LIG    1       27.064 -13.967   4.691  0.00  0.00    -0.043 A 
ATOM     21  C   LIG    1       28.033 -13.927   3.676  0.00  0.00    +0.004 A 
ATOM     22  C   LIG    1       29.097 -13.015   3.708  0.00  0.00    +0.000 A 
ATOM     23  C   LIG    1       29.205 -12.097   4.746  0.00  0.00    +0.000 A 
ATOM     24  C   LIG    1       28.222 -12.070   5.731  0.00  0.00    +0.000 A 
ATOM     25  C   LIG    1       27.164 -12.995   5.705  0.00  0.00    +0.004 A 
ENDBRANCH  19  20
ENDBRANCH   1  19
TORSDOF 9
ENDMDL
MODEL 8
REMARK VINA RESULT:       1.2      1.795      5.019
REMARK  Name = *****
REMARK                            x       y       z     vdW  Elec       q    Type
REMARK                         _______ _______ _______ _____ _____    ______ ____
ROOT
ATOM      1  C   LIG    1       26.025 -16.264   3.669  0.00  0.00    +0.146 C 
ENDROOT
BRANCH   1   2
ATOM      2  C   LIG    1       24.595 -16.773   3.999  0.00  0.00    -0.004 A 
ATOM      3  C   LIG    1       24.253 -18.126   3.832  0.00  0.00    +0.007 A 
ATOM      4  C   LIG    1       22.964 -18.617   4.068  0.00  0.00    +0.000 A 
ATOM      5  C   LIG    1       21.979 -17.775   4.563  0.00  0.00    +0.000 A 
ATOM      6  C   LIG    1       22.293 -16.444   4.813  0.00  0.00    +0.000 A 
ATOM      7  C   LIG    1       23.578 -15.945   4.524  0.00  0.00    +0.007 A 
ENDBRANCH   1   2
BRANCH   1   8
ATOM      8  C   LIG    1       27.082 -17.457   3.503  0.00  0.00    +0.049 C 
ATOM      9  C   LIG    1       26.382 -18.778   3.043  0.00  0.00    +0.013 C 
BRANCH   8  10
ATOM     10  C   LIG    1       27.949 -17.845   4.757  0.00  0.00    +0.091 C 
BRANCH  10  11
ATOM     11  N   LIG    1       28.227 -19.243   5.139  0.00  0.00    -0.308 NA
ATOM     12  C   LIG    1       27.114 -19.945   5.783  0.00  0.00    +0.104 C 
ATOM     13  C   LIG    1       29.395 -19.299   6.031  0.00  0.00    +0.104 C 
ENDBRANCH  10  11
ENDBRANCH   8  10
ENDBRANCH   1   8
BRANCH   1  14
ATOM     14  O   LIG    1       26.391 -15.309   4.726  0.00  0.00    -0.453 OA
BRANCH  14  15
ATOM     15  C   LIG    1       27.320 -14.307   4.665  0.00  0.00    +0.308 C 
ATOM     16  O   LIG    1       28.338 -14.302   4.017  0.00  0.00    -0.251 OA
BRANCH  15  18
ATOM     17  C   LIG    1       25.446 -12.913   5.722  0.00  0.00    +0.015 C 
ATOM     18  C   LIG    1       26.937 -13.215   5.672  0.00  0.00    +0.117 C 
ENDBRANCH  15  18
ENDBRANCH  14  15
ENDBRANCH   1  14
BRANCH   1  19
ATOM     19  C   LIG    1       26.070 -15.324   2.382  0.00  0.00    +0.088 C 
BRANCH  19  20
ATOM     20  C   LIG    1       25.311 -13.988   2.294  0.00  0.00    -0.043 A 
ATOM     21  C   LIG    1       25.972 -12.797   1.951  0.00  0.00    +0.004 A 
ATOM     22  C   LIG    1       25.362 -11.545   2.111  0.00  0.00    +0.000 A 
ATOM     23  C   LIG    1       24.062 -11.452   2.592  0.00  0.00    +0.000 A 
ATOM     24  C   LIG    1       23.360 -12.620   2.877  0.00  0.00    +0.000 A 
ATOM     25  C   LIG    1       23.978 -13.874   2.730  0.00  0.00    +0.004 A 
ENDBRANCH  19  20
ENDBRANCH   1  19
TORSDOF 9
ENDMDL
MODEL 9
REMARK VINA RESULT:       1.3      1.833      4.067
REMARK  Name = *****
REMARK                            x       y       z     vdW  Elec       q    Type
REMARK                         _______ _______ _______ _____ _____    ______ ____
ROOT
ATOM      1  C   LIG    1       26.404 -15.859   3.698  0.00  0.00    +0.146 C 
ENDROOT
BRANCH   1   2
ATOM      2  C   LIG    1       25.398 -14.810   4.247  0.00  0.00    -0.004 A 
ATOM      3  C   LIG    1       24.011 -15.002   4.118  0.00  0.00    +0.007 A 
ATOM      4  C   LIG    1       23.072 -14.059   4.552  0.00  0.00    +0.000 A 
ATOM      5  C   LIG    1       23.490 -12.913   5.211  0.00  0.00    +0.000 A 
ATOM      6  C   LIG    1       24.850 -12.717   5.426  0.00  0.00    +0.000 A 
ATOM      7  C   LIG    1       25.793 -13.644   4.941  0.00  0.00    +0.007 A 
ENDBRANCH   1   2
BRANCH   1   8
ATOM      8  C   LIG    1       27.343 -16.471   4.842  0.00  0.00    +0.049 C 
ATOM      9  C   LIG    1       28.070 -15.343   5.647  0.00  0.00    +0.013 C 
BRANCH   8  10
ATOM     10  C   LIG    1       28.468 -17.478   4.403  0.00  0.00    +0.091 C 
BRANCH  10  11
ATOM     11  N   LIG    1       28.814 -18.684   5.180  0.00  0.00    -0.308 NA
ATOM     12  C   LIG    1       27.688 -19.567   5.495  0.00  0.00    +0.104 C 
ATOM     13  C   LIG    1       29.475 -18.301   6.437  0.00  0.00    +0.104 C 
ENDBRANCH  10  11
ENDBRANCH   8  10
ENDBRANCH   1   8
BRANCH   1  14
ATOM     14  O   LIG    1       27.157 -15.201   2.619  0.00  0.00    -0.453 OA
BRANCH  14  15
ATOM     15  C   LIG    1       27.311 -13.860   2.402  0.00  0.00    +0.308 C 
ATOM     16  O   LIG    1       26.552 -13.129   1.812  0.00  0.00    -0.251 OA
BRANCH  15  18
ATOM     17  C   LIG    1       28.646 -12.464   4.088  0.00  0.00    +0.015 C 
ATOM     18  C   LIG    1       28.692 -13.431   2.914  0.00  0.00    +0.117 C 
ENDBRANCH  15  18
ENDBRANCH  14  15
ENDBRANCH   1  14
BRANCH   1  19
ATOM     19  C   LIG    1       25.695 -17.040   2.896  0.00  0.00    +0.088 C 
BRANCH  19  20
ATOM     20  C   LIG    1       24.882 -18.151   3.584  0.00  0.00    -0.043 A 
ATOM     21  C   LIG    1       25.352 -19.473   3.634  0.00  0.00    +0.004 A 
ATOM     22  C   LIG    1       24.525 -20.534   4.025  0.00  0.00    +0.000 A 
ATOM     23  C   LIG    1       23.210 -20.297   4.406  0.00  0.00    +0.000 A 
ATOM     24  C   LIG    1       22.736 -18.989   4.430  0.00  0.00    +0.000 A 
ATOM     25  C   LIG    1       23.563 -17.927   4.023  0.00  0.00    +0.004 A 
ENDBRANCH  19  20
ENDBRANCH   1  19
TORSDOF 9
ENDMDL
