MODEL 1
REMARK VINA RESULT:      -2.1      0.000      0.000
REMARK  Name = *****
REMARK                            x       y       z     vdW  Elec       q    Type
REMARK                         _______ _______ _______ _____ _____    ______ ____
ROOT
ATOM      1  N   LIG    1       26.565 -18.287   4.700  0.00  0.00    -0.230 N 
ATOM      2  H   LIG    1       26.840 -17.822   5.558  0.00  0.00    +0.173 HD
ATOM      3  C   LIG    1       26.217 -17.595   3.551  0.00  0.00    +0.260 C 
ATOM      4  O   LIG    1       25.668 -18.072   2.563  0.00  0.00    -0.269 OA
ENDROOT
BRANCH   1   7
ATOM      5  C   LIG    1       27.532 -19.639   6.993  0.00  0.00    +0.030 C 
ATOM      6  C   LIG    1       27.006 -20.468   5.817  0.00  0.00    +0.096 C 
ATOM      7  N   LIG    1       26.272 -19.653   4.804  0.00  0.00    -0.247 N 
ATOM      8  C   LIG    1       24.901 -19.953   5.015  0.00  0.00    +0.051 A 
ATOM      9  C   LIG    1       24.712 -21.048   5.862  0.00  0.00    -0.023 A 
ATOM     10  C   LIG    1       23.449 -21.541   6.154  0.00  0.00    +0.005 A 
ATOM     11  C   LIG    1       22.345 -20.903   5.587  0.00  0.00    +0.000 A 
ATOM     12  C   LIG    1       22.521 -19.799   4.739  0.00  0.00    +0.002 A 
ATOM     13  C   LIG    1       23.804 -19.324   4.444  0.00  0.00    +0.025 A 
ATOM     14  C   LIG    1       26.033 -21.572   6.313  0.00  0.00    +0.061 C 
ENDBRANCH   1   7
BRANCH   3  15
ATOM     15  C   LIG    1       26.562 -16.141   3.564  0.00  0.00    +0.040 A 
ATOM     16  C   LIG    1       25.592 -15.156   3.333  0.00  0.00    +0.043 A 
ATOM     17  C   LIG    1       25.948 -13.792   3.324  0.00  0.00    +0.124 A 
ATOM     18  C   LIG    1       27.267 -13.411   3.570  0.00  0.00    +0.067 A 
ATOM     19 CL   LIG    1       27.818 -11.775   3.571  0.00  0.00    -0.082 Cl
ATOM     20  C   LIG    1       28.225 -14.398   3.839  0.00  0.00    +0.022 A 
ATOM     21  C   LIG    1       27.877 -15.754   3.837  0.00  0.00    +0.014 A 
BRANCH  17  22
ATOM     22  S   LIG    1       24.685 -12.618   2.944  0.00  0.00    +0.057 S 
ATOM     23  O   LIG    1       25.162 -11.757   1.887  0.00  0.00    -0.153 OA
ATOM     24  O   LIG    1       24.152 -12.079   4.177  0.00  0.00    -0.153 OA
BRANCH  22  25
ATOM     25  N   LIG    1       23.471 -13.529   2.238  0.00  0.00    -0.203 NA
ATOM     26  H   LIG    1       22.695 -12.925   1.963  0.00  0.00    +0.144 HD
ATOM     27  H   LIG    1       23.195 -14.279   2.876  0.00  0.00    +0.144 HD
ENDBRANCH  22  25
ENDBRANCH  17  22
ENDBRANCH   3  15
TORSDOF 4
ENDMDL
MODEL 2
REMARK VINA RESULT:      -2.1      1.020      1.424
REMARK  Name = *****
REMARK                            x       y       z     vdW  Elec       q    Type
REMARK                         _______ _______ _______ _____ _____    ______ ____
ROOT
ATOM      1  N   LIG    1       25.130 -18.230   4.324  0.00  0.00    -0.230 N 
ATOM      2  H   LIG    1       24.769 -17.694   5.106  0.00  0.00    +0.173 HD
ATOM      3  C   LIG    1       25.843 -17.654   3.286  0.00  0.00    +0.260 C 
ATOM      4  O   LIG    1       26.114 -18.189   2.216  0.00  0.00    -0.269 OA
ENDROOT
BRANCH   1   7
ATOM      5  C   LIG    1       25.583 -20.013   6.478  0.00  0.00    +0.030 C 
ATOM      6  C   LIG    1       25.103 -20.582   5.140  0.00  0.00    +0.096 C 
ATOM      7  N   LIG    1       24.633 -19.533   4.187  0.00  0.00    -0.247 N 
ATOM      8  C   LIG    1       23.218 -19.635   4.199  0.00  0.00    +0.051 A 
ATOM      9  C   LIG    1       22.764 -20.787   4.845  0.00  0.00    -0.023 A 
ATOM     10  C   LIG    1       21.416 -21.105   4.918  0.00  0.00    +0.005 A 
ATOM     11  C   LIG    1       20.500 -20.230   4.336  0.00  0.00    +0.000 A 
ATOM     12  C   LIG    1       20.942 -19.066   3.690  0.00  0.00    +0.002 A 
ATOM     13  C   LIG    1       22.307 -18.767   3.612  0.00  0.00    +0.025 A 
ATOM     14  C   LIG    1       23.926 -21.572   5.353  0.00  0.00    +0.061 C 
ENDBRANCH   1   7
BRANCH   3  15
ATOM     15  C   LIG    1       26.304 -16.255   3.540  0.00  0.00    +0.040 A 
ATOM     16  C   LIG    1       25.459 -15.156   3.334  0.00  0.00    +0.043 A 
ATOM     17  C   LIG    1       25.926 -13.845   3.555  0.00  0.00    +0.124 A 
ATOM     18  C   LIG    1       27.229 -13.633   4.006  0.00  0.00    +0.067 A 
ATOM     19 CL   LIG    1       27.910 -12.074   4.297  0.00  0.00    -0.082 Cl
ATOM     20  C   LIG    1       28.057 -14.737   4.248  0.00  0.00    +0.022 A 
ATOM     21  C   LIG    1       27.600 -16.040   4.018  0.00  0.00    +0.014 A 
BRANCH  17  22
ATOM     22  S   LIG    1       24.826 -12.512   3.193  0.00  0.00    +0.057 S 
ATOM     23  O   LIG    1       25.384 -11.739   2.107  0.00  0.00    -0.153 OA
ATOM     24  O   LIG    1       24.415 -11.888   4.432  0.00  0.00    -0.153 OA
BRANCH  22  25
ATOM     25  N   LIG    1       23.475 -13.253   2.541  0.00  0.00    -0.203 NA
ATOM     26  H   LIG    1       23.390 -14.205   2.901  0.00  0.00    +0.144 HD
ATOM     27  H   LIG    1       23.522 -13.208   1.521  0.00  0.00    +0.144 HD
ENDBRANCH  22  25
ENDBRANCH  17  22
ENDBRANCH   3  15
TORSDOF 4
ENDMDL
MODEL 3
REMARK VINA RESULT:      -0.7      2.737      4.152
REMARK  Name = *****
REMARK                            x       y       z     vdW  Elec       q    Type
REMARK                         _______ _______ _______ _____ _____    ______ ____
ROOT
ATOM      1  N   LIG    1       22.748 -16.860   4.064  0.00  0.00    -0.230 N 
ATOM      2  H   LIG    1       23.344 -17.119   3.286  0.00  0.00    +0.173 HD
ATOM      3  C   LIG    1       22.878 -15.659   4.741  0.00  0.00    +0.260 C 
ATOM      4  O   LIG    1       22.352 -15.377   5.812  0.00  0.00    -0.269 OA
ENDROOT
BRANCH   1   7
ATOM      5  C   LIG    1       20.874 -18.118   2.353  0.00  0.00    +0.030 C 
ATOM      6  C   LIG    1       20.776 -18.366   3.861  0.00  0.00    +0.096 C 
ATOM      7  N   LIG    1       21.972 -17.888   4.616  0.00  0.00    -0.247 N 
ATOM      8  C   LIG    1       22.692 -19.065   4.947  0.00  0.00    +0.051 A 
ATOM      9  C   LIG    1       21.958 -20.231   4.714  0.00  0.00    -0.023 A 
ATOM     10  C   LIG    1       22.458 -21.487   5.023  0.00  0.00    +0.005 A 
ATOM     11  C   LIG    1       23.738 -21.571   5.570  0.00  0.00    +0.000 A 
ATOM     12  C   LIG    1       24.488 -20.409   5.804  0.00  0.00    +0.002 A 
ATOM     13  C   LIG    1       23.962 -19.148   5.499  0.00  0.00    +0.025 A 
ATOM     14  C   LIG    1       20.618 -19.882   4.160  0.00  0.00    +0.061 C 
ENDBRANCH   1   7
BRANCH   3  15
ATOM     15  C   LIG    1       23.746 -14.648   4.065  0.00  0.00    +0.040 A 
ATOM     16  C   LIG    1       25.138 -14.645   4.234  0.00  0.00    +0.043 A 
ATOM     17  C   LIG    1       25.931 -13.664   3.607  0.00  0.00    +0.124 A 
ATOM     18  C   LIG    1       25.339 -12.700   2.791  0.00  0.00    +0.067 A 
ATOM     19 CL   LIG    1       26.209 -11.447   1.985  0.00  0.00    -0.082 Cl
ATOM     20  C   LIG    1       23.951 -12.731   2.594  0.00  0.00    +0.022 A 
ATOM     21  C   LIG    1       23.159 -13.697   3.225  0.00  0.00    +0.014 A 
BRANCH  17  22
ATOM     22  S   LIG    1       27.666 -13.680   3.936  0.00  0.00    +0.057 S 
ATOM     23  O   LIG    1       27.908 -12.942   5.154  0.00  0.00    -0.153 OA
ATOM     24  O   LIG    1       28.383 -13.382   2.716  0.00  0.00    -0.153 OA
BRANCH  22  25
ATOM     25  N   LIG    1       27.999 -15.273   4.329  0.00  0.00    -0.203 NA
ATOM     26  H   LIG    1       27.452 -15.555   5.143  0.00  0.00    +0.144 HD
ATOM     27  H   LIG    1       29.007 -15.387   4.458  0.00  0.00    +0.144 HD
ENDBRANCH  22  25
ENDBRANCH  17  22
ENDBRANCH   3  15
TORSDOF 4
ENDMDL
