MODEL 1
REMARK VINA RESULT:      -4.2      0.000      0.000
REMARK  Name = *****
REMARK                            x       y       z     vdW  Elec       q    Type
REMARK                         _______ _______ _______ _____ _____    ______ ____
ROOT
ATOM      1  C   LIG    1       26.246 -13.463   2.982  0.00  0.00    +0.253 C 
ENDROOT
BRANCH   1   3
ATOM      2  O   LIG    1       24.458 -14.678   4.115  0.00  0.00    -0.248 OA
ATOM      3  C   LIG    1       24.804 -13.833   3.300  0.00  0.00    +0.336 C 
BRANCH   3   4
ATOM      4  O   LIG    1       23.924 -13.105   2.569  0.00  0.00    -0.479 OA
ATOM      5  H   LIG    1       23.016 -13.409   2.825  0.00  0.00    +0.295 HD
ENDBRANCH   3   4
ENDBRANCH   1   3
BRANCH   1   6
ATOM      6  O   LIG    1       26.639 -14.229   1.813  0.00  0.00    -0.378 OA
ATOM      7  H   LIG    1       26.827 -13.541   1.135  0.00  0.00    +0.211 HD
ENDBRANCH   1   6
BRANCH   1   8
ATOM      8  C   LIG    1       27.200 -13.812   4.122  0.00  0.00    +0.179 C 
BRANCH   8   9
ATOM      9  O   LIG    1       27.629 -15.177   3.905  0.00  0.00    -0.386 OA
ATOM     10  H   LIG    1       28.609 -15.155   3.952  0.00  0.00    +0.210 HD
ENDBRANCH   8   9
BRANCH   8  11
ATOM     11  C   LIG    1       28.436 -12.915   4.218  0.00  0.00    +0.190 C 
BRANCH  11  12
ATOM     12  O   LIG    1       29.356 -13.318   3.197  0.00  0.00    -0.392 OA
ATOM     13  H   LIG    1       30.209 -12.884   3.388  0.00  0.00    +0.209 HD
ENDBRANCH  11  12
ENDBRANCH   8  11
ENDBRANCH   1   8
TORSDOF 7
ENDMDL
MODEL 2
REMARK VINA RESULT:      -4.2      1.377      1.998
REMARK  Name = *****
REMARK                            x       y       z     vdW  Elec       q    Type
REMARK                         _______ _______ _______ _____ _____    ______ ____
ROOT
ATOM      1  C   LIG    1       25.431 -13.975   3.824  0.00  0.00    +0.253 C 
ENDROOT
BRANCH   1   3
ATOM      2  O   LIG    1       25.326 -12.113   2.250  0.00  0.00    -0.248 OA
ATOM      3  C   LIG    1       24.767 -13.037   2.825  0.00  0.00    +0.336 C 
BRANCH   3   4
ATOM      4  O   LIG    1       23.461 -13.348   2.635  0.00  0.00    -0.479 OA
ATOM      5  H   LIG    1       22.934 -12.739   3.212  0.00  0.00    +0.295 HD
ENDBRANCH   3   4
ENDBRANCH   1   3
BRANCH   1   6
ATOM      6  O   LIG    1       25.796 -13.180   4.983  0.00  0.00    -0.378 OA
ATOM      7  H   LIG    1       25.930 -12.277   4.614  0.00  0.00    +0.211 HD
ENDBRANCH   1   6
BRANCH   1   8
ATOM      8  C   LIG    1       26.702 -14.612   3.267  0.00  0.00    +0.179 C 
BRANCH   8   9
ATOM      9  O   LIG    1       26.674 -14.419   1.834  0.00  0.00    -0.386 OA
ATOM     10  H   LIG    1       27.613 -14.336   1.561  0.00  0.00    +0.210 HD
ENDBRANCH   8   9
BRANCH   8  11
ATOM     11  C   LIG    1       28.005 -14.028   3.819  0.00  0.00    +0.190 C 
BRANCH  11  12
ATOM     12  O   LIG    1       28.247 -12.782   3.157  0.00  0.00    -0.392 OA
ATOM     13  H   LIG    1       29.008 -12.914   2.560  0.00  0.00    +0.209 HD
ENDBRANCH  11  12
ENDBRANCH   8  11
ENDBRANCH   1   8
TORSDOF 7
ENDMDL
MODEL 3
REMARK VINA RESULT:      -4.1      1.530      3.509
REMARK  Name = *****
REMARK                            x       y       z     vdW  Elec       q    Type
REMARK                         _______ _______ _______ _____ _____    ______ ____
ROOT
ATOM      1  C   LIG    1       25.817 -14.257   3.913  0.00  0.00    +0.253 C 
ENDROOT
BRANCH   1   3
ATOM      2  O   LIG    1       26.162 -16.553   3.159  0.00  0.00    -0.248 OA
ATOM      3  C   LIG    1       26.612 -15.530   3.658  0.00  0.00    +0.336 C 
BRANCH   3   4
ATOM      4  O   LIG    1       27.904 -15.403   4.049  0.00  0.00    -0.479 OA
ATOM      5  H   LIG    1       27.890 -15.050   4.975  0.00  0.00    +0.295 HD
ENDBRANCH   3   4
ENDBRANCH   1   3
BRANCH   1   6
ATOM      6  O   LIG    1       24.423 -14.641   4.045  0.00  0.00    -0.378 OA
ATOM      7  H   LIG    1       24.333 -14.872   4.998  0.00  0.00    +0.211 HD
ENDBRANCH   1   6
BRANCH   1   8
ATOM      8  C   LIG    1       25.927 -13.262   2.759  0.00  0.00    +0.179 C 
BRANCH   8   9
ATOM      9  O   LIG    1       26.867 -13.821   1.812  0.00  0.00    -0.386 OA
ATOM     10  H   LIG    1       27.221 -14.631   2.240  0.00  0.00    +0.210 HD
ENDBRANCH   8   9
BRANCH   8  11
ATOM     11  C   LIG    1       24.610 -12.972   2.037  0.00  0.00    +0.190 C 
BRANCH  11  12
ATOM     12  O   LIG    1       23.815 -12.135   2.885  0.00  0.00    -0.392 OA
ATOM     13  H   LIG    1       23.758 -11.260   2.457  0.00  0.00    +0.209 HD
ENDBRANCH  11  12
ENDBRANCH   8  11
ENDBRANCH   1   8
TORSDOF 7
ENDMDL
MODEL 4
REMARK VINA RESULT:      -4.1      0.788      3.756
REMARK  Name = *****
REMARK                            x       y       z     vdW  Elec       q    Type
REMARK                         _______ _______ _______ _____ _____    ______ ____
ROOT
ATOM      1  C   LIG    1       27.214 -13.808   4.130  0.00  0.00    +0.253 C 
ENDROOT
BRANCH   1   3
ATOM      2  O   LIG    1       28.726 -12.150   5.090  0.00  0.00    -0.248 OA
ATOM      3  C   LIG    1       28.491 -12.985   4.226  0.00  0.00    +0.336 C 
BRANCH   3   4
ATOM      4  O   LIG    1       29.361 -13.287   3.231  0.00  0.00    -0.479 OA
ATOM      5  H   LIG    1       30.244 -12.930   3.504  0.00  0.00    +0.295 HD
ENDBRANCH   3   4
ENDBRANCH   1   3
BRANCH   1   6
ATOM      6  O   LIG    1       27.607 -15.190   3.924  0.00  0.00    -0.378 OA
ATOM      7  H   LIG    1       28.490 -15.249   4.356  0.00  0.00    +0.211 HD
ENDBRANCH   1   6
BRANCH   1   8
ATOM      8  C   LIG    1       26.337 -13.384   2.953  0.00  0.00    +0.179 C 
BRANCH   8   9
ATOM      9  O   LIG    1       26.760 -14.167   1.812  0.00  0.00    -0.386 OA
ATOM     10  H   LIG    1       25.946 -14.327   1.287  0.00  0.00    +0.210 HD
ENDBRANCH   8   9
BRANCH   8  11
ATOM     11  C   LIG    1       24.836 -13.592   3.167  0.00  0.00    +0.190 C 
BRANCH  11  12
ATOM     12  O   LIG    1       24.667 -14.489   4.270  0.00  0.00    -0.392 OA
ATOM     13  H   LIG    1       25.421 -14.352   4.873  0.00  0.00    +0.209 HD
ENDBRANCH  11  12
ENDBRANCH   8  11
ENDBRANCH   1   8
TORSDOF 7
ENDMDL
MODEL 5
REMARK VINA RESULT:      -4.1      1.228      3.568
REMARK  Name = *****
REMARK                            x       y       z     vdW  Elec       q    Type
REMARK                         _______ _______ _______ _____ _____    ______ ____
ROOT
ATOM      1  C   LIG    1       26.222 -14.653   3.125  0.00  0.00    +0.253 C 
ENDROOT
BRANCH   1   3
ATOM      2  O   LIG    1       28.353 -13.576   3.628  0.00  0.00    -0.248 OA
ATOM      3  C   LIG    1       27.637 -14.567   3.678  0.00  0.00    +0.336 C 
BRANCH   3   4
ATOM      4  O   LIG    1       28.026 -15.734   4.250  0.00  0.00    -0.479 OA
ATOM      5  H   LIG    1       27.550 -16.460   3.771  0.00  0.00    +0.295 HD
ENDBRANCH   3   4
ENDBRANCH   1   3
BRANCH   1   6
ATOM      6  O   LIG    1       26.229 -14.009   1.824  0.00  0.00    -0.378 OA
ATOM      7  H   LIG    1       25.589 -13.268   1.926  0.00  0.00    +0.211 HD
ENDBRANCH   1   6
BRANCH   1   8
ATOM      8  C   LIG    1       25.208 -13.928   4.007  0.00  0.00    +0.179 C 
BRANCH   8   9
ATOM      9  O   LIG    1       25.911 -13.515   5.202  0.00  0.00    -0.386 OA
ATOM     10  H   LIG    1       25.543 -12.636   5.433  0.00  0.00    +0.210 HD
ENDBRANCH   8   9
BRANCH   8  11
ATOM     11  C   LIG    1       24.563 -12.698   3.362  0.00  0.00    +0.190 C 
BRANCH  11  12
ATOM     12  O   LIG    1       23.591 -13.154   2.415  0.00  0.00    -0.392 OA
ATOM     13  H   LIG    1       22.770 -13.340   2.909  0.00  0.00    +0.209 HD
ENDBRANCH  11  12
ENDBRANCH   8  11
ENDBRANCH   1   8
TORSDOF 7
ENDMDL
MODEL 6
REMARK VINA RESULT:      -4.0      1.790      3.352
REMARK  Name = *****
REMARK                            x       y       z     vdW  Elec       q    Type
REMARK                         _______ _______ _______ _____ _____    ______ ____
ROOT
ATOM      1  C   LIG    1       25.897 -14.093   3.114  0.00  0.00    +0.253 C 
ENDROOT
BRANCH   1   3
ATOM      2  O   LIG    1       26.308 -16.498   3.168  0.00  0.00    -0.248 OA
ATOM      3  C   LIG    1       26.691 -15.359   3.401  0.00  0.00    +0.336 C 
BRANCH   3   4
ATOM      4  O   LIG    1       27.898 -15.082   3.953  0.00  0.00    -0.479 OA
ATOM      5  H   LIG    1       28.537 -14.967   3.203  0.00  0.00    +0.295 HD
ENDBRANCH   3   4
ENDBRANCH   1   3
BRANCH   1   6
ATOM      6  O   LIG    1       26.845 -13.075   2.698  0.00  0.00    -0.378 OA
ATOM      7  H   LIG    1       26.696 -13.000   1.728  0.00  0.00    +0.211 HD
ENDBRANCH   1   6
BRANCH   1   8
ATOM      8  C   LIG    1       25.159 -13.577   4.348  0.00  0.00    +0.179 C 
BRANCH   8   9
ATOM      9  O   LIG    1       26.166 -13.088   5.264  0.00  0.00    -0.386 OA
ATOM     10  H   LIG    1       25.993 -13.548   6.114  0.00  0.00    +0.210 HD
ENDBRANCH   8   9
BRANCH   8  11
ATOM     11  C   LIG    1       24.155 -12.455   4.070  0.00  0.00    +0.190 C 
BRANCH  11  12
ATOM     12  O   LIG    1       23.770 -12.537   2.693  0.00  0.00    -0.392 OA
ATOM     13  H   LIG    1       22.796 -12.507   2.663  0.00  0.00    +0.209 HD
ENDBRANCH  11  12
ENDBRANCH   8  11
ENDBRANCH   1   8
TORSDOF 7
ENDMDL
MODEL 7
REMARK VINA RESULT:      -3.8      1.100      1.670
REMARK  Name = *****
REMARK                            x       y       z     vdW  Elec       q    Type
REMARK                         _______ _______ _______ _____ _____    ______ ____
ROOT
ATOM      1  C   LIG    1       26.015 -13.224   2.835  0.00  0.00    +0.253 C 
ENDROOT
BRANCH   1   3
ATOM      2  O   LIG    1       23.717 -13.120   3.649  0.00  0.00    -0.248 OA
ATOM      3  C   LIG    1       24.737 -13.768   3.457  0.00  0.00    +0.336 C 
BRANCH   3   4
ATOM      4  O   LIG    1       24.854 -15.080   3.779  0.00  0.00    -0.479 OA
ATOM      5  H   LIG    1       24.203 -15.257   4.505  0.00  0.00    +0.295 HD
ENDBRANCH   3   4
ENDBRANCH   1   3
BRANCH   1   6
ATOM      6  O   LIG    1       26.504 -14.228   1.908  0.00  0.00    -0.378 OA
ATOM      7  H   LIG    1       25.708 -14.467   1.381  0.00  0.00    +0.211 HD
ENDBRANCH   1   6
BRANCH   1   8
ATOM      8  C   LIG    1       27.104 -12.967   3.874  0.00  0.00    +0.179 C 
BRANCH   8   9
ATOM      9  O   LIG    1       26.494 -13.148   5.174  0.00  0.00    -0.386 OA
ATOM     10  H   LIG    1       25.941 -13.955   5.094  0.00  0.00    +0.210 HD
ENDBRANCH   8   9
BRANCH   8  11
ATOM     11  C   LIG    1       28.321 -13.889   3.766  0.00  0.00    +0.190 C 
BRANCH  11  12
ATOM     12  O   LIG    1       27.892 -15.224   4.058  0.00  0.00    -0.392 OA
ATOM     13  H   LIG    1       27.686 -15.655   3.208  0.00  0.00    +0.209 HD
ENDBRANCH  11  12
ENDBRANCH   8  11
ENDBRANCH   1   8
TORSDOF 7
ENDMDL
MODEL 8
REMARK VINA RESULT:      -3.8      6.267      7.222
REMARK  Name = *****
REMARK                            x       y       z     vdW  Elec       q    Type
REMARK                         _______ _______ _______ _____ _____    ______ ____
ROOT
ATOM      1  C   LIG    1       24.059 -21.160   4.287  0.00  0.00    +0.253 C 
ENDROOT
BRANCH   1   3
ATOM      2  O   LIG    1       23.114 -20.397   6.404  0.00  0.00    -0.248 OA
ATOM      3  C   LIG    1       22.962 -20.947   5.321  0.00  0.00    +0.336 C 
BRANCH   3   4
ATOM      4  O   LIG    1       21.771 -21.440   4.901  0.00  0.00    -0.479 OA
ATOM      5  H   LIG    1       21.817 -22.425   5.000  0.00  0.00    +0.295 HD
ENDBRANCH   3   4
ENDBRANCH   1   3
BRANCH   1   6
ATOM      6  O   LIG    1       25.252 -21.572   5.004  0.00  0.00    -0.378 OA
ATOM      7  H   LIG    1       25.955 -21.557   4.315  0.00  0.00    +0.211 HD
ENDBRANCH   1   6
BRANCH   1   8
ATOM      8  C   LIG    1       24.386 -19.884   3.515  0.00  0.00    +0.179 C 
BRANCH   8   9
ATOM      9  O   LIG    1       23.296 -18.962   3.750  0.00  0.00    -0.386 OA
ATOM     10  H   LIG    1       23.006 -19.126   4.673  0.00  0.00    +0.210 HD
ENDBRANCH   8   9
BRANCH   8  11
ATOM     11  C   LIG    1       25.700 -19.211   3.920  0.00  0.00    +0.190 C 
BRANCH  11  12
ATOM     12  O   LIG    1       25.928 -18.114   3.028  0.00  0.00    -0.392 OA
ATOM     13  H   LIG    1       25.508 -18.341   2.177  0.00  0.00    +0.209 HD
ENDBRANCH  11  12
ENDBRANCH   8  11
ENDBRANCH   1   8
TORSDOF 7
ENDMDL
MODEL 9
REMARK VINA RESULT:      -3.7      6.602      7.937
REMARK  Name = *****
REMARK                            x       y       z     vdW  Elec       q    Type
REMARK                         _______ _______ _______ _____ _____    ______ ____
ROOT
ATOM      1  C   LIG    1       24.978 -21.161   4.958  0.00  0.00    +0.253 C 
ENDROOT
BRANCH   1   3
ATOM      2  O   LIG    1       23.809 -20.753   7.061  0.00  0.00    -0.248 OA
ATOM      3  C   LIG    1       24.848 -20.740   6.415  0.00  0.00    +0.336 C 
BRANCH   3   4
ATOM      4  O   LIG    1       26.037 -20.343   6.932  0.00  0.00    -0.479 OA
ATOM      5  H   LIG    1       26.019 -19.352   6.965  0.00  0.00    +0.295 HD
ENDBRANCH   3   4
ENDBRANCH   1   3
BRANCH   1   6
ATOM      6  O   LIG    1       26.114 -20.448   4.404  0.00  0.00    -0.378 OA
ATOM      7  H   LIG    1       25.784 -20.120   3.536  0.00  0.00    +0.211 HD
ENDBRANCH   1   6
BRANCH   1   8
ATOM      8  C   LIG    1       23.743 -20.798   4.136  0.00  0.00    +0.179 C 
BRANCH   8   9
ATOM      9  O   LIG    1       22.622 -21.486   4.738  0.00  0.00    -0.386 OA
ATOM     10  H   LIG    1       22.994 -21.978   5.501  0.00  0.00    +0.210 HD
ENDBRANCH   8   9
BRANCH   8  11
ATOM     11  C   LIG    1       23.431 -19.301   4.077  0.00  0.00    +0.190 C 
BRANCH  11  12
ATOM     12  O   LIG    1       22.349 -19.039   4.978  0.00  0.00    -0.392 OA
ATOM     13  H   LIG    1       21.609 -18.690   4.447  0.00  0.00    +0.209 HD
ENDBRANCH  11  12
ENDBRANCH   8  11
ENDBRANCH   1   8
TORSDOF 7
ENDMDL
