MODEL 1
REMARK VINA RESULT:      -3.9      0.000      0.000
REMARK  Name = *****
REMARK                            x       y       z     vdW  Elec       q    Type
REMARK                         _______ _______ _______ _____ _____    ______ ____
ROOT
ATOM      1  C   LIG    1       25.931 -15.296   3.685  0.00  0.00    +0.030 A 
ATOM      2  C   LIG    1       24.984 -16.294   3.844  0.00  0.00    +0.003 A 
ATOM      3  C   LIG    1       25.117 -17.774   3.695  0.00  0.00    +0.146 C 
ATOM      4  N   LIG    1       23.796 -18.260   4.075  0.00  0.00    -0.281 N 
ATOM      5  C   LIG    1       22.904 -17.224   4.295  0.00  0.00    +0.248 C 
ATOM      6  O   LIG    1       21.719 -17.301   4.555  0.00  0.00    -0.270 OA
ATOM      7  C   LIG    1       23.662 -15.976   4.166  0.00  0.00    +0.043 A 
ATOM      8  C   LIG    1       23.212 -14.678   4.306  0.00  0.00    +0.013 A 
ATOM      9  C   LIG    1       24.138 -13.661   4.090  0.00  0.00    +0.003 A 
ATOM     10  C   LIG    1       25.473 -13.970   3.764  0.00  0.00    +0.023 A 
ENDROOT
BRANCH   4  11
ATOM     11  C   LIG    1       23.388 -19.666   4.037  0.00  0.00    +0.163 C 
ATOM     12  C   LIG    1       24.534 -20.625   3.687  0.00  0.00    +0.240 C 
ATOM     13  O   LIG    1       25.058 -20.661   2.574  0.00  0.00    -0.273 OA
ATOM     14  N   LIG    1       25.087 -21.333   4.727  0.00  0.00    -0.255 N 
ATOM     15  H   LIG    1       25.892 -21.897   4.489  0.00  0.00    +0.158 HD
ATOM     16  C   LIG    1       24.903 -21.113   6.068  0.00  0.00    +0.219 C 
ATOM     17  O   LIG    1       25.688 -21.572   6.893  0.00  0.00    -0.275 OA
ATOM     18  C   LIG    1       23.764 -20.204   6.458  0.00  0.00    +0.098 C 
ATOM     19  C   LIG    1       22.728 -20.111   5.348  0.00  0.00    +0.041 C 
ENDBRANCH   4  11
BRANCH   1  20
ATOM     20  N   LIG    1       27.223 -15.566   3.233  0.00  0.00    -0.358 N 
ATOM     21  H   LIG    1       27.627 -16.433   3.570  0.00  0.00    +0.142 HD
ATOM     22  H   LIG    1       27.867 -14.787   3.336  0.00  0.00    +0.142 HD
ENDBRANCH   1  20
TORSDOF 2
ENDMDL
MODEL 2
REMARK VINA RESULT:      -3.7      2.782      5.864
REMARK  Name = *****
REMARK                            x       y       z     vdW  Elec       q    Type
REMARK                         _______ _______ _______ _____ _____    ______ ____
ROOT
ATOM      1  C   LIG    1       24.635 -19.303   3.753  0.00  0.00    +0.030 A 
ATOM      2  C   LIG    1       24.714 -17.920   3.704  0.00  0.00    +0.003 A 
ATOM      3  C   LIG    1       25.844 -17.040   3.280  0.00  0.00    +0.146 C 
ATOM      4  N   LIG    1       25.269 -15.703   3.379  0.00  0.00    -0.281 N 
ATOM      5  C   LIG    1       23.998 -15.723   3.928  0.00  0.00    +0.248 C 
ATOM      6  O   LIG    1       23.288 -14.775   4.202  0.00  0.00    -0.270 OA
ATOM      7  C   LIG    1       23.638 -17.131   4.117  0.00  0.00    +0.043 A 
ATOM      8  C   LIG    1       22.468 -17.658   4.626  0.00  0.00    +0.013 A 
ATOM      9  C   LIG    1       22.396 -19.045   4.739  0.00  0.00    +0.003 A 
ATOM     10  C   LIG    1       23.476 -19.850   4.327  0.00  0.00    +0.023 A 
ENDROOT
BRANCH   4  11
ATOM     11  C   LIG    1       26.005 -14.464   3.122  0.00  0.00    +0.163 C 
ATOM     12  C   LIG    1       25.095 -13.261   2.834  0.00  0.00    +0.240 C 
ATOM     13  O   LIG    1       24.416 -13.167   1.812  0.00  0.00    -0.273 OA
ATOM     14  N   LIG    1       24.923 -12.358   3.856  0.00  0.00    -0.255 N 
ATOM     15  H   LIG    1       24.257 -11.618   3.673  0.00  0.00    +0.158 HD
ATOM     16  C   LIG    1       25.270 -12.521   5.172  0.00  0.00    +0.219 C 
ATOM     17  O   LIG    1       24.777 -11.811   6.044  0.00  0.00    -0.275 OA
ATOM     18  C   LIG    1       26.193 -13.670   5.495  0.00  0.00    +0.098 C 
ATOM     19  C   LIG    1       26.968 -14.117   4.264  0.00  0.00    +0.041 C 
ENDBRANCH   4  11
BRANCH   1  20
ATOM     20  N   LIG    1       25.733 -20.117   3.478  0.00  0.00    -0.358 N 
ATOM     21  H   LIG    1       25.812 -20.426   2.515  0.00  0.00    +0.142 HD
ATOM     22  H   LIG    1       25.848 -20.889   4.129  0.00  0.00    +0.142 HD
ENDBRANCH   1  20
TORSDOF 2
ENDMDL
MODEL 3
REMARK VINA RESULT:      -3.7      2.104      3.079
REMARK  Name = *****
REMARK                            x       y       z     vdW  Elec       q    Type
REMARK                         _______ _______ _______ _____ _____    ______ ____
ROOT
ATOM      1  C   LIG    1       24.874 -14.310   3.569  0.00  0.00    +0.030 A 
ATOM      2  C   LIG    1       25.431 -15.578   3.617  0.00  0.00    +0.003 A 
ATOM      3  C   LIG    1       24.775 -16.916   3.527  0.00  0.00    +0.146 C 
ATOM      4  N   LIG    1       25.907 -17.836   3.558  0.00  0.00    -0.281 N 
ATOM      5  C   LIG    1       27.105 -17.179   3.783  0.00  0.00    +0.248 C 
ATOM      6  O   LIG    1       28.208 -17.667   3.930  0.00  0.00    -0.270 OA
ATOM      7  C   LIG    1       26.806 -15.744   3.801  0.00  0.00    +0.043 A 
ATOM      8  C   LIG    1       27.675 -14.687   3.984  0.00  0.00    +0.013 A 
ATOM      9  C   LIG    1       27.121 -13.409   3.999  0.00  0.00    +0.003 A 
ATOM     10  C   LIG    1       25.736 -13.230   3.815  0.00  0.00    +0.023 A 
ENDROOT
BRANCH   4  11
ATOM     11  C   LIG    1       25.789 -19.295   3.556  0.00  0.00    +0.163 C 
ATOM     12  C   LIG    1       26.036 -19.930   4.932  0.00  0.00    +0.240 C 
ATOM     13  O   LIG    1       27.141 -19.937   5.476  0.00  0.00    -0.273 OA
ATOM     14  N   LIG    1       24.927 -20.342   5.631  0.00  0.00    -0.255 N 
ATOM     15  H   LIG    1       25.106 -20.682   6.567  0.00  0.00    +0.158 HD
ATOM     16  C   LIG    1       23.618 -20.041   5.358  0.00  0.00    +0.219 C 
ATOM     17  O   LIG    1       22.751 -20.174   6.216  0.00  0.00    -0.275 OA
ATOM     18  C   LIG    1       23.325 -19.449   4.001  0.00  0.00    +0.098 C 
ATOM     19  C   LIG    1       24.435 -19.765   3.011  0.00  0.00    +0.041 C 
ENDBRANCH   4  11
BRANCH   1  20
ATOM     20  N   LIG    1       23.494 -14.109   3.521  0.00  0.00    -0.358 N 
ATOM     21  H   LIG    1       23.039 -14.015   4.423  0.00  0.00    +0.142 HD
ATOM     22  H   LIG    1       23.002 -14.765   2.920  0.00  0.00    +0.142 HD
ENDBRANCH   1  20
TORSDOF 2
ENDMDL
MODEL 4
REMARK VINA RESULT:      -3.4      2.892      5.862
REMARK  Name = *****
REMARK                            x       y       z     vdW  Elec       q    Type
REMARK                         _______ _______ _______ _____ _____    ______ ____
ROOT
ATOM      1  C   LIG    1       24.763 -18.707   3.472  0.00  0.00    +0.030 A 
ATOM      2  C   LIG    1       24.538 -17.364   3.723  0.00  0.00    +0.003 A 
ATOM      3  C   LIG    1       25.429 -16.186   3.506  0.00  0.00    +0.146 C 
ATOM      4  N   LIG    1       24.583 -15.061   3.888  0.00  0.00    -0.281 N 
ATOM      5  C   LIG    1       23.370 -15.478   4.412  0.00  0.00    +0.248 C 
ATOM      6  O   LIG    1       22.484 -14.791   4.881  0.00  0.00    -0.270 OA
ATOM      7  C   LIG    1       23.334 -16.938   4.291  0.00  0.00    +0.043 A 
ATOM      8  C   LIG    1       22.329 -17.807   4.668  0.00  0.00    +0.013 A 
ATOM      9  C   LIG    1       22.566 -19.166   4.478  0.00  0.00    +0.003 A 
ATOM     10  C   LIG    1       23.776 -19.607   3.908  0.00  0.00    +0.023 A 
ENDROOT
BRANCH   4  11
ATOM     11  C   LIG    1       25.020 -13.664   3.909  0.00  0.00    +0.163 C 
ATOM     12  C   LIG    1       26.009 -13.351   5.042  0.00  0.00    +0.240 C 
ATOM     13  O   LIG    1       25.687 -13.356   6.230  0.00  0.00    -0.273 OA
ATOM     14  N   LIG    1       27.333 -13.238   4.692  0.00  0.00    -0.255 N 
ATOM     15  H   LIG    1       27.976 -13.113   5.463  0.00  0.00    +0.158 HD
ATOM     16  C   LIG    1       27.909 -13.603   3.503  0.00  0.00    +0.219 C 
ATOM     17  O   LIG    1       29.122 -13.772   3.418  0.00  0.00    -0.275 OA
ATOM     18  C   LIG    1       26.974 -13.885   2.352  0.00  0.00    +0.098 C 
ATOM     19  C   LIG    1       25.621 -13.226   2.568  0.00  0.00    +0.041 C 
ENDBRANCH   4  11
BRANCH   1  20
ATOM     20  N   LIG    1       26.000 -19.181   3.034  0.00  0.00    -0.358 N 
ATOM     21  H   LIG    1       25.977 -20.080   2.564  0.00  0.00    +0.142 HD
ATOM     22  H   LIG    1       26.729 -19.146   3.741  0.00  0.00    +0.142 HD
ENDBRANCH   1  20
TORSDOF 2
ENDMDL
MODEL 5
REMARK VINA RESULT:      -3.1      2.696      5.650
REMARK  Name = *****
REMARK                            x       y       z     vdW  Elec       q    Type
REMARK                         _______ _______ _______ _____ _____    ______ ____
ROOT
ATOM      1  C   LIG    1       24.726 -19.401   3.882  0.00  0.00    +0.030 A 
ATOM      2  C   LIG    1       24.609 -18.023   3.802  0.00  0.00    +0.003 A 
ATOM      3  C   LIG    1       25.603 -17.001   3.359  0.00  0.00    +0.146 C 
ATOM      4  N   LIG    1       24.844 -15.757   3.428  0.00  0.00    -0.281 N 
ATOM      5  C   LIG    1       23.587 -15.945   3.977  0.00  0.00    +0.248 C 
ATOM      6  O   LIG    1       22.748 -15.102   4.229  0.00  0.00    -0.270 OA
ATOM      7  C   LIG    1       23.430 -17.386   4.197  0.00  0.00    +0.043 A 
ATOM      8  C   LIG    1       22.345 -18.062   4.717  0.00  0.00    +0.013 A 
ATOM      9  C   LIG    1       22.470 -19.442   4.860  0.00  0.00    +0.003 A 
ATOM     10  C   LIG    1       23.655 -20.095   4.467  0.00  0.00    +0.023 A 
ENDROOT
BRANCH   4  11
ATOM     11  C   LIG    1       25.398 -14.432   3.145  0.00  0.00    +0.163 C 
ATOM     12  C   LIG    1       25.042 -13.381   4.207  0.00  0.00    +0.240 C 
ATOM     13  O   LIG    1       23.897 -12.960   4.372  0.00  0.00    -0.273 OA
ATOM     14  N   LIG    1       26.029 -13.051   5.105  0.00  0.00    -0.255 N 
ATOM     15  H   LIG    1       25.750 -12.419   5.843  0.00  0.00    +0.158 HD
ATOM     16  C   LIG    1       27.210 -13.713   5.316  0.00  0.00    +0.219 C 
ATOM     17  O   LIG    1       27.851 -13.539   6.349  0.00  0.00    -0.275 OA
ATOM     18  C   LIG    1       27.617 -14.729   4.277  0.00  0.00    +0.098 C 
ATOM     19  C   LIG    1       26.918 -14.470   2.951  0.00  0.00    +0.041 C 
ENDBRANCH   4  11
BRANCH   1  20
ATOM     20  N   LIG    1       25.930 -20.058   3.625  0.00  0.00    -0.358 N 
ATOM     21  H   LIG    1       26.159 -20.174   2.644  0.00  0.00    +0.142 HD
ATOM     22  H   LIG    1       26.046 -20.925   4.143  0.00  0.00    +0.142 HD
ENDBRANCH   1  20
TORSDOF 2
ENDMDL
MODEL 6
REMARK VINA RESULT:      -2.8      2.842      6.337
REMARK  Name = *****
REMARK                            x       y       z     vdW  Elec       q    Type
REMARK                         _______ _______ _______ _____ _____    ______ ____
ROOT
ATOM      1  C   LIG    1       22.767 -18.071   4.136  0.00  0.00    +0.030 A 
ATOM      2  C   LIG    1       23.905 -17.289   4.025  0.00  0.00    +0.003 A 
ATOM      3  C   LIG    1       24.076 -15.816   4.199  0.00  0.00    +0.146 C 
ATOM      4  N   LIG    1       25.514 -15.634   4.034  0.00  0.00    -0.281 N 
ATOM      5  C   LIG    1       26.149 -16.808   3.665  0.00  0.00    +0.248 C 
ATOM      6  O   LIG    1       27.321 -16.968   3.388  0.00  0.00    -0.270 OA
ATOM      7  C   LIG    1       25.131 -17.863   3.677  0.00  0.00    +0.043 A 
ATOM      8  C   LIG    1       25.280 -19.204   3.388  0.00  0.00    +0.013 A 
ATOM      9  C   LIG    1       24.133 -19.992   3.435  0.00  0.00    +0.003 A 
ATOM     10  C   LIG    1       22.892 -19.424   3.784  0.00  0.00    +0.023 A 
ENDROOT
BRANCH   4  11
ATOM     11  C   LIG    1       26.193 -14.336   4.056  0.00  0.00    +0.163 C 
ATOM     12  C   LIG    1       26.371 -13.717   2.662  0.00  0.00    +0.240 C 
ATOM     13  O   LIG    1       27.125 -14.191   1.812  0.00  0.00    -0.273 OA
ATOM     14  N   LIG    1       25.512 -12.699   2.323  0.00  0.00    -0.255 N 
ATOM     15  H   LIG    1       25.593 -12.361   1.374  0.00  0.00    +0.158 HD
ATOM     16  C   LIG    1       24.367 -12.330   2.980  0.00  0.00    +0.219 C 
ATOM     17  O   LIG    1       23.514 -11.648   2.419  0.00  0.00    -0.275 OA
ATOM     18  C   LIG    1       24.169 -12.887   4.368  0.00  0.00    +0.098 C 
ATOM     19  C   LIG    1       25.490 -13.332   4.977  0.00  0.00    +0.041 C 
ENDBRANCH   4  11
BRANCH   1  20
ATOM     20  N   LIG    1       21.505 -17.515   4.348  0.00  0.00    -0.358 N 
ATOM     21  H   LIG    1       20.734 -18.012   3.915  0.00  0.00    +0.142 HD
ATOM     22  H   LIG    1       21.458 -16.516   4.165  0.00  0.00    +0.142 HD
ENDBRANCH   1  20
TORSDOF 2
ENDMDL
MODEL 7
REMARK VINA RESULT:      -2.7      1.650      2.213
REMARK  Name = *****
REMARK                            x       y       z     vdW  Elec       q    Type
REMARK                         _______ _______ _______ _____ _____    ______ ____
ROOT
ATOM      1  C   LIG    1       24.887 -14.612   3.734  0.00  0.00    +0.030 A 
ATOM      2  C   LIG    1       24.733 -15.988   3.751  0.00  0.00    +0.003 A 
ATOM      3  C   LIG    1       23.496 -16.812   3.892  0.00  0.00    +0.146 C 
ATOM      4  N   LIG    1       23.994 -18.176   3.748  0.00  0.00    -0.281 N 
ATOM      5  C   LIG    1       25.376 -18.219   3.672  0.00  0.00    +0.248 C 
ATOM      6  O   LIG    1       26.091 -19.201   3.618  0.00  0.00    -0.270 OA
ATOM      7  C   LIG    1       25.845 -16.830   3.655  0.00  0.00    +0.043 A 
ATOM      8  C   LIG    1       27.141 -16.361   3.578  0.00  0.00    +0.013 A 
ATOM      9  C   LIG    1       27.317 -14.980   3.622  0.00  0.00    +0.003 A 
ATOM     10  C   LIG    1       26.204 -14.122   3.720  0.00  0.00    +0.023 A 
ENDROOT
BRANCH   4  11
ATOM     11  C   LIG    1       23.167 -19.377   3.871  0.00  0.00    +0.163 C 
ATOM     12  C   LIG    1       23.946 -20.681   3.646  0.00  0.00    +0.240 C 
ATOM     13  O   LIG    1       24.403 -21.006   2.550  0.00  0.00    -0.273 OA
ATOM     14  N   LIG    1       24.279 -21.404   4.767  0.00  0.00    -0.255 N 
ATOM     15  H   LIG    1       24.861 -22.215   4.603  0.00  0.00    +0.158 HD
ATOM     16  C   LIG    1       24.209 -20.986   6.070  0.00  0.00    +0.219 C 
ATOM     17  O   LIG    1       24.833 -21.571   6.951  0.00  0.00    -0.275 OA
ATOM     18  C   LIG    1       23.421 -19.728   6.341  0.00  0.00    +0.098 C 
ATOM     19  C   LIG    1       22.437 -19.442   5.217  0.00  0.00    +0.041 C 
ENDBRANCH   4  11
BRANCH   1  20
ATOM     20  N   LIG    1       23.819 -13.744   3.962  0.00  0.00    -0.358 N 
ATOM     21  H   LIG    1       24.052 -12.892   4.461  0.00  0.00    +0.142 HD
ATOM     22  H   LIG    1       22.998 -14.196   4.356  0.00  0.00    +0.142 HD
ENDBRANCH   1  20
TORSDOF 2
ENDMDL
MODEL 8
REMARK VINA RESULT:      -2.7      2.772      6.277
REMARK  Name = *****
REMARK                            x       y       z     vdW  Elec       q    Type
REMARK                         _______ _______ _______ _____ _____    ______ ____
ROOT
ATOM      1  C   LIG    1       22.880 -18.175   4.295  0.00  0.00    +0.030 A 
ATOM      2  C   LIG    1       23.923 -17.326   3.962  0.00  0.00    +0.003 A 
ATOM      3  C   LIG    1       23.935 -15.841   3.797  0.00  0.00    +0.146 C 
ATOM      4  N   LIG    1       25.340 -15.555   3.530  0.00  0.00    -0.281 N 
ATOM      5  C   LIG    1       26.091 -16.711   3.400  0.00  0.00    +0.248 C 
ATOM      6  O   LIG    1       27.268 -16.809   3.111  0.00  0.00    -0.270 OA
ATOM      7  C   LIG    1       25.196 -17.835   3.692  0.00  0.00    +0.043 A 
ATOM      8  C   LIG    1       25.485 -19.184   3.699  0.00  0.00    +0.013 A 
ATOM      9  C   LIG    1       24.433 -20.055   3.973  0.00  0.00    +0.003 A 
ATOM     10  C   LIG    1       23.145 -19.553   4.245  0.00  0.00    +0.023 A 
ENDROOT
BRANCH   4  11
ATOM     11  C   LIG    1       25.872 -14.224   3.233  0.00  0.00    +0.163 C 
ATOM     12  C   LIG    1       24.788 -13.202   2.857  0.00  0.00    +0.240 C 
ATOM     13  O   LIG    1       24.142 -13.269   1.812  0.00  0.00    -0.273 OA
ATOM     14  N   LIG    1       24.431 -12.295   3.826  0.00  0.00    -0.255 N 
ATOM     15  H   LIG    1       23.661 -11.685   3.586  0.00  0.00    +0.158 HD
ATOM     16  C   LIG    1       24.751 -12.339   5.158  0.00  0.00    +0.219 C 
ATOM     17  O   LIG    1       24.116 -11.682   5.978  0.00  0.00    -0.275 OA
ATOM     18  C   LIG    1       25.837 -13.303   5.567  0.00  0.00    +0.098 C 
ATOM     19  C   LIG    1       26.721 -13.671   4.384  0.00  0.00    +0.041 C 
ENDBRANCH   4  11
BRANCH   1  20
ATOM     20  N   LIG    1       21.570 -17.717   4.438  0.00  0.00    -0.358 N 
ATOM     21  H   LIG    1       21.388 -17.181   5.280  0.00  0.00    +0.142 HD
ATOM     22  H   LIG    1       20.864 -18.433   4.290  0.00  0.00    +0.142 HD
ENDBRANCH   1  20
TORSDOF 2
ENDMDL
MODEL 9
REMARK VINA RESULT:      -2.1      3.003      6.301
REMARK  Name = *****
REMARK                            x       y       z     vdW  Elec       q    Type
REMARK                         _______ _______ _______ _____ _____    ______ ____
ROOT
ATOM      1  C   LIG    1       23.041 -18.475   4.058  0.00  0.00    +0.030 A 
ATOM      2  C   LIG    1       23.881 -17.378   3.946  0.00  0.00    +0.003 A 
ATOM      3  C   LIG    1       23.582 -15.923   4.100  0.00  0.00    +0.146 C 
ATOM      4  N   LIG    1       24.894 -15.304   3.945  0.00  0.00    -0.281 N 
ATOM      5  C   LIG    1       25.867 -16.226   3.598  0.00  0.00    +0.248 C 
ATOM      6  O   LIG    1       27.034 -16.015   3.333  0.00  0.00    -0.270 OA
ATOM      7  C   LIG    1       25.228 -17.545   3.617  0.00  0.00    +0.043 A 
ATOM      8  C   LIG    1       25.792 -18.776   3.348  0.00  0.00    +0.013 A 
ATOM      9  C   LIG    1       24.946 -19.882   3.396  0.00  0.00    +0.003 A 
ATOM     10  C   LIG    1       23.586 -19.726   3.726  0.00  0.00    +0.023 A 
ENDROOT
BRANCH   4  11
ATOM     11  C   LIG    1       25.134 -13.860   3.954  0.00  0.00    +0.163 C 
ATOM     12  C   LIG    1       26.111 -13.409   5.050  0.00  0.00    +0.240 C 
ATOM     13  O   LIG    1       25.837 -13.456   6.249  0.00  0.00    -0.273 OA
ATOM     14  N   LIG    1       27.393 -13.114   4.652  0.00  0.00    -0.255 N 
ATOM     15  H   LIG    1       28.040 -12.899   5.399  0.00  0.00    +0.158 HD
ATOM     16  C   LIG    1       27.969 -13.400   3.442  0.00  0.00    +0.219 C 
ATOM     17  O   LIG    1       29.190 -13.399   3.312  0.00  0.00    -0.275 OA
ATOM     18  C   LIG    1       27.041 -13.811   2.326  0.00  0.00    +0.098 C 
ATOM     19  C   LIG    1       25.618 -13.346   2.593  0.00  0.00    +0.041 C 
ENDBRANCH   4  11
BRANCH   1  20
ATOM     20  N   LIG    1       21.666 -18.337   4.252  0.00  0.00    -0.358 N 
ATOM     21  H   LIG    1       21.228 -17.589   3.726  0.00  0.00    +0.142 HD
ATOM     22  H   LIG    1       21.388 -18.322   5.229  0.00  0.00    +0.142 HD
ENDBRANCH   1  20
TORSDOF 2
ENDMDL
