MODEL 1
REMARK VINA RESULT:      -5.9      0.000      0.000
REMARK  Name = *****
REMARK                            x       y       z     vdW  Elec       q    Type
REMARK                         _______ _______ _______ _____ _____    ______ ____
ROOT
ATOM      1  O   LIG    1       27.243 -19.326   4.665  0.00  0.00    -0.291 OA
ATOM      2  C   LIG    1       26.032 -19.303   4.534  0.00  0.00    +0.179 C 
ATOM      3  C   LIG    1       25.214 -18.509   3.526  0.00  0.00    +0.161 C 
ATOM      4  C   LIG    1       23.783 -18.903   3.867  0.00  0.00    +0.179 C 
ATOM      5  O   LIG    1       22.756 -18.546   3.316  0.00  0.00    -0.291 OA
ATOM      6  C   LIG    1       23.809 -19.846   4.984  0.00  0.00    +0.029 A 
ATOM      7  C   LIG    1       22.744 -20.457   5.619  0.00  0.00    +0.012 A 
ATOM      8  C   LIG    1       23.034 -21.331   6.671  0.00  0.00    +0.001 A 
ATOM      9  C   LIG    1       24.365 -21.572   7.062  0.00  0.00    +0.001 A 
ATOM     10  C   LIG    1       25.429 -20.943   6.407  0.00  0.00    +0.012 A 
ATOM     11  C   LIG    1       25.120 -20.082   5.369  0.00  0.00    +0.029 A 
ENDROOT
BRANCH   3  12
ATOM     12  C   LIG    1       25.425 -17.009   3.541  0.00  0.00    -0.029 A 
ATOM     13  C   LIG    1       24.329 -16.176   3.838  0.00  0.00    +0.007 A 
ATOM     14  C   LIG    1       24.478 -14.788   3.885  0.00  0.00    +0.038 A 
ATOM     15  C   LIG    1       25.722 -14.225   3.641  0.00  0.00    +0.123 A 
ATOM     16  F   LIG    1       25.866 -12.894   3.686  0.00  0.00    -0.205 F 
ATOM     17  C   LIG    1       26.821 -15.024   3.354  0.00  0.00    +0.038 A 
ATOM     18  C   LIG    1       26.675 -16.413   3.308  0.00  0.00    +0.007 A 
ENDBRANCH   3  12
TORSDOF 1
ENDMDL
MODEL 2
REMARK VINA RESULT:      -5.0      1.238      1.936
REMARK  Name = *****
REMARK                            x       y       z     vdW  Elec       q    Type
REMARK                         _______ _______ _______ _____ _____    ______ ____
ROOT
ATOM      1  O   LIG    1       28.311 -17.729   4.446  0.00  0.00    -0.291 OA
ATOM      2  C   LIG    1       27.212 -18.239   4.308  0.00  0.00    +0.179 C 
ATOM      3  C   LIG    1       26.092 -17.809   3.372  0.00  0.00    +0.161 C 
ATOM      4  C   LIG    1       24.999 -18.829   3.663  0.00  0.00    +0.179 C 
ATOM      5  O   LIG    1       23.903 -18.922   3.139  0.00  0.00    -0.291 OA
ATOM      6  C   LIG    1       25.482 -19.755   4.686  0.00  0.00    +0.029 A 
ATOM      7  C   LIG    1       24.823 -20.831   5.253  0.00  0.00    +0.012 A 
ATOM      8  C   LIG    1       25.509 -21.571   6.220  0.00  0.00    +0.001 A 
ATOM      9  C   LIG    1       26.821 -21.225   6.597  0.00  0.00    +0.001 A 
ATOM     10  C   LIG    1       27.469 -20.132   6.013  0.00  0.00    +0.012 A 
ATOM     11  C   LIG    1       26.773 -19.413   5.059  0.00  0.00    +0.029 A 
ENDROOT
BRANCH   3  12
ATOM     12  C   LIG    1       25.613 -16.381   3.529  0.00  0.00    -0.029 A 
ATOM     13  C   LIG    1       26.482 -15.334   3.166  0.00  0.00    +0.007 A 
ATOM     14  C   LIG    1       26.078 -14.001   3.272  0.00  0.00    +0.038 A 
ATOM     15  C   LIG    1       24.804 -13.706   3.735  0.00  0.00    +0.123 A 
ATOM     16  F   LIG    1       24.416 -12.429   3.836  0.00  0.00    -0.205 F 
ATOM     17  C   LIG    1       23.924 -14.720   4.090  0.00  0.00    +0.038 A 
ATOM     18  C   LIG    1       24.324 -16.054   3.985  0.00  0.00    +0.007 A 
ENDBRANCH   3  12
TORSDOF 1
ENDMDL
MODEL 3
REMARK VINA RESULT:      -4.6      2.190      3.403
REMARK  Name = *****
REMARK                            x       y       z     vdW  Elec       q    Type
REMARK                         _______ _______ _______ _____ _____    ______ ____
ROOT
ATOM      1  O   LIG    1       26.693 -17.452   2.867  0.00  0.00    -0.291 OA
ATOM      2  C   LIG    1       25.676 -16.886   3.226  0.00  0.00    +0.179 C 
ATOM      3  C   LIG    1       25.364 -15.398   3.173  0.00  0.00    +0.161 C 
ATOM      4  C   LIG    1       23.959 -15.326   3.757  0.00  0.00    +0.179 C 
ATOM      5  O   LIG    1       23.257 -14.340   3.901  0.00  0.00    -0.291 OA
ATOM      6  C   LIG    1       23.527 -16.677   4.107  0.00  0.00    +0.029 A 
ATOM      7  C   LIG    1       22.328 -17.080   4.667  0.00  0.00    +0.012 A 
ATOM      8  C   LIG    1       22.153 -18.446   4.907  0.00  0.00    +0.001 A 
ATOM      9  C   LIG    1       23.167 -19.369   4.587  0.00  0.00    +0.001 A 
ATOM     10  C   LIG    1       24.373 -18.942   4.023  0.00  0.00    +0.012 A 
ATOM     11  C   LIG    1       24.525 -17.587   3.794  0.00  0.00    +0.029 A 
ENDROOT
BRANCH   3  12
ATOM     12  C   LIG    1       26.342 -14.493   3.894  0.00  0.00    -0.029 A 
ATOM     13  C   LIG    1       27.498 -14.068   3.211  0.00  0.00    +0.007 A 
ATOM     14  C   LIG    1       28.418 -13.216   3.825  0.00  0.00    +0.038 A 
ATOM     15  C   LIG    1       28.187 -12.779   5.122  0.00  0.00    +0.123 A 
ATOM     16  F   LIG    1       29.069 -11.962   5.711  0.00  0.00    -0.205 F 
ATOM     17  C   LIG    1       27.051 -13.175   5.814  0.00  0.00    +0.038 A 
ATOM     18  C   LIG    1       26.128 -14.027   5.202  0.00  0.00    +0.007 A 
ENDBRANCH   3  12
TORSDOF 1
ENDMDL
MODEL 4
REMARK VINA RESULT:      -4.1      2.672      6.034
REMARK  Name = *****
REMARK                            x       y       z     vdW  Elec       q    Type
REMARK                         _______ _______ _______ _____ _____    ______ ____
ROOT
ATOM      1  O   LIG    1       22.875 -15.265   4.079  0.00  0.00    -0.291 OA
ATOM      2  C   LIG    1       24.027 -15.604   3.869  0.00  0.00    +0.179 C 
ATOM      3  C   LIG    1       24.524 -16.917   3.281  0.00  0.00    +0.161 C 
ATOM      4  C   LIG    1       26.035 -16.732   3.273  0.00  0.00    +0.179 C 
ATOM      5  O   LIG    1       26.882 -17.508   2.864  0.00  0.00    -0.291 OA
ATOM      6  C   LIG    1       26.350 -15.414   3.819  0.00  0.00    +0.029 A 
ATOM      7  C   LIG    1       27.591 -14.832   4.001  0.00  0.00    +0.012 A 
ATOM      8  C   LIG    1       27.628 -13.545   4.546  0.00  0.00    +0.001 A 
ATOM      9  C   LIG    1       26.438 -12.875   4.893  0.00  0.00    +0.001 A 
ATOM     10  C   LIG    1       25.193 -13.482   4.702  0.00  0.00    +0.012 A 
ATOM     11  C   LIG    1       25.180 -14.755   4.163  0.00  0.00    +0.029 A 
ENDROOT
BRANCH   3  12
ATOM     12  C   LIG    1       24.093 -18.172   4.010  0.00  0.00    -0.029 A 
ATOM     13  C   LIG    1       22.768 -18.259   4.479  0.00  0.00    +0.007 A 
ATOM     14  C   LIG    1       22.316 -19.405   5.138  0.00  0.00    +0.038 A 
ATOM     15  C   LIG    1       23.184 -20.471   5.328  0.00  0.00    +0.123 A 
ATOM     16  F   LIG    1       22.752 -21.570   5.960  0.00  0.00    -0.205 F 
ATOM     17  C   LIG    1       24.492 -20.415   4.868  0.00  0.00    +0.038 A 
ATOM     18  C   LIG    1       24.946 -19.271   4.207  0.00  0.00    +0.007 A 
ENDBRANCH   3  12
TORSDOF 1
ENDMDL
MODEL 5
REMARK VINA RESULT:      -4.0      2.677      6.129
REMARK  Name = *****
REMARK                            x       y       z     vdW  Elec       q    Type
REMARK                         _______ _______ _______ _____ _____    ______ ____
ROOT
ATOM      1  O   LIG    1       22.864 -15.157   4.139  0.00  0.00    -0.291 OA
ATOM      2  C   LIG    1       24.005 -15.516   3.908  0.00  0.00    +0.179 C 
ATOM      3  C   LIG    1       24.466 -16.824   3.283  0.00  0.00    +0.161 C 
ATOM      4  C   LIG    1       25.981 -16.673   3.261  0.00  0.00    +0.179 C 
ATOM      5  O   LIG    1       26.806 -17.456   2.825  0.00  0.00    -0.291 OA
ATOM      6  C   LIG    1       26.331 -15.374   3.835  0.00  0.00    +0.029 A 
ATOM      7  C   LIG    1       27.587 -14.824   4.016  0.00  0.00    +0.012 A 
ATOM      8  C   LIG    1       27.657 -13.551   4.590  0.00  0.00    +0.001 A 
ATOM      9  C   LIG    1       26.487 -12.864   4.967  0.00  0.00    +0.001 A 
ATOM     10  C   LIG    1       25.227 -13.439   4.776  0.00  0.00    +0.012 A 
ATOM     11  C   LIG    1       25.179 -14.699   4.207  0.00  0.00    +0.029 A 
ENDROOT
BRANCH   3  12
ATOM     12  C   LIG    1       24.016 -18.087   3.988  0.00  0.00    -0.029 A 
ATOM     13  C   LIG    1       24.939 -19.139   4.142  0.00  0.00    +0.007 A 
ATOM     14  C   LIG    1       24.579 -20.315   4.803  0.00  0.00    +0.038 A 
ATOM     15  C   LIG    1       23.298 -20.445   5.319  0.00  0.00    +0.123 A 
ATOM     16  F   LIG    1       22.951 -21.572   5.954  0.00  0.00    -0.205 F 
ATOM     17  C   LIG    1       22.371 -19.419   5.190  0.00  0.00    +0.038 A 
ATOM     18  C   LIG    1       22.729 -18.241   4.529  0.00  0.00    +0.007 A 
ENDBRANCH   3  12
TORSDOF 1
ENDMDL
MODEL 6
REMARK VINA RESULT:      -3.5      0.620      1.296
REMARK  Name = *****
REMARK                            x       y       z     vdW  Elec       q    Type
REMARK                         _______ _______ _______ _____ _____    ______ ____
ROOT
ATOM      1  O   LIG    1       26.819 -19.012   4.116  0.00  0.00    -0.291 OA
ATOM      2  C   LIG    1       25.612 -19.038   4.276  0.00  0.00    +0.179 C 
ATOM      3  C   LIG    1       24.554 -18.211   3.560  0.00  0.00    +0.161 C 
ATOM      4  C   LIG    1       23.258 -18.700   4.193  0.00  0.00    +0.179 C 
ATOM      5  O   LIG    1       22.119 -18.352   3.930  0.00  0.00    -0.291 OA
ATOM      6  C   LIG    1       23.577 -19.722   5.187  0.00  0.00    +0.029 A 
ATOM      7  C   LIG    1       22.712 -20.432   6.000  0.00  0.00    +0.012 A 
ATOM      8  C   LIG    1       23.271 -21.367   6.876  0.00  0.00    +0.001 A 
ATOM      9  C   LIG    1       24.663 -21.572   6.921  0.00  0.00    +0.001 A 
ATOM     10  C   LIG    1       25.521 -20.844   6.091  0.00  0.00    +0.012 A 
ATOM     11  C   LIG    1       24.948 -19.922   5.232  0.00  0.00    +0.029 A 
ENDROOT
BRANCH   3  12
ATOM     12  C   LIG    1       24.718 -16.708   3.653  0.00  0.00    -0.029 A 
ATOM     13  C   LIG    1       25.955 -16.140   3.290  0.00  0.00    +0.007 A 
ATOM     14  C   LIG    1       26.149 -14.758   3.337  0.00  0.00    +0.038 A 
ATOM     15  C   LIG    1       25.107 -13.935   3.742  0.00  0.00    +0.123 A 
ATOM     16  F   LIG    1       25.292 -12.609   3.787  0.00  0.00    -0.205 F 
ATOM     17  C   LIG    1       23.875 -14.468   4.096  0.00  0.00    +0.038 A 
ATOM     18  C   LIG    1       23.678 -15.850   4.048  0.00  0.00    +0.007 A 
ENDBRANCH   3  12
TORSDOF 1
ENDMDL
MODEL 7
REMARK VINA RESULT:      -3.3      3.259      5.930
REMARK  Name = *****
REMARK                            x       y       z     vdW  Elec       q    Type
REMARK                         _______ _______ _______ _____ _____    ______ ____
ROOT
ATOM      1  O   LIG    1       24.673 -17.815   3.330  0.00  0.00    -0.291 OA
ATOM      2  C   LIG    1       25.436 -16.885   3.526  0.00  0.00    +0.179 C 
ATOM      3  C   LIG    1       26.957 -16.901   3.503  0.00  0.00    +0.161 C 
ATOM      4  C   LIG    1       27.315 -15.455   3.818  0.00  0.00    +0.179 C 
ATOM      5  O   LIG    1       28.425 -14.956   3.887  0.00  0.00    -0.291 OA
ATOM      6  C   LIG    1       26.079 -14.696   4.004  0.00  0.00    +0.029 A 
ATOM      7  C   LIG    1       25.931 -13.355   4.307  0.00  0.00    +0.012 A 
ATOM      8  C   LIG    1       24.629 -12.861   4.431  0.00  0.00    +0.001 A 
ATOM      9  C   LIG    1       23.517 -13.706   4.252  0.00  0.00    +0.001 A 
ATOM     10  C   LIG    1       23.689 -15.060   3.947  0.00  0.00    +0.012 A 
ATOM     11  C   LIG    1       24.985 -15.528   3.829  0.00  0.00    +0.029 A 
ENDROOT
BRANCH   3  12
ATOM     12  C   LIG    1       27.621 -17.885   4.444  0.00  0.00    -0.029 A 
ATOM     13  C   LIG    1       26.951 -19.085   4.749  0.00  0.00    +0.007 A 
ATOM     14  C   LIG    1       27.531 -20.034   5.594  0.00  0.00    +0.038 A 
ATOM     15  C   LIG    1       28.785 -19.791   6.134  0.00  0.00    +0.123 A 
ATOM     16  F   LIG    1       29.343 -20.700   6.944  0.00  0.00    -0.205 F 
ATOM     17  C   LIG    1       29.473 -18.621   5.842  0.00  0.00    +0.038 A 
ATOM     18  C   LIG    1       28.895 -17.670   4.997  0.00  0.00    +0.007 A 
ENDBRANCH   3  12
TORSDOF 1
ENDMDL
MODEL 8
REMARK VINA RESULT:      -3.2      3.093      6.346
REMARK  Name = *****
REMARK                            x       y       z     vdW  Elec       q    Type
REMARK                         _______ _______ _______ _____ _____    ______ ____
ROOT
ATOM      1  O   LIG    1       27.269 -15.563   3.176  0.00  0.00    -0.291 OA
ATOM      2  C   LIG    1       26.149 -15.175   3.460  0.00  0.00    +0.179 C 
ATOM      3  C   LIG    1       25.118 -15.860   4.345  0.00  0.00    +0.161 C 
ATOM      4  C   LIG    1       23.943 -14.891   4.307  0.00  0.00    +0.179 C 
ATOM      5  O   LIG    1       22.876 -14.985   4.889  0.00  0.00    -0.291 OA
ATOM      6  C   LIG    1       24.301 -13.754   3.461  0.00  0.00    +0.029 A 
ATOM      7  C   LIG    1       23.538 -12.644   3.145  0.00  0.00    +0.012 A 
ATOM      8  C   LIG    1       24.113 -11.683   2.308  0.00  0.00    +0.001 A 
ATOM      9  C   LIG    1       25.421 -11.849   1.812  0.00  0.00    +0.001 A 
ATOM     10  C   LIG    1       26.175 -12.979   2.144  0.00  0.00    +0.012 A 
ATOM     11  C   LIG    1       25.587 -13.918   2.972  0.00  0.00    +0.029 A 
ENDROOT
BRANCH   3  12
ATOM     12  C   LIG    1       24.727 -17.266   3.937  0.00  0.00    -0.029 A 
ATOM     13  C   LIG    1       25.726 -18.126   3.439  0.00  0.00    +0.007 A 
ATOM     14  C   LIG    1       25.420 -19.437   3.070  0.00  0.00    +0.038 A 
ATOM     15  C   LIG    1       24.118 -19.899   3.200  0.00  0.00    +0.123 A 
ATOM     16  F   LIG    1       23.824 -21.157   2.847  0.00  0.00    -0.205 F 
ATOM     17  C   LIG    1       23.117 -19.075   3.697  0.00  0.00    +0.038 A 
ATOM     18  C   LIG    1       23.420 -17.763   4.068  0.00  0.00    +0.007 A 
ENDBRANCH   3  12
TORSDOF 1
ENDMDL
