MODEL 1
REMARK VINA RESULT:       9.0      0.000      0.000
REMARK  Name = *****
REMARK                            x       y       z     vdW  Elec       q    Type
REMARK                         _______ _______ _______ _____ _____    ______ ____
ROOT
ATOM      1  C   LIG    1       21.088 -21.166   4.296  0.00  0.00    +0.042 C 
ATOM      2  C   LIG    1       22.447 -20.481   4.270  0.00  0.00    +0.069 C 
ATOM      3  C   LIG    1       22.453 -18.962   3.901  0.00  0.00    -0.000 C 
ATOM      4  C   LIG    1       21.590 -18.638   2.655  0.00  0.00    +0.014 C 
ATOM      5  C   LIG    1       23.947 -18.737   3.468  0.00  0.00    +0.001 C 
ATOM      6  C   LIG    1       24.788 -17.899   4.427  0.00  0.00    -0.004 C 
ATOM      7  C   LIG    1       23.977 -16.674   4.926  0.00  0.00    -0.001 C 
ATOM      8  C   LIG    1       22.919 -17.311   5.839  0.00  0.00    +0.005 C 
ATOM      9  C   LIG    1       23.771 -15.311   4.050  0.00  0.00    -0.022 C 
ATOM     10  C   LIG    1       23.101 -14.448   5.225  0.00  0.00    +0.012 C 
ATOM     11  C   LIG    1       25.219 -15.304   3.399  0.00  0.00    +0.001 C 
ATOM     12  C   LIG    1       26.012 -14.233   4.102  0.00  0.00    +0.059 C 
ATOM     13  C   LIG    1       25.515 -13.055   3.348  0.00  0.00    +0.040 A 
ATOM     14  C   LIG    1       24.231 -13.030   2.766  0.00  0.00    -0.006 A 
ATOM     15  C   LIG    1       24.422 -11.955   1.812  0.00  0.00    +0.138 A 
ATOM     16  N   LIG    1       25.645 -11.447   1.820  0.00  0.00    -0.182 NA
ATOM     17  N   LIG    1       26.317 -12.186   2.720  0.00  0.00    -0.281 N 
ATOM     18  H   LIG    1       27.339 -12.153   2.729  0.00  0.00    +0.189 HD
ATOM     19  C   LIG    1       25.983 -16.503   2.865  0.00  0.00    +0.005 C 
ATOM     20  C   LIG    1       23.155 -14.293   2.885  0.00  0.00    +0.045 C 
ATOM     21  C   LIG    1       26.165 -17.544   3.900  0.00  0.00    +0.004 C 
ATOM     22  C   LIG    1       24.578 -20.136   3.273  0.00  0.00    +0.007 C 
ATOM     23  C   LIG    1       21.891 -18.060   5.036  0.00  0.00    +0.010 C 
ATOM     24  C   LIG    1       23.405 -21.099   3.246  0.00  0.00    +0.035 C 
ENDROOT
BRANCH   2  25
ATOM     25  O   LIG    1       23.033 -20.651   5.572  0.00  0.00    -0.388 OA
ATOM     26  H   LIG    1       23.251 -19.769   5.921  0.00  0.00    +0.210 HD
ENDBRANCH   2  25
TORSDOF 1
ENDMDL
MODEL 2
REMARK VINA RESULT:       9.7      3.738      6.684
REMARK  Name = *****
REMARK                            x       y       z     vdW  Elec       q    Type
REMARK                         _______ _______ _______ _____ _____    ______ ____
ROOT
ATOM      1  C   LIG    1       26.800 -11.463   4.997  0.00  0.00    +0.042 C 
ATOM      2  C   LIG    1       26.839 -12.799   4.267  0.00  0.00    +0.069 C 
ATOM      3  C   LIG    1       25.866 -13.905   4.788  0.00  0.00    -0.000 C 
ATOM      4  C   LIG    1       25.893 -14.059   6.330  0.00  0.00    +0.014 C 
ATOM      5  C   LIG    1       26.515 -15.213   4.207  0.00  0.00    +0.001 C 
ATOM      6  C   LIG    1       25.733 -15.888   3.083  0.00  0.00    -0.004 C 
ATOM      7  C   LIG    1       24.219 -15.909   3.416  0.00  0.00    -0.001 C 
ATOM      8  C   LIG    1       23.820 -14.431   3.292  0.00  0.00    +0.005 C 
ATOM      9  C   LIG    1       23.533 -16.990   4.430  0.00  0.00    -0.022 C 
ATOM     10  C   LIG    1       22.012 -16.594   4.103  0.00  0.00    +0.012 C 
ATOM     11  C   LIG    1       24.440 -18.223   4.007  0.00  0.00    +0.001 C 
ATOM     12  C   LIG    1       23.589 -19.120   3.145  0.00  0.00    +0.059 C 
ATOM     13  C   LIG    1       22.865 -19.843   4.220  0.00  0.00    +0.040 A 
ATOM     14  C   LIG    1       22.619 -19.255   5.478  0.00  0.00    -0.006 A 
ATOM     15  C   LIG    1       22.352 -20.451   6.253  0.00  0.00    +0.138 A 
ATOM     16  N   LIG    1       22.455 -21.572   5.555  0.00  0.00    -0.182 NA
ATOM     17  N   LIG    1       22.841 -21.177   4.329  0.00  0.00    -0.281 N 
ATOM     18  H   LIG    1       23.225 -21.868   3.680  0.00  0.00    +0.189 HD
ATOM     19  C   LIG    1       25.934 -18.202   3.734  0.00  0.00    +0.005 C 
ATOM     20  C   LIG    1       23.089 -17.707   5.866  0.00  0.00    +0.045 C 
ATOM     21  C   LIG    1       26.284 -17.239   2.668  0.00  0.00    +0.004 C 
ATOM     22  C   LIG    1       27.938 -14.837   3.729  0.00  0.00    +0.007 C 
ATOM     23  C   LIG    1       24.378 -13.622   4.430  0.00  0.00    +0.010 C 
ATOM     24  C   LIG    1       28.213 -13.473   4.336  0.00  0.00    +0.035 C 
ENDROOT
BRANCH   2  25
ATOM     25  O   LIG    1       26.553 -12.534   2.883  0.00  0.00    -0.388 OA
ATOM     26  H   LIG    1       27.351 -12.741   2.367  0.00  0.00    +0.210 HD
ENDBRANCH   2  25
TORSDOF 1
ENDMDL
