MODEL 1
REMARK VINA RESULT:      -5.2      0.000      0.000
REMARK  Name = *****
REMARK                            x       y       z     vdW  Elec       q    Type
REMARK                         _______ _______ _______ _____ _____    ______ ____
ROOT
ATOM      1  C   LIG    1       25.403 -15.129   3.461  0.00  0.00    +0.066 A 
ATOM      2  C   LIG    1       24.202 -14.459   3.874  0.00  0.00    +0.077 A 
ATOM      3  N   LIG    1       23.223 -15.319   4.170  0.00  0.00    -0.170 NA
ATOM      4  N   LIG    1       23.742 -16.544   3.987  0.00  0.00    -0.239 N 
ATOM      5  C   LIG    1       23.051 -17.748   4.128  0.00  0.00    +0.113 A 
ATOM      6  C   LIG    1       23.672 -18.916   3.912  0.00  0.00    +0.020 A 
ATOM      7  C   LIG    1       25.078 -18.893   3.572  0.00  0.00    +0.004 A 
ATOM      8  C   LIG    1       25.757 -17.738   3.442  0.00  0.00    +0.028 A 
ATOM      9  C   LIG    1       25.090 -16.479   3.607  0.00  0.00    +0.078 A 
ENDROOT
BRANCH   2  10
ATOM     10  C   LIG    1       23.922 -12.977   3.991  0.00  0.00    +0.034 C 
ATOM     11  C   LIG    1       24.231 -12.226   2.687  0.00  0.00    +0.014 C 
ATOM     12  C   LIG    1       24.696 -12.350   5.154  0.00  0.00    +0.014 C 
ENDBRANCH   2  10
BRANCH   1  13
ATOM     13  C   LIG    1       26.637 -14.482   2.992  0.00  0.00    +0.170 C 
ATOM     14  O   LIG    1       26.755 -14.161   1.812  0.00  0.00    -0.292 OA
BRANCH  13  16
ATOM     15  C   LIG    1       28.610 -12.993   3.483  0.00  0.00    +0.015 C 
ATOM     16  C   LIG    1       27.795 -14.201   3.949  0.00  0.00    +0.054 C 
ATOM     17  C   LIG    1       27.260 -13.961   5.358  0.00  0.00    +0.015 C 
ENDBRANCH  13  16
ENDBRANCH   1  13
TORSDOF 3
ENDMDL
MODEL 2
REMARK VINA RESULT:      -4.4      3.936      6.378
REMARK  Name = *****
REMARK                            x       y       z     vdW  Elec       q    Type
REMARK                         _______ _______ _______ _____ _____    ______ ____
ROOT
ATOM      1  C   LIG    1       25.930 -20.005   4.815  0.00  0.00    +0.066 A 
ATOM      2  C   LIG    1       26.350 -18.753   4.252  0.00  0.00    +0.077 A 
ATOM      3  N   LIG    1       27.563 -18.391   4.679  0.00  0.00    -0.170 NA
ATOM      4  N   LIG    1       27.974 -19.377   5.495  0.00  0.00    -0.239 N 
ATOM      5  C   LIG    1       29.171 -19.391   6.213  0.00  0.00    +0.113 A 
ATOM      6  C   LIG    1       29.475 -20.428   7.005  0.00  0.00    +0.020 A 
ATOM      7  C   LIG    1       28.552 -21.541   7.062  0.00  0.00    +0.004 A 
ATOM      8  C   LIG    1       27.400 -21.544   6.367  0.00  0.00    +0.028 A 
ATOM      9  C   LIG    1       27.031 -20.412   5.565  0.00  0.00    +0.078 A 
ENDROOT
BRANCH   2  10
ATOM     10  C   LIG    1       25.617 -17.836   3.297  0.00  0.00    +0.034 C 
ATOM     11  C   LIG    1       26.288 -16.459   3.191  0.00  0.00    +0.014 C 
ATOM     12  C   LIG    1       24.147 -17.675   3.691  0.00  0.00    +0.014 C 
ENDBRANCH   2  10
BRANCH   1  13
ATOM     13  C   LIG    1       24.622 -20.647   4.617  0.00  0.00    +0.170 C 
ATOM     14  O   LIG    1       24.462 -21.453   3.704  0.00  0.00    -0.292 OA
BRANCH  13  16
ATOM     15  C   LIG    1       22.116 -20.731   4.872  0.00  0.00    +0.015 C 
ATOM     16  C   LIG    1       23.437 -20.325   5.528  0.00  0.00    +0.054 C 
ATOM     17  C   LIG    1       23.600 -21.038   6.867  0.00  0.00    +0.015 C 
ENDBRANCH  13  16
ENDBRANCH   1  13
TORSDOF 3
ENDMDL
MODEL 3
REMARK VINA RESULT:      -3.8      1.576      3.361
REMARK  Name = *****
REMARK                            x       y       z     vdW  Elec       q    Type
REMARK                         _______ _______ _______ _____ _____    ______ ____
ROOT
ATOM      1  C   LIG    1       24.834 -15.135   4.008  0.00  0.00    +0.066 A 
ATOM      2  C   LIG    1       26.063 -15.640   3.462  0.00  0.00    +0.077 A 
ATOM      3  N   LIG    1       26.013 -16.959   3.249  0.00  0.00    -0.170 NA
ATOM      4  N   LIG    1       24.779 -17.344   3.616  0.00  0.00    -0.239 N 
ATOM      5  C   LIG    1       24.304 -18.656   3.613  0.00  0.00    +0.113 A 
ATOM      6  C   LIG    1       23.052 -18.925   4.009  0.00  0.00    +0.020 A 
ATOM      7  C   LIG    1       22.203 -17.820   4.396  0.00  0.00    +0.004 A 
ATOM      8  C   LIG    1       22.647 -16.549   4.393  0.00  0.00    +0.028 A 
ATOM      9  C   LIG    1       24.004 -16.253   4.035  0.00  0.00    +0.078 A 
ENDROOT
BRANCH   2  10
ATOM     10  C   LIG    1       27.342 -14.903   3.134  0.00  0.00    +0.034 C 
ATOM     11  C   LIG    1       28.049 -14.384   4.396  0.00  0.00    +0.014 C 
ATOM     12  C   LIG    1       27.092 -13.749   2.161  0.00  0.00    +0.014 C 
ENDBRANCH   2  10
BRANCH   1  13
ATOM     13  C   LIG    1       24.582 -13.750   4.431  0.00  0.00    +0.170 C 
ATOM     14  O   LIG    1       25.086 -13.319   5.465  0.00  0.00    -0.292 OA
BRANCH  13  16
ATOM     15  C   LIG    1       23.567 -11.449   4.270  0.00  0.00    +0.015 C 
ATOM     16  C   LIG    1       23.689 -12.821   3.607  0.00  0.00    +0.054 C 
ATOM     17  C   LIG    1       24.252 -12.675   2.195  0.00  0.00    +0.015 C 
ENDBRANCH  13  16
ENDBRANCH   1  13
TORSDOF 3
ENDMDL
MODEL 4
REMARK VINA RESULT:      -3.6      2.414      6.089
REMARK  Name = *****
REMARK                            x       y       z     vdW  Elec       q    Type
REMARK                         _______ _______ _______ _____ _____    ______ ____
ROOT
ATOM      1  C   LIG    1       23.849 -17.908   4.013  0.00  0.00    +0.066 A 
ATOM      2  C   LIG    1       25.120 -18.421   3.585  0.00  0.00    +0.077 A 
ATOM      3  N   LIG    1       25.978 -17.444   3.277  0.00  0.00    -0.170 NA
ATOM      4  N   LIG    1       25.323 -16.294   3.507  0.00  0.00    -0.239 N 
ATOM      5  C   LIG    1       25.822 -15.013   3.267  0.00  0.00    +0.113 A 
ATOM      6  C   LIG    1       25.074 -13.933   3.529  0.00  0.00    +0.020 A 
ATOM      7  C   LIG    1       23.760 -14.131   4.102  0.00  0.00    +0.004 A 
ATOM      8  C   LIG    1       23.272 -15.361   4.348  0.00  0.00    +0.028 A 
ATOM      9  C   LIG    1       24.036 -16.528   4.012  0.00  0.00    +0.078 A 
ENDROOT
BRANCH   2  10
ATOM     10  C   LIG    1       25.574 -19.856   3.433  0.00  0.00    +0.034 C 
ATOM     11  C   LIG    1       24.500 -20.734   2.775  0.00  0.00    +0.014 C 
ATOM     12  C   LIG    1       25.994 -20.457   4.776  0.00  0.00    +0.014 C 
ENDBRANCH   2  10
BRANCH   1  13
ATOM     13  C   LIG    1       22.662 -18.709   4.348  0.00  0.00    +0.170 C 
ATOM     14  O   LIG    1       21.539 -18.290   4.082  0.00  0.00    -0.292 OA
BRANCH  13  16
ATOM     15  C   LIG    1       22.984 -19.903   6.544  0.00  0.00    +0.015 C 
ATOM     16  C   LIG    1       22.794 -20.069   5.035  0.00  0.00    +0.054 C 
ATOM     17  C   LIG    1       21.559 -20.919   4.751  0.00  0.00    +0.015 C 
ENDBRANCH  13  16
ENDBRANCH   1  13
TORSDOF 3
ENDMDL
MODEL 5
REMARK VINA RESULT:      -3.2      2.159      5.270
REMARK  Name = *****
REMARK                            x       y       z     vdW  Elec       q    Type
REMARK                         _______ _______ _______ _____ _____    ______ ____
ROOT
ATOM      1  C   LIG    1       24.439 -18.014   3.915  0.00  0.00    +0.066 A 
ATOM      2  C   LIG    1       23.107 -17.586   4.239  0.00  0.00    +0.077 A 
ATOM      3  N   LIG    1       23.002 -16.255   4.274  0.00  0.00    -0.170 NA
ATOM      4  N   LIG    1       24.221 -15.782   3.964  0.00  0.00    -0.239 N 
ATOM      5  C   LIG    1       24.586 -14.435   3.936  0.00  0.00    +0.113 A 
ATOM      6  C   LIG    1       25.838 -14.078   3.617  0.00  0.00    +0.020 A 
ATOM      7  C   LIG    1       26.779 -15.119   3.266  0.00  0.00    +0.004 A 
ATOM      8  C   LIG    1       26.436 -16.420   3.279  0.00  0.00    +0.028 A 
ATOM      9  C   LIG    1       25.118 -16.821   3.681  0.00  0.00    +0.078 A 
ENDROOT
BRANCH   2  10
ATOM     10  C   LIG    1       21.879 -18.416   4.543  0.00  0.00    +0.034 C 
ATOM     11  C   LIG    1       22.243 -19.792   5.122  0.00  0.00    +0.014 C 
ATOM     12  C   LIG    1       20.994 -18.584   3.306  0.00  0.00    +0.014 C 
ENDBRANCH   2  10
BRANCH   1  13
ATOM     13  C   LIG    1       24.913 -19.406   3.872  0.00  0.00    +0.170 C 
ATOM     14  O   LIG    1       24.830 -20.054   2.833  0.00  0.00    -0.292 OA
BRANCH  13  16
ATOM     15  C   LIG    1       25.190 -21.571   5.130  0.00  0.00    +0.015 C 
ATOM     16  C   LIG    1       25.510 -20.076   5.110  0.00  0.00    +0.054 C 
ATOM     17  C   LIG    1       27.020 -19.861   5.142  0.00  0.00    +0.015 C 
ENDBRANCH  13  16
ENDBRANCH   1  13
TORSDOF 3
ENDMDL
MODEL 6
REMARK VINA RESULT:      -3.1      2.183      5.858
REMARK  Name = *****
REMARK                            x       y       z     vdW  Elec       q    Type
REMARK                         _______ _______ _______ _____ _____    ______ ____
ROOT
ATOM      1  C   LIG    1       24.083 -16.856   3.987  0.00  0.00    +0.066 A 
ATOM      2  C   LIG    1       25.180 -17.736   3.700  0.00  0.00    +0.077 A 
ATOM      3  N   LIG    1       26.253 -17.075   3.257  0.00  0.00    -0.170 NA
ATOM      4  N   LIG    1       25.911 -15.775   3.261  0.00  0.00    -0.239 N 
ATOM      5  C   LIG    1       26.714 -14.722   2.820  0.00  0.00    +0.113 A 
ATOM      6  C   LIG    1       26.264 -13.461   2.864  0.00  0.00    +0.020 A 
ATOM      7  C   LIG    1       24.948 -13.221   3.416  0.00  0.00    +0.004 A 
ATOM      8  C   LIG    1       24.168 -14.227   3.854  0.00  0.00    +0.028 A 
ATOM      9  C   LIG    1       24.611 -15.588   3.753  0.00  0.00    +0.078 A 
ENDROOT
BRANCH   2  10
ATOM     10  C   LIG    1       25.257 -19.243   3.816  0.00  0.00    +0.034 C 
ATOM     11  C   LIG    1       26.502 -19.698   4.591  0.00  0.00    +0.014 C 
ATOM     12  C   LIG    1       25.219 -19.915   2.441  0.00  0.00    +0.014 C 
ENDBRANCH   2  10
BRANCH   1  13
ATOM     13  C   LIG    1       22.736 -17.263   4.413  0.00  0.00    +0.170 C 
ATOM     14  O   LIG    1       22.014 -16.474   5.018  0.00  0.00    -0.292 OA
BRANCH  13  16
ATOM     15  C   LIG    1       22.336 -19.567   5.354  0.00  0.00    +0.015 C 
ATOM     16  C   LIG    1       22.207 -18.668   4.123  0.00  0.00    +0.054 C 
ATOM     17  C   LIG    1       20.749 -18.594   3.678  0.00  0.00    +0.015 C 
ENDBRANCH  13  16
ENDBRANCH   1  13
TORSDOF 3
ENDMDL
MODEL 7
REMARK VINA RESULT:      -3.1      1.565      3.049
REMARK  Name = *****
REMARK                            x       y       z     vdW  Elec       q    Type
REMARK                         _______ _______ _______ _____ _____    ______ ____
ROOT
ATOM      1  C   LIG    1       24.569 -15.320   3.686  0.00  0.00    +0.066 A 
ATOM      2  C   LIG    1       25.890 -15.676   3.247  0.00  0.00    +0.077 A 
ATOM      3  N   LIG    1       26.078 -16.999   3.243  0.00  0.00    -0.170 NA
ATOM      4  N   LIG    1       24.914 -17.537   3.646  0.00  0.00    -0.239 N 
ATOM      5  C   LIG    1       24.674 -18.898   3.841  0.00  0.00    +0.113 A 
ATOM      6  C   LIG    1       23.471 -19.321   4.253  0.00  0.00    +0.020 A 
ATOM      7  C   LIG    1       22.427 -18.338   4.447  0.00  0.00    +0.004 A 
ATOM      8  C   LIG    1       22.644 -17.025   4.252  0.00  0.00    +0.028 A 
ATOM      9  C   LIG    1       23.944 -16.551   3.874  0.00  0.00    +0.078 A 
ENDROOT
BRANCH   2  10
ATOM     10  C   LIG    1       27.036 -14.781   2.829  0.00  0.00    +0.034 C 
ATOM     11  C   LIG    1       27.969 -14.452   4.004  0.00  0.00    +0.014 C 
ATOM     12  C   LIG    1       26.532 -13.490   2.180  0.00  0.00    +0.014 C 
ENDBRANCH   2  10
BRANCH   1  13
ATOM     13  C   LIG    1       24.063 -13.953   3.882  0.00  0.00    +0.170 C 
ATOM     14  O   LIG    1       23.463 -13.381   2.975  0.00  0.00    -0.292 OA
BRANCH  13  16
ATOM     15  C   LIG    1       25.733 -13.297   5.650  0.00  0.00    +0.015 C 
ATOM     16  C   LIG    1       24.273 -13.215   5.204  0.00  0.00    +0.054 C 
ATOM     17  C   LIG    1       23.850 -11.755   5.059  0.00  0.00    +0.015 C 
ENDBRANCH  13  16
ENDBRANCH   1  13
TORSDOF 3
ENDMDL
MODEL 8
REMARK VINA RESULT:      -2.7      3.424      6.735
REMARK  Name = *****
REMARK                            x       y       z     vdW  Elec       q    Type
REMARK                         _______ _______ _______ _____ _____    ______ ____
ROOT
ATOM      1  C   LIG    1       25.338 -19.575   4.528  0.00  0.00    +0.066 A 
ATOM      2  C   LIG    1       26.338 -20.133   5.394  0.00  0.00    +0.077 A 
ATOM      3  N   LIG    1       27.424 -19.358   5.471  0.00  0.00    -0.170 NA
ATOM      4  N   LIG    1       27.170 -18.290   4.698  0.00  0.00    -0.239 N 
ATOM      5  C   LIG    1       28.057 -17.244   4.441  0.00  0.00    +0.113 A 
ATOM      6  C   LIG    1       27.696 -16.228   3.644  0.00  0.00    +0.020 A 
ATOM      7  C   LIG    1       26.356 -16.228   3.097  0.00  0.00    +0.004 A 
ATOM      8  C   LIG    1       25.488 -17.226   3.347  0.00  0.00    +0.028 A 
ATOM      9  C   LIG    1       25.883 -18.351   4.144  0.00  0.00    +0.078 A 
ENDROOT
BRANCH   2  10
ATOM     10  C   LIG    1       26.317 -21.429   6.174  0.00  0.00    +0.034 C 
ATOM     11  C   LIG    1       25.044 -21.571   7.022  0.00  0.00    +0.014 C 
ATOM     12  C   LIG    1       27.557 -21.571   7.060  0.00  0.00    +0.014 C 
ENDBRANCH   2  10
BRANCH   1  13
ATOM     13  C   LIG    1       24.062 -20.207   4.161  0.00  0.00    +0.170 C 
ATOM     14  O   LIG    1       23.998 -20.947   3.183  0.00  0.00    -0.292 OA
BRANCH  13  16
ATOM     15  C   LIG    1       22.111 -18.657   4.540  0.00  0.00    +0.015 C 
ATOM     16  C   LIG    1       22.792 -19.955   4.976  0.00  0.00    +0.054 C 
ATOM     17  C   LIG    1       21.832 -21.131   4.820  0.00  0.00    +0.015 C 
ENDBRANCH  13  16
ENDBRANCH   1  13
TORSDOF 3
ENDMDL
MODEL 9
REMARK VINA RESULT:      -2.5      2.534      5.463
REMARK  Name = *****
REMARK                            x       y       z     vdW  Elec       q    Type
REMARK                         _______ _______ _______ _____ _____    ______ ____
ROOT
ATOM      1  C   LIG    1       24.356 -18.887   3.981  0.00  0.00    +0.066 A 
ATOM      2  C   LIG    1       23.005 -19.159   4.383  0.00  0.00    +0.077 A 
ATOM      3  N   LIG    1       22.307 -18.038   4.589  0.00  0.00    -0.170 NA
ATOM      4  N   LIG    1       23.148 -17.026   4.315  0.00  0.00    -0.239 N 
ATOM      5  C   LIG    1       22.855 -15.668   4.449  0.00  0.00    +0.113 A 
ATOM      6  C   LIG    1       23.778 -14.743   4.151  0.00  0.00    +0.020 A 
ATOM      7  C   LIG    1       25.061 -15.189   3.652  0.00  0.00    +0.004 A 
ATOM      8  C   LIG    1       25.351 -16.495   3.509  0.00  0.00    +0.028 A 
ATOM      9  C   LIG    1       24.396 -17.498   3.884  0.00  0.00    +0.078 A 
ENDROOT
BRANCH   2  10
ATOM     10  C   LIG    1       22.319 -20.488   4.607  0.00  0.00    +0.034 C 
ATOM     11  C   LIG    1       20.814 -20.418   4.307  0.00  0.00    +0.014 C 
ATOM     12  C   LIG    1       22.548 -21.007   6.028  0.00  0.00    +0.014 C 
ENDBRANCH   2  10
BRANCH   1  13
ATOM     13  C   LIG    1       25.408 -19.889   3.752  0.00  0.00    +0.170 C 
ATOM     14  O   LIG    1       25.489 -20.463   2.670  0.00  0.00    -0.292 OA
BRANCH  13  16
ATOM     15  C   LIG    1       27.500 -19.173   4.960  0.00  0.00    +0.015 C 
ATOM     16  C   LIG    1       26.414 -20.243   4.849  0.00  0.00    +0.054 C 
ATOM     17  C   LIG    1       25.693 -20.402   6.185  0.00  0.00    +0.015 C 
ENDBRANCH  13  16
ENDBRANCH   1  13
TORSDOF 3
ENDMDL
