MODEL 1
REMARK VINA RESULT:      -5.4      0.000      0.000
REMARK  Name = *****
REMARK                            x       y       z     vdW  Elec       q    Type
REMARK                         _______ _______ _______ _____ _____    ______ ____
ROOT
ATOM      1  C   LIG    1       23.169 -16.559   4.187  0.00  0.00    +0.121 A 
ATOM      2  C   LIG    1       24.408 -17.050   3.789  0.00  0.00    +0.046 A 
ATOM      3  C   LIG    1       24.702 -18.442   3.689  0.00  0.00    +0.009 A 
ATOM      4  C   LIG    1       23.723 -19.399   4.039  0.00  0.00    -0.022 A 
ATOM      5  C   LIG    1       22.495 -18.890   4.438  0.00  0.00    +0.009 A 
ATOM      6  C   LIG    1       22.182 -17.519   4.487  0.00  0.00    +0.046 A 
ENDROOT
BRANCH   1   7
ATOM      7  O   LIG    1       22.904 -15.225   4.190  0.00  0.00    -0.489 OA
BRANCH   7   8
ATOM      8  C   LIG    1       23.989 -14.264   4.336  0.00  0.00    +0.261 C 
BRANCH   8   9
ATOM      9  C   LIG    1       24.192 -13.355   3.089  0.00  0.00    +0.166 C 
BRANCH   9  10
ATOM     10  O   LIG    1       24.136 -12.046   3.650  0.00  0.00    -0.387 OA
ATOM     11  H   LIG    1       24.997 -11.636   3.444  0.00  0.00    +0.210 HD
ENDBRANCH   9  10
BRANCH   9  12
ATOM     12  C   LIG    1       25.487 -13.521   2.232  0.00  0.00    +0.115 C 
BRANCH  12  13
ATOM     13  N   LIG    1       26.771 -12.959   2.742  0.00  0.00    -0.311 NA
ATOM     14  H   LIG    1       26.701 -11.967   2.960  0.00  0.00    +0.122 HD
BRANCH  13  16
ATOM     15  C   LIG    1       27.254 -13.298   5.186  0.00  0.00    +0.024 C 
ATOM     16  C   LIG    1       27.579 -13.706   3.726  0.00  0.00    +0.048 C 
ATOM     17  C   LIG    1       27.509 -15.232   3.707  0.00  0.00    +0.024 C 
ENDBRANCH  13  16
ENDBRANCH  12  13
ENDBRANCH   9  12
ENDBRANCH   8   9
ENDBRANCH   7   8
ENDBRANCH   1   7
BRANCH   4  18
ATOM     18  C   LIG    1       23.961 -20.925   4.080  0.00  0.00    +0.195 C 
BRANCH  18  19
ATOM     19  O   LIG    1       23.721 -21.572   5.336  0.00  0.00    -0.373 OA
BRANCH  19  20
ATOM     20  C   LIG    1       24.273 -20.901   6.482  0.00  0.00    +0.188 C 
BRANCH  20  21
ATOM     21  C   LIG    1       25.754 -21.268   6.774  0.00  0.00    +0.188 C 
BRANCH  21  22
ATOM     22  O   LIG    1       26.731 -20.614   5.949  0.00  0.00    -0.375 OA
BRANCH  22  23
ATOM     23  C   LIG    1       27.876 -20.053   6.607  0.00  0.00    +0.112 C 
ATOM     24  C   LIG    1       28.714 -19.201   5.671  0.00  0.00    +0.037 C 
ATOM     25  C   LIG    1       28.769 -21.207   7.057  0.00  0.00    +0.037 C 
ENDBRANCH  22  23
ENDBRANCH  21  22
ENDBRANCH  20  21
ENDBRANCH  19  20
ENDBRANCH  18  19
ENDBRANCH   4  18
TORSDOF 13
ENDMDL
MODEL 2
REMARK VINA RESULT:      -4.9      1.981      3.988
REMARK  Name = *****
REMARK                            x       y       z     vdW  Elec       q    Type
REMARK                         _______ _______ _______ _____ _____    ______ ____
ROOT
ATOM      1  C   LIG    1       26.855 -17.016   3.671  0.00  0.00    +0.121 A 
ATOM      2  C   LIG    1       27.711 -17.805   4.433  0.00  0.00    +0.046 A 
ATOM      3  C   LIG    1       27.414 -19.151   4.800  0.00  0.00    +0.009 A 
ATOM      4  C   LIG    1       26.183 -19.733   4.421  0.00  0.00    -0.022 A 
ATOM      5  C   LIG    1       25.341 -18.928   3.665  0.00  0.00    +0.009 A 
ATOM      6  C   LIG    1       25.652 -17.619   3.255  0.00  0.00    +0.046 A 
ENDROOT
BRANCH   1   7
ATOM      7  O   LIG    1       27.212 -15.765   3.273  0.00  0.00    -0.489 OA
BRANCH   7   8
ATOM      8  C   LIG    1       27.669 -14.789   4.253  0.00  0.00    +0.261 C 
BRANCH   8   9
ATOM      9  C   LIG    1       27.525 -13.312   3.779  0.00  0.00    +0.166 C 
BRANCH   9  10
ATOM     10  O   LIG    1       28.870 -12.955   3.472  0.00  0.00    -0.387 OA
ATOM     11  H   LIG    1       28.913 -11.986   3.571  0.00  0.00    +0.210 HD
ENDBRANCH   9  10
BRANCH   9  12
ATOM     12  C   LIG    1       26.591 -12.991   2.569  0.00  0.00    +0.115 C 
BRANCH  12  13
ATOM     13  N   LIG    1       25.358 -13.807   2.368  0.00  0.00    -0.311 NA
ATOM     14  H   LIG    1       25.556 -14.804   2.319  0.00  0.00    +0.122 HD
BRANCH  13  16
ATOM     15  C   LIG    1       24.009 -14.342   4.421  0.00  0.00    +0.024 C 
ATOM     16  C   LIG    1       24.126 -13.503   3.123  0.00  0.00    +0.048 C 
ATOM     17  C   LIG    1       23.881 -12.057   3.551  0.00  0.00    +0.024 C 
ENDBRANCH  13  16
ENDBRANCH  12  13
ENDBRANCH   9  12
ENDBRANCH   8   9
ENDBRANCH   7   8
ENDBRANCH   1   7
BRANCH   4  18
ATOM     18  C   LIG    1       25.703 -21.136   4.854  0.00  0.00    +0.195 C 
BRANCH  18  19
ATOM     19  O   LIG    1       25.808 -21.440   6.249  0.00  0.00    -0.373 OA
BRANCH  19  20
ATOM     20  C   LIG    1       24.721 -20.960   7.061  0.00  0.00    +0.188 C 
BRANCH  20  21
ATOM     21  C   LIG    1       23.324 -21.126   6.406  0.00  0.00    +0.188 C 
BRANCH  21  22
ATOM     22  O   LIG    1       22.625 -19.907   6.110  0.00  0.00    -0.375 OA
BRANCH  22  23
ATOM     23  C   LIG    1       22.340 -19.630   4.732  0.00  0.00    +0.112 C 
ATOM     24  C   LIG    1       21.986 -18.173   4.502  0.00  0.00    +0.037 C 
ATOM     25  C   LIG    1       21.109 -20.442   4.336  0.00  0.00    +0.037 C 
ENDBRANCH  22  23
ENDBRANCH  21  22
ENDBRANCH  20  21
ENDBRANCH  19  20
ENDBRANCH  18  19
ENDBRANCH   4  18
TORSDOF 13
ENDMDL
MODEL 3
REMARK VINA RESULT:      -4.2      1.971      4.209
REMARK  Name = *****
REMARK                            x       y       z     vdW  Elec       q    Type
REMARK                         _______ _______ _______ _____ _____    ______ ____
ROOT
ATOM      1  C   LIG    1       26.750 -17.690   3.674  0.00  0.00    +0.121 A 
ATOM      2  C   LIG    1       27.474 -18.396   4.629  0.00  0.00    +0.046 A 
ATOM      3  C   LIG    1       27.049 -19.647   5.165  0.00  0.00    +0.009 A 
ATOM      4  C   LIG    1       25.819 -20.211   4.757  0.00  0.00    -0.022 A 
ATOM      5  C   LIG    1       25.108 -19.489   3.808  0.00  0.00    +0.009 A 
ATOM      6  C   LIG    1       25.549 -18.282   3.236  0.00  0.00    +0.046 A 
ENDROOT
BRANCH   1   7
ATOM      7  O   LIG    1       27.231 -16.541   3.128  0.00  0.00    -0.489 OA
BRANCH   7   8
ATOM      8  C   LIG    1       27.473 -15.377   3.970  0.00  0.00    +0.261 C 
BRANCH   8   9
ATOM      9  C   LIG    1       27.441 -14.027   3.195  0.00  0.00    +0.166 C 
BRANCH   9  10
ATOM     10  O   LIG    1       26.752 -14.376   1.997  0.00  0.00    -0.387 OA
ATOM     11  H   LIG    1       25.835 -14.568   2.268  0.00  0.00    +0.210 HD
ENDBRANCH   9  10
BRANCH   9  12
ATOM     12  C   LIG    1       26.768 -12.785   3.862  0.00  0.00    +0.115 C 
BRANCH  12  13
ATOM     13  N   LIG    1       25.649 -12.996   4.825  0.00  0.00    -0.311 NA
ATOM     14  H   LIG    1       25.722 -12.395   5.643  0.00  0.00    +0.122 HD
BRANCH  13  16
ATOM     15  C   LIG    1       24.015 -12.375   3.019  0.00  0.00    +0.024 C 
ATOM     16  C   LIG    1       24.261 -13.142   4.343  0.00  0.00    +0.048 C 
ATOM     17  C   LIG    1       23.726 -14.551   4.101  0.00  0.00    +0.024 C 
ENDBRANCH  13  16
ENDBRANCH  12  13
ENDBRANCH   9  12
ENDBRANCH   8   9
ENDBRANCH   7   8
ENDBRANCH   1   7
BRANCH   4  18
ATOM     18  C   LIG    1       25.201 -21.498   5.349  0.00  0.00    +0.195 C 
BRANCH  18  19
ATOM     19  O   LIG    1       24.519 -21.358   6.600  0.00  0.00    -0.373 OA
BRANCH  19  20
ATOM     20  C   LIG    1       23.193 -20.807   6.514  0.00  0.00    +0.188 C 
BRANCH  20  21
ATOM     21  C   LIG    1       22.484 -21.082   5.160  0.00  0.00    +0.188 C 
BRANCH  21  22
ATOM     22  O   LIG    1       21.408 -20.190   4.828  0.00  0.00    -0.375 OA
BRANCH  22  23
ATOM     23  C   LIG    1       21.721 -19.063   3.998  0.00  0.00    +0.112 C 
ATOM     24  C   LIG    1       22.176 -17.863   4.808  0.00  0.00    +0.037 C 
ATOM     25  C   LIG    1       20.442 -18.640   3.280  0.00  0.00    +0.037 C 
ENDBRANCH  22  23
ENDBRANCH  21  22
ENDBRANCH  20  21
ENDBRANCH  19  20
ENDBRANCH  18  19
ENDBRANCH   4  18
TORSDOF 13
ENDMDL
MODEL 4
REMARK VINA RESULT:      -3.5      2.404      7.273
REMARK  Name = *****
REMARK                            x       y       z     vdW  Elec       q    Type
REMARK                         _______ _______ _______ _____ _____    ______ ____
ROOT
ATOM      1  C   LIG    1       25.905 -19.683   4.145  0.00  0.00    +0.121 A 
ATOM      2  C   LIG    1       27.073 -19.332   4.814  0.00  0.00    +0.046 A 
ATOM      3  C   LIG    1       27.638 -18.023   4.767  0.00  0.00    +0.009 A 
ATOM      4  C   LIG    1       27.029 -17.017   3.982  0.00  0.00    -0.022 A 
ATOM      5  C   LIG    1       25.867 -17.388   3.319  0.00  0.00    +0.009 A 
ATOM      6  C   LIG    1       25.277 -18.662   3.406  0.00  0.00    +0.046 A 
ENDROOT
BRANCH   1   7
ATOM      7  O   LIG    1       25.355 -20.919   4.283  0.00  0.00    -0.489 OA
BRANCH   7   8
ATOM      8  C   LIG    1       25.149 -21.485   5.609  0.00  0.00    +0.261 C 
BRANCH   8   9
ATOM      9  C   LIG    1       23.663 -21.464   6.074  0.00  0.00    +0.166 C 
BRANCH   9  10
ATOM     10  O   LIG    1       23.663 -20.431   7.057  0.00  0.00    -0.387 OA
ATOM     11  H   LIG    1       23.840 -20.877   7.906  0.00  0.00    +0.210 HD
ENDBRANCH   9  10
BRANCH   9  12
ATOM     12  C   LIG    1       22.541 -21.204   5.019  0.00  0.00    +0.115 C 
BRANCH  12  13
ATOM     13  N   LIG    1       22.586 -19.955   4.204  0.00  0.00    -0.311 NA
ATOM     14  H   LIG    1       22.771 -20.140   3.221  0.00  0.00    +0.122 HD
BRANCH  13  16
ATOM     15  C   LIG    1       22.237 -17.489   4.543  0.00  0.00    +0.024 C 
ATOM     16  C   LIG    1       21.586 -18.889   4.409  0.00  0.00    +0.048 C 
ATOM     17  C   LIG    1       20.483 -18.725   3.366  0.00  0.00    +0.024 C 
ENDBRANCH  13  16
ENDBRANCH  12  13
ENDBRANCH   9  12
ENDBRANCH   8   9
ENDBRANCH   7   8
ENDBRANCH   1   7
BRANCH   4  18
ATOM     18  C   LIG    1       27.608 -15.601   3.763  0.00  0.00    +0.195 C 
BRANCH  18  19
ATOM     19  O   LIG    1       27.046 -14.845   2.685  0.00  0.00    -0.373 OA
BRANCH  19  20
ATOM     20  C   LIG    1       27.131 -13.417   2.832  0.00  0.00    +0.188 C 
BRANCH  20  21
ATOM     21  C   LIG    1       25.865 -12.658   2.351  0.00  0.00    +0.188 C 
BRANCH  21  22
ATOM     22  O   LIG    1       24.647 -13.418   2.346  0.00  0.00    -0.375 OA
BRANCH  22  23
ATOM     23  C   LIG    1       23.754 -13.238   3.454  0.00  0.00    +0.112 C 
ATOM     24  C   LIG    1       24.135 -12.042   4.307  0.00  0.00    +0.037 C 
ATOM     25  C   LIG    1       23.871 -14.466   4.353  0.00  0.00    +0.037 C 
ENDBRANCH  22  23
ENDBRANCH  21  22
ENDBRANCH  20  21
ENDBRANCH  19  20
ENDBRANCH  18  19
ENDBRANCH   4  18
TORSDOF 13
ENDMDL
MODEL 5
REMARK VINA RESULT:      -3.1      1.715      4.091
REMARK  Name = *****
REMARK                            x       y       z     vdW  Elec       q    Type
REMARK                         _______ _______ _______ _____ _____    ______ ____
ROOT
ATOM      1  C   LIG    1       26.438 -15.922   3.217  0.00  0.00    +0.121 A 
ATOM      2  C   LIG    1       27.573 -15.560   3.935  0.00  0.00    +0.046 A 
ATOM      3  C   LIG    1       28.374 -16.494   4.655  0.00  0.00    +0.009 A 
ATOM      4  C   LIG    1       28.007 -17.859   4.695  0.00  0.00    -0.022 A 
ATOM      5  C   LIG    1       26.869 -18.200   3.976  0.00  0.00    +0.009 A 
ATOM      6  C   LIG    1       26.106 -17.291   3.220  0.00  0.00    +0.046 A 
ENDROOT
BRANCH   1   7
ATOM      7  O   LIG    1       25.748 -15.013   2.477  0.00  0.00    -0.489 OA
BRANCH   7   8
ATOM      8  C   LIG    1       25.992 -13.589   2.656  0.00  0.00    +0.261 C 
BRANCH   8   9
ATOM      9  C   LIG    1       24.790 -12.821   3.280  0.00  0.00    +0.166 C 
BRANCH   9  10
ATOM     10  O   LIG    1       24.013 -12.482   2.134  0.00  0.00    -0.387 OA
ATOM     11  H   LIG    1       23.411 -11.772   2.426  0.00  0.00    +0.210 HD
ENDBRANCH   9  10
BRANCH   9  12
ATOM     12  C   LIG    1       23.899 -13.541   4.343  0.00  0.00    +0.115 C 
BRANCH  12  13
ATOM     13  N   LIG    1       23.171 -14.784   3.956  0.00  0.00    -0.311 NA
ATOM     14  H   LIG    1       23.485 -15.156   3.062  0.00  0.00    +0.122 HD
BRANCH  13  16
ATOM     15  C   LIG    1       21.928 -15.369   6.061  0.00  0.00    +0.024 C 
ATOM     16  C   LIG    1       22.906 -15.839   4.954  0.00  0.00    +0.048 C 
ATOM     17  C   LIG    1       22.349 -17.174   4.462  0.00  0.00    +0.024 C 
ENDBRANCH  13  16
ENDBRANCH  12  13
ENDBRANCH   9  12
ENDBRANCH   8   9
ENDBRANCH   7   8
ENDBRANCH   1   7
BRANCH   4  18
ATOM     18  C   LIG    1       28.729 -18.940   5.530  0.00  0.00    +0.195 C 
BRANCH  18  19
ATOM     19  O   LIG    1       28.099 -20.224   5.587  0.00  0.00    -0.373 OA
BRANCH  19  20
ATOM     20  C   LIG    1       27.446 -20.529   6.831  0.00  0.00    +0.188 C 
BRANCH  20  21
ATOM     21  C   LIG    1       26.043 -21.175   6.667  0.00  0.00    +0.188 C 
BRANCH  21  22
ATOM     22  O   LIG    1       25.075 -20.388   5.955  0.00  0.00    -0.375 OA
BRANCH  22  23
ATOM     23  C   LIG    1       24.113 -21.094   5.158  0.00  0.00    +0.112 C 
ATOM     24  C   LIG    1       24.180 -20.696   3.695  0.00  0.00    +0.037 C 
ATOM     25  C   LIG    1       22.721 -20.703   5.650  0.00  0.00    +0.037 C 
ENDBRANCH  22  23
ENDBRANCH  21  22
ENDBRANCH  20  21
ENDBRANCH  19  20
ENDBRANCH  18  19
ENDBRANCH   4  18
TORSDOF 13
ENDMDL
MODEL 6
REMARK VINA RESULT:      -2.8      1.688      5.602
REMARK  Name = *****
REMARK                            x       y       z     vdW  Elec       q    Type
REMARK                         _______ _______ _______ _____ _____    ______ ____
ROOT
ATOM      1  C   LIG    1       26.149 -20.432   5.665  0.00  0.00    +0.121 A 
ATOM      2  C   LIG    1       25.893 -19.917   4.399  0.00  0.00    +0.046 A 
ATOM      3  C   LIG    1       24.589 -19.547   3.955  0.00  0.00    +0.009 A 
ATOM      4  C   LIG    1       23.473 -19.733   4.802  0.00  0.00    -0.022 A 
ATOM      5  C   LIG    1       23.749 -20.252   6.060  0.00  0.00    +0.009 A 
ATOM      6  C   LIG    1       25.040 -20.568   6.522  0.00  0.00    +0.046 A 
ENDROOT
BRANCH   1   7
ATOM      7  O   LIG    1       27.418 -20.695   6.078  0.00  0.00    -0.489 OA
BRANCH   7   8
ATOM      8  C   LIG    1       28.537 -19.939   5.533  0.00  0.00    +0.261 C 
BRANCH   8   9
ATOM      9  C   LIG    1       28.453 -18.409   5.811  0.00  0.00    +0.166 C 
BRANCH   9  10
ATOM     10  O   LIG    1       29.474 -18.218   6.788  0.00  0.00    -0.387 OA
ATOM     11  H   LIG    1       29.756 -19.114   7.051  0.00  0.00    +0.210 HD
ENDBRANCH   9  10
BRANCH   9  12
ATOM     12  C   LIG    1       28.647 -17.410   4.626  0.00  0.00    +0.115 C 
BRANCH  12  13
ATOM     13  N   LIG    1       27.575 -16.414   4.335  0.00  0.00    -0.311 NA
ATOM     14  H   LIG    1       26.768 -16.523   4.945  0.00  0.00    +0.122 HD
BRANCH  13  16
ATOM     15  C   LIG    1       27.297 -14.474   2.760  0.00  0.00    +0.024 C 
ATOM     16  C   LIG    1       27.915 -15.000   4.081  0.00  0.00    +0.048 C 
ATOM     17  C   LIG    1       27.543 -13.966   5.142  0.00  0.00    +0.024 C 
ENDBRANCH  13  16
ENDBRANCH  12  13
ENDBRANCH   9  12
ENDBRANCH   8   9
ENDBRANCH   7   8
ENDBRANCH   1   7
BRANCH   4  18
ATOM     18  C   LIG    1       22.005 -19.477   4.393  0.00  0.00    +0.195 C 
BRANCH  18  19
ATOM     19  O   LIG    1       21.655 -18.120   4.100  0.00  0.00    -0.373 OA
BRANCH  19  20
ATOM     20  C   LIG    1       22.331 -17.131   4.895  0.00  0.00    +0.188 C 
BRANCH  20  21
ATOM     21  C   LIG    1       22.745 -15.861   4.104  0.00  0.00    +0.188 C 
BRANCH  21  22
ATOM     22  O   LIG    1       23.192 -14.750   4.898  0.00  0.00    -0.375 OA
BRANCH  22  23
ATOM     23  C   LIG    1       24.161 -13.871   4.312  0.00  0.00    +0.112 C 
ATOM     24  C   LIG    1       24.141 -12.492   4.946  0.00  0.00    +0.037 C 
ATOM     25  C   LIG    1       23.789 -13.677   2.843  0.00  0.00    +0.037 C 
ENDBRANCH  22  23
ENDBRANCH  21  22
ENDBRANCH  20  21
ENDBRANCH  19  20
ENDBRANCH  18  19
ENDBRANCH   4  18
TORSDOF 13
ENDMDL
MODEL 7
REMARK VINA RESULT:      -2.7      1.254      1.761
REMARK  Name = *****
REMARK                            x       y       z     vdW  Elec       q    Type
REMARK                         _______ _______ _______ _____ _____    ______ ____
ROOT
ATOM      1  C   LIG    1       23.839 -15.221   4.442  0.00  0.00    +0.121 A 
ATOM      2  C   LIG    1       24.734 -16.183   3.985  0.00  0.00    +0.046 A 
ATOM      3  C   LIG    1       24.400 -17.562   3.853  0.00  0.00    +0.009 A 
ATOM      4  C   LIG    1       23.116 -18.019   4.230  0.00  0.00    -0.022 A 
ATOM      5  C   LIG    1       22.239 -17.045   4.688  0.00  0.00    +0.009 A 
ATOM      6  C   LIG    1       22.547 -15.675   4.769  0.00  0.00    +0.046 A 
ENDROOT
BRANCH   1   7
ATOM      7  O   LIG    1       24.173 -13.903   4.475  0.00  0.00    -0.489 OA
BRANCH   7   8
ATOM      8  C   LIG    1       23.573 -12.972   3.528  0.00  0.00    +0.261 C 
BRANCH   8   9
ATOM      9  C   LIG    1       24.407 -12.780   2.227  0.00  0.00    +0.166 C 
BRANCH   9  10
ATOM     10  O   LIG    1       24.034 -11.467   1.814  0.00  0.00    -0.387 OA
ATOM     11  H   LIG    1       23.498 -11.589   1.009  0.00  0.00    +0.210 HD
ENDBRANCH   9  10
BRANCH   9  12
ATOM     12  C   LIG    1       25.963 -12.901   2.298  0.00  0.00    +0.115 C 
BRANCH  12  13
ATOM     13  N   LIG    1       26.664 -12.512   3.557  0.00  0.00    -0.311 NA
ATOM     14  H   LIG    1       26.017 -12.256   4.298  0.00  0.00    +0.122 HD
BRANCH  13  16
ATOM     15  C   LIG    1       27.576 -14.823   3.941  0.00  0.00    +0.024 C 
ATOM     16  C   LIG    1       27.816 -13.295   4.046  0.00  0.00    +0.048 C 
ATOM     17  C   LIG    1       29.179 -13.053   3.401  0.00  0.00    +0.024 C 
ENDBRANCH  13  16
ENDBRANCH  12  13
ENDBRANCH   9  12
ENDBRANCH   8   9
ENDBRANCH   7   8
ENDBRANCH   1   7
BRANCH   4  18
ATOM     18  C   LIG    1       22.677 -19.500   4.240  0.00  0.00    +0.195 C 
BRANCH  18  19
ATOM     19  O   LIG    1       23.513 -20.415   3.522  0.00  0.00    -0.373 OA
BRANCH  19  20
ATOM     20  C   LIG    1       24.084 -21.470   4.315  0.00  0.00    +0.188 C 
BRANCH  20  21
ATOM     21  C   LIG    1       23.905 -21.276   5.845  0.00  0.00    +0.188 C 
BRANCH  21  22
ATOM     22  O   LIG    1       25.109 -21.330   6.625  0.00  0.00    -0.375 OA
BRANCH  22  23
ATOM     23  C   LIG    1       26.112 -20.342   6.354  0.00  0.00    +0.112 C 
ATOM     24  C   LIG    1       26.436 -20.245   4.875  0.00  0.00    +0.037 C 
ATOM     25  C   LIG    1       27.399 -20.777   7.051  0.00  0.00    +0.037 C 
ENDBRANCH  22  23
ENDBRANCH  21  22
ENDBRANCH  20  21
ENDBRANCH  19  20
ENDBRANCH  18  19
ENDBRANCH   4  18
TORSDOF 13
ENDMDL
MODEL 8
REMARK VINA RESULT:      -2.6      2.462      6.266
REMARK  Name = *****
REMARK                            x       y       z     vdW  Elec       q    Type
REMARK                         _______ _______ _______ _____ _____    ______ ____
ROOT
ATOM      1  C   LIG    1       25.243 -20.890   6.029  0.00  0.00    +0.121 A 
ATOM      2  C   LIG    1       25.621 -20.289   4.833  0.00  0.00    +0.046 A 
ATOM      3  C   LIG    1       26.896 -19.682   4.632  0.00  0.00    +0.009 A 
ATOM      4  C   LIG    1       27.833 -19.637   5.689  0.00  0.00    -0.022 A 
ATOM      5  C   LIG    1       27.435 -20.237   6.875  0.00  0.00    +0.009 A 
ATOM      6  C   LIG    1       26.201 -20.885   7.062  0.00  0.00    +0.046 A 
ENDROOT
BRANCH   1   7
ATOM      7  O   LIG    1       24.049 -21.530   6.153  0.00  0.00    -0.489 OA
BRANCH   7   8
ATOM      8  C   LIG    1       22.805 -20.777   6.086  0.00  0.00    +0.261 C 
BRANCH   8   9
ATOM      9  C   LIG    1       22.354 -20.440   4.634  0.00  0.00    +0.166 C 
BRANCH   9  10
ATOM     10  O   LIG    1       21.205 -21.268   4.469  0.00  0.00    -0.387 OA
ATOM     11  H   LIG    1       20.530 -20.902   5.070  0.00  0.00    +0.210 HD
ENDBRANCH   9  10
BRANCH   9  12
ATOM     12  C   LIG    1       22.010 -18.961   4.270  0.00  0.00    +0.115 C 
BRANCH  12  13
ATOM     13  N   LIG    1       22.348 -17.878   5.239  0.00  0.00    -0.311 NA
ATOM     14  H   LIG    1       23.203 -18.072   5.756  0.00  0.00    +0.122 HD
BRANCH  13  16
ATOM     15  C   LIG    1       21.893 -15.546   6.060  0.00  0.00    +0.024 C 
ATOM     16  C   LIG    1       22.223 -16.459   4.852  0.00  0.00    +0.048 C 
ATOM     17  C   LIG    1       23.407 -15.794   4.154  0.00  0.00    +0.024 C 
ENDBRANCH  13  16
ENDBRANCH  12  13
ENDBRANCH   9  12
ENDBRANCH   8   9
ENDBRANCH   7   8
ENDBRANCH   1   7
BRANCH   4  18
ATOM     18  C   LIG    1       29.195 -18.909   5.626  0.00  0.00    +0.195 C 
BRANCH  18  19
ATOM     19  O   LIG    1       29.280 -17.798   4.728  0.00  0.00    -0.373 OA
BRANCH  19  20
ATOM     20  C   LIG    1       28.300 -16.766   4.939  0.00  0.00    +0.188 C 
BRANCH  20  21
ATOM     21  C   LIG    1       27.395 -16.495   3.707  0.00  0.00    +0.188 C 
BRANCH  21  22
ATOM     22  O   LIG    1       27.113 -15.114   3.434  0.00  0.00    -0.375 OA
BRANCH  22  23
ATOM     23  C   LIG    1       27.516 -14.153   4.419  0.00  0.00    +0.112 C 
ATOM     24  C   LIG    1       26.331 -13.445   5.048  0.00  0.00    +0.037 C 
ATOM     25  C   LIG    1       28.339 -13.077   3.714  0.00  0.00    +0.037 C 
ENDBRANCH  22  23
ENDBRANCH  21  22
ENDBRANCH  20  21
ENDBRANCH  19  20
ENDBRANCH  18  19
ENDBRANCH   4  18
TORSDOF 13
ENDMDL
