MODEL 1
REMARK VINA RESULT:      -9.2      0.000      0.000
REMARK  Name = *****
REMARK                            x       y       z     vdW  Elec       q    Type
REMARK                         _______ _______ _______ _____ _____    ______ ____
ROOT
ATOM      1  C   LIG    1       27.349 -20.273   8.315  0.00  0.00    +0.008 C 
ATOM      2  C   LIG    1       28.586 -20.117   7.814  0.00  0.00    +0.012 C 
ENDROOT
BRANCH   1   6
ATOM      3  C   LIG    1       24.508 -23.167   6.937  0.00  0.00    +0.065 A 
ATOM      4  C   LIG    1       24.105 -21.845   7.138  0.00  0.00    +0.016 A 
ATOM      5  C   LIG    1       25.026 -20.888   7.577  0.00  0.00    +0.009 A 
ATOM      6  C   LIG    1       26.362 -21.240   7.812  0.00  0.00    -0.025 A 
ATOM      7  C   LIG    1       26.756 -22.570   7.609  0.00  0.00    +0.009 A 
ATOM      8  C   LIG    1       25.839 -23.529   7.162  0.00  0.00    +0.016 A 
BRANCH   3  11
ATOM      9  N   LIG    1       22.252 -23.942   6.602  0.00  0.00    -0.099 NA
ATOM     10  H   LIG    1       21.723 -24.762   6.304  0.00  0.00    +0.363 HD
ATOM     11  C   LIG    1       23.516 -24.189   6.496  0.00  0.00    +0.308 C 
BRANCH  11  12
ATOM     12  N   LIG    1       23.952 -25.371   5.968  0.00  0.00    -0.247 N 
ATOM     13  H   LIG    1       24.490 -25.958   6.598  0.00  0.00    +0.288 HD
ATOM     14  H   LIG    1       24.389 -25.307   5.057  0.00  0.00    +0.288 HD
ENDBRANCH  11  12
ENDBRANCH   3  11
ENDBRANCH   1   6
BRANCH   2  15
ATOM     15  C   LIG    1       29.583 -19.156   8.322  0.00  0.00    +0.017 A 
ATOM     16  C   LIG    1       30.871 -19.088   7.761  0.00  0.00    +0.125 A 
ATOM     17  C   LIG    1       31.834 -18.206   8.259  0.00  0.00    +0.061 A 
ATOM     18  C   LIG    1       31.519 -17.377   9.342  0.00  0.00    +0.068 A 
ATOM     19  C   LIG    1       30.247 -17.436   9.916  0.00  0.00    +0.017 A 
ATOM     20  C   LIG    1       29.294 -18.328   9.417  0.00  0.00    +0.012 A 
BRANCH  18  21
ATOM     21  C   LIG    1       32.540 -16.437   9.876  0.00  0.00    +0.308 C 
ATOM     22  N   LIG    1       33.021 -15.451   9.188  0.00  0.00    -0.099 NA
ATOM     23  H   LIG    1       32.575 -15.380   8.269  0.00  0.00    +0.363 HD
BRANCH  21  24
ATOM     24  N   LIG    1       33.025 -16.588  11.141  0.00  0.00    -0.247 N 
ATOM     25  H   LIG    1       33.999 -16.297  11.176  0.00  0.00    +0.288 HD
ATOM     26  H   LIG    1       32.889 -17.503  11.553  0.00  0.00    +0.288 HD
ENDBRANCH  21  24
ENDBRANCH  18  21
BRANCH  16  27
ATOM     27  O   LIG    1       31.186 -19.901   6.703  0.00  0.00    -0.506 OA
ATOM     28  H   LIG    1       31.521 -20.749   7.037  0.00  0.00    +0.292 HD
ENDBRANCH  16  27
ENDBRANCH   2  15
TORSDOF 7
ENDMDL
MODEL 2
REMARK VINA RESULT:      -8.3      1.366      9.007
REMARK  Name = *****
REMARK                            x       y       z     vdW  Elec       q    Type
REMARK                         _______ _______ _______ _____ _____    ______ ____
ROOT
ATOM      1  C   LIG    1       29.087 -20.248   8.016  0.00  0.00    +0.008 C 
ATOM      2  C   LIG    1       27.816 -20.051   7.626  0.00  0.00    +0.012 C 
ENDROOT
BRANCH   1   6
ATOM      3  C   LIG    1       31.706 -17.182   9.461  0.00  0.00    +0.065 A 
ATOM      4  C   LIG    1       32.135 -18.033   8.439  0.00  0.00    +0.016 A 
ATOM      5  C   LIG    1       31.285 -19.030   7.951  0.00  0.00    +0.009 A 
ATOM      6  C   LIG    1       29.994 -19.184   8.472  0.00  0.00    -0.025 A 
ATOM      7  C   LIG    1       29.573 -18.326   9.499  0.00  0.00    +0.009 A 
ATOM      8  C   LIG    1       30.418 -17.322   9.985  0.00  0.00    +0.016 A 
BRANCH   3  11
ATOM      9  N   LIG    1       33.025 -15.181   9.227  0.00  0.00    -0.099 NA
ATOM     10  H   LIG    1       33.682 -14.591   9.738  0.00  0.00    +0.363 HD
ATOM     11  C   LIG    1       32.626 -16.138   9.997  0.00  0.00    +0.308 C 
BRANCH  11  12
ATOM     12  N   LIG    1       33.025 -16.194  11.302  0.00  0.00    -0.247 N 
ATOM     13  H   LIG    1       33.522 -17.038  11.570  0.00  0.00    +0.288 HD
ATOM     14  H   LIG    1       32.320 -15.948  11.985  0.00  0.00    +0.288 HD
ENDBRANCH  11  12
ENDBRANCH   3  11
ENDBRANCH   1   6
BRANCH   2  15
ATOM     15  C   LIG    1       26.900 -21.117   7.178  0.00  0.00    +0.017 A 
ATOM     16  C   LIG    1       26.265 -21.042   5.926  0.00  0.00    +0.125 A 
ATOM     17  C   LIG    1       25.368 -22.029   5.507  0.00  0.00    +0.061 A 
ATOM     18  C   LIG    1       25.087 -23.111   6.349  0.00  0.00    +0.068 A 
ATOM     19  C   LIG    1       25.703 -23.198   7.600  0.00  0.00    +0.017 A 
ATOM     20  C   LIG    1       26.591 -22.202   8.013  0.00  0.00    +0.012 A 
BRANCH  18  21
ATOM     21  C   LIG    1       24.134 -24.164   5.909  0.00  0.00    +0.308 C 
ATOM     22  N   LIG    1       23.005 -24.389   6.503  0.00  0.00    -0.099 NA
ATOM     23  H   LIG    1       22.841 -23.724   7.265  0.00  0.00    +0.363 HD
BRANCH  21  24
ATOM     24  N   LIG    1       24.425 -24.958   4.839  0.00  0.00    -0.247 N 
ATOM     25  H   LIG    1       24.950 -25.773   5.146  0.00  0.00    +0.288 HD
ATOM     26  H   LIG    1       24.874 -24.491   4.060  0.00  0.00    +0.288 HD
ENDBRANCH  21  24
ENDBRANCH  18  21
BRANCH  16  27
ATOM     27  O   LIG    1       26.533 -19.982   5.099  0.00  0.00    -0.506 OA
ATOM     28  H   LIG    1       25.871 -19.951   4.390  0.00  0.00    +0.292 HD
ENDBRANCH  16  27
ENDBRANCH   2  15
TORSDOF 7
ENDMDL
MODEL 3
REMARK VINA RESULT:      -7.3      6.798      8.380
REMARK  Name = *****
REMARK                            x       y       z     vdW  Elec       q    Type
REMARK                         _______ _______ _______ _____ _____    ______ ____
ROOT
ATOM      1  C   LIG    1       24.445 -25.789   5.799  0.00  0.00    +0.008 C 
ATOM      2  C   LIG    1       24.483 -24.679   6.557  0.00  0.00    +0.012 C 
ENDROOT
BRANCH   1   6
ATOM      3  C   LIG    1       25.290 -29.696   7.337  0.00  0.00    +0.065 A 
ATOM      4  C   LIG    1       24.432 -29.554   6.243  0.00  0.00    +0.016 A 
ATOM      5  C   LIG    1       24.156 -28.285   5.725  0.00  0.00    +0.009 A 
ATOM      6  C   LIG    1       24.743 -27.143   6.287  0.00  0.00    -0.025 A 
ATOM      7  C   LIG    1       25.601 -27.296   7.386  0.00  0.00    +0.009 A 
ATOM      8  C   LIG    1       25.885 -28.565   7.902  0.00  0.00    +0.016 A 
BRANCH   3  11
ATOM      9  N   LIG    1       26.773 -31.413   8.143  0.00  0.00    -0.099 NA
ATOM     10  H   LIG    1       26.775 -32.377   8.478  0.00  0.00    +0.363 HD
ATOM     11  C   LIG    1       25.557 -31.049   7.903  0.00  0.00    +0.308 C 
BRANCH  11  12
ATOM     12  N   LIG    1       24.513 -31.885   8.179  0.00  0.00    -0.247 N 
ATOM     13  H   LIG    1       24.770 -32.799   8.539  0.00  0.00    +0.288 HD
ATOM     14  H   LIG    1       23.808 -31.956   7.457  0.00  0.00    +0.288 HD
ENDBRANCH  11  12
ENDBRANCH   3  11
ENDBRANCH   1   6
BRANCH   2  15
ATOM     15  C   LIG    1       24.174 -23.321   6.073  0.00  0.00    +0.017 A 
ATOM     16  C   LIG    1       22.870 -22.803   6.163  0.00  0.00    +0.125 A 
ATOM     17  C   LIG    1       22.558 -21.530   5.676  0.00  0.00    +0.061 A 
ATOM     18  C   LIG    1       23.559 -20.755   5.078  0.00  0.00    +0.068 A 
ATOM     19  C   LIG    1       24.858 -21.256   4.974  0.00  0.00    +0.017 A 
ATOM     20  C   LIG    1       25.157 -22.533   5.456  0.00  0.00    +0.012 A 
BRANCH  18  21
ATOM     21  C   LIG    1       23.234 -19.401   4.558  0.00  0.00    +0.308 C 
ATOM     22  N   LIG    1       22.183 -18.737   4.921  0.00  0.00    -0.099 NA
ATOM     23  H   LIG    1       21.649 -19.239   5.636  0.00  0.00    +0.363 HD
BRANCH  21  24
ATOM     24  N   LIG    1       24.049 -18.795   3.648  0.00  0.00    -0.247 N 
ATOM     25  H   LIG    1       23.713 -17.855   3.453  0.00  0.00    +0.288 HD
ATOM     26  H   LIG    1       24.218 -19.319   2.798  0.00  0.00    +0.288 HD
ENDBRANCH  21  24
ENDBRANCH  18  21
BRANCH  16  27
ATOM     27  O   LIG    1       21.885 -23.560   6.744  0.00  0.00    -0.506 OA
ATOM     28  H   LIG    1       21.469 -23.052   7.460  0.00  0.00    +0.292 HD
ENDBRANCH  16  27
ENDBRANCH   2  15
TORSDOF 7
ENDMDL
MODEL 4
REMARK VINA RESULT:      -7.2      6.753      8.342
REMARK  Name = *****
REMARK                            x       y       z     vdW  Elec       q    Type
REMARK                         _______ _______ _______ _____ _____    ______ ____
ROOT
ATOM      1  C   LIG    1       24.530 -25.727   5.875  0.00  0.00    +0.008 C 
ATOM      2  C   LIG    1       24.419 -24.623   6.634  0.00  0.00    +0.012 C 
ENDROOT
BRANCH   1   6
ATOM      3  C   LIG    1       25.308 -29.695   7.288  0.00  0.00    +0.065 A 
ATOM      4  C   LIG    1       25.941 -28.608   7.896  0.00  0.00    +0.016 A 
ATOM      5  C   LIG    1       25.687 -27.307   7.451  0.00  0.00    +0.009 A 
ATOM      6  C   LIG    1       24.790 -27.076   6.399  0.00  0.00    -0.025 A 
ATOM      7  C   LIG    1       24.161 -28.174   5.795  0.00  0.00    +0.009 A 
ATOM      8  C   LIG    1       24.407 -29.477   6.242  0.00  0.00    +0.016 A 
BRANCH   3  11
ATOM      9  N   LIG    1       24.756 -31.703   8.497  0.00  0.00    -0.099 NA
ATOM     10  H   LIG    1       25.138 -32.613   8.756  0.00  0.00    +0.363 HD
ATOM     11  C   LIG    1       25.605 -31.082   7.747  0.00  0.00    +0.308 C 
BRANCH  11  12
ATOM     12  N   LIG    1       26.763 -31.691   7.357  0.00  0.00    -0.247 N 
ATOM     13  H   LIG    1       26.766 -32.704   7.418  0.00  0.00    +0.288 HD
ATOM     14  H   LIG    1       27.614 -31.295   7.737  0.00  0.00    +0.288 HD
ENDBRANCH  11  12
ENDBRANCH   3  11
ENDBRANCH   1   6
BRANCH   2  15
ATOM     15  C   LIG    1       24.147 -23.270   6.112  0.00  0.00    +0.017 A 
ATOM     16  C   LIG    1       22.846 -22.737   6.136  0.00  0.00    +0.125 A 
ATOM     17  C   LIG    1       22.571 -21.470   5.613  0.00  0.00    +0.061 A 
ATOM     18  C   LIG    1       23.605 -20.717   5.045  0.00  0.00    +0.068 A 
ATOM     19  C   LIG    1       24.902 -21.233   5.007  0.00  0.00    +0.017 A 
ATOM     20  C   LIG    1       25.166 -22.504   5.524  0.00  0.00    +0.012 A 
BRANCH  18  21
ATOM     21  C   LIG    1       23.318 -19.369   4.487  0.00  0.00    +0.308 C 
ATOM     22  N   LIG    1       22.248 -18.698   4.773  0.00  0.00    -0.099 NA
ATOM     23  H   LIG    1       21.668 -19.189   5.459  0.00  0.00    +0.363 HD
BRANCH  21  24
ATOM     24  N   LIG    1       24.192 -18.777   3.623  0.00  0.00    -0.247 N 
ATOM     25  H   LIG    1       24.793 -19.482   3.202  0.00  0.00    +0.288 HD
ATOM     26  H   LIG    1       24.725 -18.005   4.005  0.00  0.00    +0.288 HD
ENDBRANCH  21  24
ENDBRANCH  18  21
BRANCH  16  27
ATOM     27  O   LIG    1       21.829 -23.473   6.687  0.00  0.00    -0.506 OA
ATOM     28  H   LIG    1       21.213 -23.745   5.988  0.00  0.00    +0.292 HD
ENDBRANCH  16  27
ENDBRANCH   2  15
TORSDOF 7
ENDMDL
MODEL 5
REMARK VINA RESULT:      -7.2      6.353     11.018
REMARK  Name = *****
REMARK                            x       y       z     vdW  Elec       q    Type
REMARK                         _______ _______ _______ _____ _____    ______ ____
ROOT
ATOM      1  C   LIG    1       25.427 -26.619   6.443  0.00  0.00    +0.008 C 
ATOM      2  C   LIG    1       24.606 -27.679   6.534  0.00  0.00    +0.012 C 
ENDROOT
BRANCH   1   6
ATOM      3  C   LIG    1       24.074 -22.567   6.759  0.00  0.00    +0.065 A 
ATOM      4  C   LIG    1       25.442 -22.845   6.807  0.00  0.00    +0.016 A 
ATOM      5  C   LIG    1       25.897 -24.162   6.694  0.00  0.00    +0.009 A 
ATOM      6  C   LIG    1       24.991 -25.217   6.522  0.00  0.00    -0.025 A 
ATOM      7  C   LIG    1       23.619 -24.928   6.477  0.00  0.00    +0.009 A 
ATOM      8  C   LIG    1       23.161 -23.610   6.583  0.00  0.00    +0.016 A 
BRANCH   3  11
ATOM      9  N   LIG    1       23.899 -20.492   7.969  0.00  0.00    -0.099 NA
ATOM     10  H   LIG    1       23.449 -19.577   7.929  0.00  0.00    +0.363 HD
ATOM     11  C   LIG    1       23.593 -21.164   6.909  0.00  0.00    +0.308 C 
BRANCH  11  12
ATOM     12  N   LIG    1       22.847 -20.595   5.916  0.00  0.00    -0.247 N 
ATOM     13  H   LIG    1       22.885 -19.582   5.869  0.00  0.00    +0.288 HD
ATOM     14  H   LIG    1       21.897 -20.934   5.836  0.00  0.00    +0.288 HD
ENDBRANCH  11  12
ENDBRANCH   3  11
ENDBRANCH   1   6
BRANCH   2  15
ATOM     15  C   LIG    1       25.041 -29.087   6.466  0.00  0.00    +0.017 A 
ATOM     16  C   LIG    1       25.259 -29.831   7.638  0.00  0.00    +0.125 A 
ATOM     17  C   LIG    1       25.706 -31.155   7.585  0.00  0.00    +0.061 A 
ATOM     18  C   LIG    1       25.949 -31.753   6.344  0.00  0.00    +0.068 A 
ATOM     19  C   LIG    1       25.744 -31.027   5.169  0.00  0.00    +0.017 A 
ATOM     20  C   LIG    1       25.306 -29.701   5.232  0.00  0.00    +0.012 A 
BRANCH  18  21
ATOM     21  C   LIG    1       26.424 -33.161   6.281  0.00  0.00    +0.308 C 
ATOM     22  N   LIG    1       26.524 -33.825   5.173  0.00  0.00    -0.099 NA
ATOM     23  H   LIG    1       26.287 -33.244   4.364  0.00  0.00    +0.363 HD
BRANCH  21  24
ATOM     24  N   LIG    1       26.773 -33.825   7.419  0.00  0.00    -0.247 N 
ATOM     25  H   LIG    1       26.915 -33.162   8.178  0.00  0.00    +0.288 HD
ATOM     26  H   LIG    1       27.552 -34.466   7.328  0.00  0.00    +0.288 HD
ENDBRANCH  21  24
ENDBRANCH  18  21
BRANCH  16  27
ATOM     27  O   LIG    1       25.026 -29.248   8.857  0.00  0.00    -0.506 OA
ATOM     28  H   LIG    1       24.254 -28.663   8.792  0.00  0.00    +0.292 HD
ENDBRANCH  16  27
ENDBRANCH   2  15
TORSDOF 7
ENDMDL
MODEL 6
REMARK VINA RESULT:      -7.2      6.155     10.865
REMARK  Name = *****
REMARK                            x       y       z     vdW  Elec       q    Type
REMARK                         _______ _______ _______ _____ _____    ______ ____
ROOT
ATOM      1  C   LIG    1       25.504 -26.212   6.927  0.00  0.00    +0.008 C 
ATOM      2  C   LIG    1       24.731 -27.230   6.510  0.00  0.00    +0.012 C 
ENDROOT
BRANCH   1   6
ATOM      3  C   LIG    1       25.226 -22.141   5.623  0.00  0.00    +0.065 A 
ATOM      4  C   LIG    1       24.701 -23.161   4.825  0.00  0.00    +0.016 A 
ATOM      5  C   LIG    1       24.775 -24.492   5.244  0.00  0.00    +0.009 A 
ATOM      6  C   LIG    1       25.368 -24.821   6.471  0.00  0.00    -0.025 A 
ATOM      7  C   LIG    1       25.894 -23.790   7.264  0.00  0.00    +0.009 A 
ATOM      8  C   LIG    1       25.814 -22.456   6.851  0.00  0.00    +0.016 A 
BRANCH   3  11
ATOM      9  N   LIG    1       24.055 -20.077   5.218  0.00  0.00    -0.099 NA
ATOM     10  H   LIG    1       24.184 -19.148   4.816  0.00  0.00    +0.363 HD
ATOM     11  C   LIG    1       25.169 -20.726   5.157  0.00  0.00    +0.308 C 
BRANCH  11  12
ATOM     12  N   LIG    1       26.301 -20.123   4.687  0.00  0.00    -0.247 N 
ATOM     13  H   LIG    1       26.372 -20.057   3.676  0.00  0.00    +0.288 HD
ATOM     14  H   LIG    1       27.169 -20.442   5.098  0.00  0.00    +0.288 HD
ENDBRANCH  11  12
ENDBRANCH   3  11
ENDBRANCH   1   6
BRANCH   2  15
ATOM     15  C   LIG    1       24.857 -28.624   6.974  0.00  0.00    +0.017 A 
ATOM     16  C   LIG    1       24.115 -29.654   6.369  0.00  0.00    +0.125 A 
ATOM     17  C   LIG    1       24.200 -30.974   6.823  0.00  0.00    +0.061 A 
ATOM     18  C   LIG    1       25.034 -31.280   7.905  0.00  0.00    +0.068 A 
ATOM     19  C   LIG    1       25.773 -30.268   8.522  0.00  0.00    +0.017 A 
ATOM     20  C   LIG    1       25.674 -28.951   8.067  0.00  0.00    +0.012 A 
BRANCH  18  21
ATOM     21  C   LIG    1       25.129 -32.681   8.393  0.00  0.00    +0.308 C 
ATOM     22  N   LIG    1       24.554 -33.678   7.798  0.00  0.00    -0.099 NA
ATOM     23  H   LIG    1       24.081 -33.381   6.939  0.00  0.00    +0.363 HD
BRANCH  21  24
ATOM     24  N   LIG    1       25.838 -32.975   9.520  0.00  0.00    -0.247 N 
ATOM     25  H   LIG    1       25.585 -32.332  10.266  0.00  0.00    +0.288 HD
ATOM     26  H   LIG    1       26.842 -33.037   9.399  0.00  0.00    +0.288 HD
ENDBRANCH  21  24
ENDBRANCH  18  21
BRANCH  16  27
ATOM     27  O   LIG    1       23.294 -29.359   5.311  0.00  0.00    -0.506 OA
ATOM     28  H   LIG    1       23.368 -28.414   5.101  0.00  0.00    +0.292 HD
ENDBRANCH  16  27
ENDBRANCH   2  15
TORSDOF 7
ENDMDL
MODEL 7
REMARK VINA RESULT:      -7.1      7.188      9.983
REMARK  Name = *****
REMARK                            x       y       z     vdW  Elec       q    Type
REMARK                         _______ _______ _______ _____ _____    ______ ____
ROOT
ATOM      1  C   LIG    1       24.538 -24.808   6.780  0.00  0.00    +0.008 C 
ATOM      2  C   LIG    1       24.690 -25.901   6.012  0.00  0.00    +0.012 C 
ENDROOT
BRANCH   1   6
ATOM      3  C   LIG    1       23.629 -20.943   5.174  0.00  0.00    +0.065 A 
ATOM      4  C   LIG    1       23.040 -21.349   6.374  0.00  0.00    +0.016 A 
ATOM      5  C   LIG    1       23.337 -22.604   6.914  0.00  0.00    +0.009 A 
ATOM      6  C   LIG    1       24.234 -23.465   6.267  0.00  0.00    -0.025 A 
ATOM      7  C   LIG    1       24.818 -23.048   5.061  0.00  0.00    +0.009 A 
ATOM      8  C   LIG    1       24.529 -21.790   4.522  0.00  0.00    +0.016 A 
BRANCH   3  11
ATOM      9  N   LIG    1       22.211 -19.008   4.963  0.00  0.00    -0.099 NA
ATOM     10  H   LIG    1       22.108 -18.145   4.429  0.00  0.00    +0.363 HD
ATOM     11  C   LIG    1       23.287 -19.615   4.587  0.00  0.00    +0.308 C 
BRANCH  11  12
ATOM     12  N   LIG    1       24.124 -19.045   3.670  0.00  0.00    -0.247 N 
ATOM     13  H   LIG    1       23.667 -18.603   2.879  0.00  0.00    +0.288 HD
ATOM     14  H   LIG    1       24.903 -19.619   3.374  0.00  0.00    +0.288 HD
ENDBRANCH  11  12
ENDBRANCH   3  11
ENDBRANCH   1   6
BRANCH   2  15
ATOM     15  C   LIG    1       24.985 -27.253   6.524  0.00  0.00    +0.017 A 
ATOM     16  C   LIG    1       24.442 -28.392   5.905  0.00  0.00    +0.125 A 
ATOM     17  C   LIG    1       24.686 -29.675   6.403  0.00  0.00    +0.061 A 
ATOM     18  C   LIG    1       25.479 -29.834   7.545  0.00  0.00    +0.068 A 
ATOM     19  C   LIG    1       26.021 -28.713   8.177  0.00  0.00    +0.017 A 
ATOM     20  C   LIG    1       25.764 -27.434   7.677  0.00  0.00    +0.012 A 
BRANCH  18  21
ATOM     21  C   LIG    1       25.743 -31.196   8.080  0.00  0.00    +0.308 C 
ATOM     22  N   LIG    1       26.924 -31.609   8.413  0.00  0.00    -0.099 NA
ATOM     23  H   LIG    1       27.625 -30.869   8.309  0.00  0.00    +0.363 HD
BRANCH  21  24
ATOM     24  N   LIG    1       24.723 -32.087   8.236  0.00  0.00    -0.247 N 
ATOM     25  H   LIG    1       24.227 -32.205   7.355  0.00  0.00    +0.288 HD
ATOM     26  H   LIG    1       24.090 -31.895   9.003  0.00  0.00    +0.288 HD
ENDBRANCH  21  24
ENDBRANCH  18  21
BRANCH  16  27
ATOM     27  O   LIG    1       23.660 -28.242   4.788  0.00  0.00    -0.506 OA
ATOM     28  H   LIG    1       23.283 -27.347   4.778  0.00  0.00    +0.292 HD
ENDBRANCH  16  27
ENDBRANCH   2  15
TORSDOF 7
ENDMDL
MODEL 8
REMARK VINA RESULT:      -6.7      5.495      8.421
REMARK  Name = *****
REMARK                            x       y       z     vdW  Elec       q    Type
REMARK                         _______ _______ _______ _____ _____    ______ ____
ROOT
ATOM      1  C   LIG    1       25.219 -27.479   6.812  0.00  0.00    +0.008 C 
ATOM      2  C   LIG    1       24.515 -26.428   6.356  0.00  0.00    +0.012 C 
ENDROOT
BRANCH   1   6
ATOM      3  C   LIG    1       24.221 -31.554   5.947  0.00  0.00    +0.065 A 
ATOM      4  C   LIG    1       24.875 -30.782   4.983  0.00  0.00    +0.016 A 
ATOM      5  C   LIG    1       25.215 -29.454   5.257  0.00  0.00    +0.009 A 
ATOM      6  C   LIG    1       24.915 -28.883   6.501  0.00  0.00    -0.025 A 
ATOM      7  C   LIG    1       24.257 -29.666   7.462  0.00  0.00    +0.009 A 
ATOM      8  C   LIG    1       23.921 -30.997   7.193  0.00  0.00    +0.016 A 
BRANCH   3  11
ATOM      9  N   LIG    1       23.403 -33.727   6.584  0.00  0.00    -0.099 NA
ATOM     10  H   LIG    1       23.233 -34.660   6.209  0.00  0.00    +0.363 HD
ATOM     11  C   LIG    1       23.834 -32.960   5.639  0.00  0.00    +0.308 C 
BRANCH  11  12
ATOM     12  N   LIG    1       23.923 -33.420   4.355  0.00  0.00    -0.247 N 
ATOM     13  H   LIG    1       23.616 -32.771   3.638  0.00  0.00    +0.288 HD
ATOM     14  H   LIG    1       23.552 -34.348   4.198  0.00  0.00    +0.288 HD
ENDBRANCH  11  12
ENDBRANCH   3  11
ENDBRANCH   1   6
BRANCH   2  15
ATOM     15  C   LIG    1       24.822 -25.017   6.657  0.00  0.00    +0.017 A 
ATOM     16  C   LIG    1       23.800 -24.054   6.717  0.00  0.00    +0.125 A 
ATOM     17  C   LIG    1       24.084 -22.708   6.966  0.00  0.00    +0.061 A 
ATOM     18  C   LIG    1       25.411 -22.305   7.153  0.00  0.00    +0.068 A 
ATOM     19  C   LIG    1       26.440 -23.247   7.090  0.00  0.00    +0.017 A 
ATOM     20  C   LIG    1       26.147 -24.588   6.831  0.00  0.00    +0.012 A 
BRANCH  18  21
ATOM     21  C   LIG    1       25.720 -20.875   7.418  0.00  0.00    +0.308 C 
ATOM     22  N   LIG    1       26.170 -20.068   6.510  0.00  0.00    -0.099 NA
ATOM     23  H   LIG    1       26.233 -20.527   5.597  0.00  0.00    +0.363 HD
BRANCH  21  24
ATOM     24  N   LIG    1       25.542 -20.348   8.663  0.00  0.00    -0.247 N 
ATOM     25  H   LIG    1       25.867 -21.006   9.368  0.00  0.00    +0.288 HD
ATOM     26  H   LIG    1       24.608 -20.010   8.863  0.00  0.00    +0.288 HD
ENDBRANCH  21  24
ENDBRANCH  18  21
BRANCH  16  27
ATOM     27  O   LIG    1       22.498 -24.443   6.531  0.00  0.00    -0.506 OA
ATOM     28  H   LIG    1       21.906 -23.722   6.797  0.00  0.00    +0.292 HD
ENDBRANCH  16  27
ENDBRANCH   2  15
TORSDOF 7
ENDMDL
MODEL 9
REMARK VINA RESULT:      -6.6      6.846     10.544
REMARK  Name = *****
REMARK                            x       y       z     vdW  Elec       q    Type
REMARK                         _______ _______ _______ _____ _____    ______ ____
ROOT
ATOM      1  C   LIG    1       24.005 -25.616   6.690  0.00  0.00    +0.008 C 
ATOM      2  C   LIG    1       24.595 -26.574   5.953  0.00  0.00    +0.012 C 
ENDROOT
BRANCH   1   6
ATOM      3  C   LIG    1       23.731 -21.534   5.423  0.00  0.00    +0.065 A 
ATOM      4  C   LIG    1       22.773 -22.052   6.297  0.00  0.00    +0.016 A 
ATOM      5  C   LIG    1       22.858 -23.380   6.727  0.00  0.00    +0.009 A 
ATOM      6  C   LIG    1       23.906 -24.204   6.295  0.00  0.00    -0.025 A 
ATOM      7  C   LIG    1       24.862 -23.675   5.415  0.00  0.00    +0.009 A 
ATOM      8  C   LIG    1       24.785 -22.344   4.989  0.00  0.00    +0.016 A 
BRANCH   3  11
ATOM      9  N   LIG    1       22.595 -19.416   5.281  0.00  0.00    -0.099 NA
ATOM     10  H   LIG    1       22.657 -18.502   4.830  0.00  0.00    +0.363 HD
ATOM     11  C   LIG    1       23.620 -20.126   4.945  0.00  0.00    +0.308 C 
BRANCH  11  12
ATOM     12  N   LIG    1       24.612 -19.594   4.171  0.00  0.00    -0.247 N 
ATOM     13  H   LIG    1       25.537 -19.986   4.319  0.00  0.00    +0.288 HD
ATOM     14  H   LIG    1       24.640 -18.584   4.131  0.00  0.00    +0.288 HD
ENDBRANCH  11  12
ENDBRANCH   3  11
ENDBRANCH   1   6
BRANCH   2  15
ATOM     15  C   LIG    1       24.687 -27.994   6.341  0.00  0.00    +0.017 A 
ATOM     16  C   LIG    1       25.569 -28.409   7.355  0.00  0.00    +0.125 A 
ATOM     17  C   LIG    1       25.690 -29.756   7.706  0.00  0.00    +0.061 A 
ATOM     18  C   LIG    1       24.927 -30.717   7.033  0.00  0.00    +0.068 A 
ATOM     19  C   LIG    1       24.050 -30.325   6.019  0.00  0.00    +0.017 A 
ATOM     20  C   LIG    1       23.943 -28.976   5.669  0.00  0.00    +0.012 A 
BRANCH  18  21
ATOM     21  C   LIG    1       25.051 -32.152   7.402  0.00  0.00    +0.308 C 
ATOM     22  N   LIG    1       26.073 -32.633   8.036  0.00  0.00    -0.099 NA
ATOM     23  H   LIG    1       26.741 -31.898   8.286  0.00  0.00    +0.363 HD
BRANCH  21  24
ATOM     24  N   LIG    1       24.071 -33.039   7.070  0.00  0.00    -0.247 N 
ATOM     25  H   LIG    1       24.412 -33.991   7.182  0.00  0.00    +0.288 HD
ATOM     26  H   LIG    1       23.643 -32.896   6.163  0.00  0.00    +0.288 HD
ENDBRANCH  21  24
ENDBRANCH  18  21
BRANCH  16  27
ATOM     27  O   LIG    1       26.322 -27.471   8.014  0.00  0.00    -0.506 OA
ATOM     28  H   LIG    1       27.115 -27.270   7.491  0.00  0.00    +0.292 HD
ENDBRANCH  16  27
ENDBRANCH   2  15
TORSDOF 7
ENDMDL
