MODEL 1
REMARK VINA RESULT:      -0.6      0.000      0.000
REMARK  Name = *****
REMARK                            x       y       z     vdW  Elec       q    Type
REMARK                         _______ _______ _______ _____ _____    ______ ____
ROOT
ATOM      1  O   LIG    1       27.831 -14.950   4.365  0.00  0.00    -0.273 OA
ATOM      2  C   LIG    1       26.958 -15.733   4.014  0.00  0.00    +0.249 C 
ATOM      3  N   LIG    1       25.574 -15.520   3.898  0.00  0.00    -0.180 N 
ATOM      4  N   LIG    1       24.944 -16.698   3.416  0.00  0.00    -0.180 N 
ATOM      5  C   LIG    1       25.913 -17.600   2.974  0.00  0.00    +0.249 C 
ATOM      6  O   LIG    1       25.774 -18.636   2.335  0.00  0.00    -0.273 OA
ATOM      7  C   LIG    1       27.240 -17.123   3.505  0.00  0.00    +0.166 C 
ENDROOT
BRANCH   3   8
ATOM      8  C   LIG    1       25.126 -14.221   3.520  0.00  0.00    +0.057 A 
ATOM      9  C   LIG    1       24.255 -13.484   4.336  0.00  0.00    +0.025 A 
ATOM     10  C   LIG    1       23.825 -12.213   3.943  0.00  0.00    +0.002 A 
ATOM     11  C   LIG    1       24.286 -11.658   2.751  0.00  0.00    +0.000 A 
ATOM     12  C   LIG    1       25.169 -12.372   1.946  0.00  0.00    +0.002 A 
ATOM     13  C   LIG    1       25.576 -13.653   2.322  0.00  0.00    +0.025 A 
ENDBRANCH   3   8
BRANCH   4  14
ATOM     14  C   LIG    1       23.652 -17.110   3.894  0.00  0.00    +0.057 A 
ATOM     15  C   LIG    1       23.094 -18.342   3.513  0.00  0.00    +0.025 A 
ATOM     16  C   LIG    1       21.806 -18.719   3.914  0.00  0.00    +0.002 A 
ATOM     17  C   LIG    1       21.040 -17.864   4.697  0.00  0.00    +0.000 A 
ATOM     18  C   LIG    1       21.570 -16.643   5.094  0.00  0.00    +0.002 A 
ATOM     19  C   LIG    1       22.865 -16.277   4.705  0.00  0.00    +0.025 A 
ENDBRANCH   4  14
BRANCH   7  20
ATOM     20  C   LIG    1       27.764 -18.014   4.637  0.00  0.00    +0.036 C 
BRANCH  20  21
ATOM     21  C   LIG    1       27.480 -19.493   4.379  0.00  0.00    +0.110 C 
BRANCH  21  22
ATOM     22  S   LIG    1       27.484 -20.465   5.926  0.00  0.00    +0.054 S 
ATOM     23  O   LIG    1       27.624 -19.493   7.061  0.00  0.00    -0.252 OA
BRANCH  22  24
ATOM     24  C   LIG    1       25.727 -20.923   5.880  0.00  0.00    +0.039 A 
ATOM     25  C   LIG    1       25.003 -21.113   7.062  0.00  0.00    +0.017 A 
ATOM     26  C   LIG    1       23.642 -21.418   7.013  0.00  0.00    +0.001 A 
ATOM     27  C   LIG    1       22.995 -21.535   5.782  0.00  0.00    +0.000 A 
ATOM     28  C   LIG    1       23.713 -21.367   4.600  0.00  0.00    +0.001 A 
ATOM     29  C   LIG    1       25.078 -21.072   4.647  0.00  0.00    +0.017 A 
ENDBRANCH  22  24
ENDBRANCH  21  22
ENDBRANCH  20  21
ENDBRANCH   7  20
TORSDOF 6
ENDMDL
MODEL 2
REMARK VINA RESULT:       0.2      2.156      6.959
REMARK  Name = *****
REMARK                            x       y       z     vdW  Elec       q    Type
REMARK                         _______ _______ _______ _____ _____    ______ ____
ROOT
ATOM      1  O   LIG    1       22.443 -16.729   4.455  0.00  0.00    -0.273 OA
ATOM      2  C   LIG    1       23.506 -17.306   4.266  0.00  0.00    +0.249 C 
ATOM      3  N   LIG    1       23.910 -18.580   4.702  0.00  0.00    -0.180 N 
ATOM      4  N   LIG    1       25.214 -18.863   4.217  0.00  0.00    -0.180 N 
ATOM      5  C   LIG    1       25.578 -17.910   3.263  0.00  0.00    +0.249 C 
ATOM      6  O   LIG    1       26.531 -17.905   2.495  0.00  0.00    -0.273 OA
ATOM      7  C   LIG    1       24.602 -16.767   3.384  0.00  0.00    +0.166 C 
ENDROOT
BRANCH   3   8
ATOM      8  C   LIG    1       22.915 -19.594   4.817  0.00  0.00    +0.057 A 
ATOM      9  C   LIG    1       22.995 -20.584   5.808  0.00  0.00    +0.025 A 
ATOM     10  C   LIG    1       22.011 -21.572   5.900  0.00  0.00    +0.002 A 
ATOM     11  C   LIG    1       20.925 -21.559   5.027  0.00  0.00    +0.000 A 
ATOM     12  C   LIG    1       20.826 -20.568   4.054  0.00  0.00    +0.002 A 
ATOM     13  C   LIG    1       21.822 -19.598   3.941  0.00  0.00    +0.025 A 
ENDBRANCH   3   8
BRANCH   4  14
ATOM     14  C   LIG    1       26.174 -19.578   5.013  0.00  0.00    +0.057 A 
ATOM     15  C   LIG    1       25.774 -20.595   5.896  0.00  0.00    +0.025 A 
ATOM     16  C   LIG    1       26.693 -21.245   6.730  0.00  0.00    +0.002 A 
ATOM     17  C   LIG    1       28.034 -20.885   6.707  0.00  0.00    +0.000 A 
ATOM     18  C   LIG    1       28.458 -19.888   5.837  0.00  0.00    +0.002 A 
ATOM     19  C   LIG    1       27.539 -19.251   4.993  0.00  0.00    +0.025 A 
ENDBRANCH   4  14
BRANCH   7  20
ATOM     20  C   LIG    1       25.241 -15.526   4.018  0.00  0.00    +0.036 C 
BRANCH  20  21
ATOM     21  C   LIG    1       26.765 -15.557   3.927  0.00  0.00    +0.110 C 
BRANCH  21  22
ATOM     22  S   LIG    1       27.441 -13.984   3.292  0.00  0.00    +0.054 S 
ATOM     23  O   LIG    1       27.640 -14.150   1.813  0.00  0.00    -0.252 OA
BRANCH  22  24
ATOM     24  C   LIG    1       25.914 -13.018   3.480  0.00  0.00    +0.039 A 
ATOM     25  C   LIG    1       25.126 -12.696   2.370  0.00  0.00    +0.017 A 
ATOM     26  C   LIG    1       23.930 -11.996   2.534  0.00  0.00    +0.001 A 
ATOM     27  C   LIG    1       23.514 -11.612   3.808  0.00  0.00    +0.000 A 
ATOM     28  C   LIG    1       24.302 -11.912   4.917  0.00  0.00    +0.001 A 
ATOM     29  C   LIG    1       25.505 -12.605   4.754  0.00  0.00    +0.017 A 
ENDBRANCH  22  24
ENDBRANCH  21  22
ENDBRANCH  20  21
ENDBRANCH   7  20
TORSDOF 6
ENDMDL
MODEL 3
REMARK VINA RESULT:       0.7      2.686      7.118
REMARK  Name = *****
REMARK                            x       y       z     vdW  Elec       q    Type
REMARK                         _______ _______ _______ _____ _____    ______ ____
ROOT
ATOM      1  O   LIG    1       22.485 -16.753   4.288  0.00  0.00    -0.273 OA
ATOM      2  C   LIG    1       23.561 -17.324   4.166  0.00  0.00    +0.249 C 
ATOM      3  N   LIG    1       23.963 -18.572   4.674  0.00  0.00    -0.180 N 
ATOM      4  N   LIG    1       25.287 -18.860   4.252  0.00  0.00    -0.180 N 
ATOM      5  C   LIG    1       25.676 -17.947   3.270  0.00  0.00    +0.249 C 
ATOM      6  O   LIG    1       26.658 -17.965   2.539  0.00  0.00    -0.273 OA
ATOM      7  C   LIG    1       24.684 -16.812   3.302  0.00  0.00    +0.166 C 
ENDROOT
BRANCH   3   8
ATOM      8  C   LIG    1       22.975 -19.592   4.799  0.00  0.00    +0.057 A 
ATOM      9  C   LIG    1       23.059 -20.570   5.801  0.00  0.00    +0.025 A 
ATOM     10  C   LIG    1       22.083 -21.564   5.902  0.00  0.00    +0.002 A 
ATOM     11  C   LIG    1       21.000 -21.570   5.025  0.00  0.00    +0.000 A 
ATOM     12  C   LIG    1       20.896 -20.592   4.041  0.00  0.00    +0.002 A 
ATOM     13  C   LIG    1       21.885 -19.615   3.920  0.00  0.00    +0.025 A 
ENDBRANCH   3   8
BRANCH   4  14
ATOM     14  C   LIG    1       26.224 -19.526   5.116  0.00  0.00    +0.057 A 
ATOM     15  C   LIG    1       27.594 -19.216   5.080  0.00  0.00    +0.025 A 
ATOM     16  C   LIG    1       28.524 -19.910   5.864  0.00  0.00    +0.002 A 
ATOM     17  C   LIG    1       28.105 -20.941   6.695  0.00  0.00    +0.000 A 
ATOM     18  C   LIG    1       26.755 -21.264   6.755  0.00  0.00    +0.002 A 
ATOM     19  C   LIG    1       25.826 -20.556   5.982  0.00  0.00    +0.025 A 
ENDBRANCH   4  14
BRANCH   7  20
ATOM     20  C   LIG    1       25.284 -15.535   3.901  0.00  0.00    +0.036 C 
BRANCH  20  21
ATOM     21  C   LIG    1       24.205 -14.574   4.398  0.00  0.00    +0.110 C 
BRANCH  21  22
ATOM     22  S   LIG    1       24.427 -12.894   3.718  0.00  0.00    +0.054 S 
ATOM     23  O   LIG    1       23.865 -11.930   4.723  0.00  0.00    -0.252 OA
BRANCH  22  24
ATOM     24  C   LIG    1       26.230 -12.829   3.923  0.00  0.00    +0.039 A 
ATOM     25  C   LIG    1       26.809 -12.844   5.197  0.00  0.00    +0.017 A 
ATOM     26  C   LIG    1       28.197 -12.844   5.340  0.00  0.00    +0.001 A 
ATOM     27  C   LIG    1       29.016 -12.827   4.211  0.00  0.00    +0.000 A 
ATOM     28  C   LIG    1       28.448 -12.793   2.940  0.00  0.00    +0.001 A 
ATOM     29  C   LIG    1       27.058 -12.784   2.795  0.00  0.00    +0.017 A 
ENDBRANCH  22  24
ENDBRANCH  21  22
ENDBRANCH  20  21
ENDBRANCH   7  20
TORSDOF 6
ENDMDL
MODEL 4
REMARK VINA RESULT:       2.3      2.766      6.458
REMARK  Name = *****
REMARK                            x       y       z     vdW  Elec       q    Type
REMARK                         _______ _______ _______ _____ _____    ______ ____
ROOT
ATOM      1  O   LIG    1       26.329 -17.015   3.255  0.00  0.00    -0.273 OA
ATOM      2  C   LIG    1       25.167 -16.973   3.638  0.00  0.00    +0.249 C 
ATOM      3  N   LIG    1       24.294 -18.035   3.933  0.00  0.00    -0.180 N 
ATOM      4  N   LIG    1       23.049 -17.524   4.385  0.00  0.00    -0.180 N 
ATOM      5  C   LIG    1       23.167 -16.155   4.634  0.00  0.00    +0.249 C 
ATOM      6  O   LIG    1       22.384 -15.399   5.195  0.00  0.00    -0.273 OA
ATOM      7  C   LIG    1       24.451 -15.695   3.993  0.00  0.00    +0.166 C 
ENDROOT
BRANCH   3   8
ATOM      8  C   LIG    1       24.854 -19.232   4.469  0.00  0.00    +0.057 A 
ATOM      9  C   LIG    1       24.100 -20.410   4.563  0.00  0.00    +0.025 A 
ATOM     10  C   LIG    1       24.667 -21.571   5.096  0.00  0.00    +0.002 A 
ATOM     11  C   LIG    1       25.998 -21.572   5.509  0.00  0.00    +0.000 A 
ATOM     12  C   LIG    1       26.761 -20.412   5.399  0.00  0.00    +0.002 A 
ATOM     13  C   LIG    1       26.188 -19.244   4.894  0.00  0.00    +0.025 A 
ENDBRANCH   3   8
BRANCH   4  14
ATOM     14  C   LIG    1       21.805 -18.149   4.028  0.00  0.00    +0.057 A 
ATOM     15  C   LIG    1       21.516 -19.468   4.417  0.00  0.00    +0.025 A 
ATOM     16  C   LIG    1       20.340 -20.111   4.013  0.00  0.00    +0.002 A 
ATOM     17  C   LIG    1       19.428 -19.452   3.197  0.00  0.00    +0.000 A 
ATOM     18  C   LIG    1       19.686 -18.145   2.804  0.00  0.00    +0.002 A 
ATOM     19  C   LIG    1       20.856 -17.499   3.224  0.00  0.00    +0.025 A 
ENDBRANCH   4  14
BRANCH   7  20
ATOM     20  C   LIG    1       24.202 -14.853   2.737  0.00  0.00    +0.036 C 
BRANCH  20  21
ATOM     21  C   LIG    1       23.241 -13.696   3.005  0.00  0.00    +0.110 C 
BRANCH  21  22
ATOM     22  S   LIG    1       24.126 -12.113   3.218  0.00  0.00    +0.054 S 
ATOM     23  O   LIG    1       23.594 -11.472   4.468  0.00  0.00    -0.252 OA
BRANCH  22  24
ATOM     24  C   LIG    1       25.727 -12.837   3.675  0.00  0.00    +0.039 A 
ATOM     25  C   LIG    1       26.073 -13.027   5.017  0.00  0.00    +0.017 A 
ATOM     26  C   LIG    1       27.287 -13.629   5.354  0.00  0.00    +0.001 A 
ATOM     27  C   LIG    1       28.163 -14.044   4.352  0.00  0.00    +0.000 A 
ATOM     28  C   LIG    1       27.835 -13.841   3.013  0.00  0.00    +0.001 A 
ATOM     29  C   LIG    1       26.625 -13.230   2.674  0.00  0.00    +0.017 A 
ENDBRANCH  22  24
ENDBRANCH  21  22
ENDBRANCH  20  21
ENDBRANCH   7  20
TORSDOF 6
ENDMDL
