MODEL 1
REMARK VINA RESULT:      -6.2      0.000      0.000
REMARK  Name = *****
REMARK                            x       y       z     vdW  Elec       q    Type
REMARK                         _______ _______ _______ _____ _____    ______ ____
ROOT
ATOM      1  C   LIG    1       27.664 -20.197   6.358  0.00  0.00    +0.162 A 
ATOM      2  C   LIG    1       27.684 -20.395   7.759  0.00  0.00    +0.162 A 
ATOM      3  C   LIG    1       26.478 -20.656   8.417  0.00  0.00    +0.049 A 
ATOM      4  C   LIG    1       25.279 -20.771   7.715  0.00  0.00    +0.004 A 
ATOM      5  C   LIG    1       25.268 -20.615   6.332  0.00  0.00    +0.004 A 
ATOM      6  C   LIG    1       26.453 -20.329   5.663  0.00  0.00    +0.049 A 
ENDROOT
BRANCH   1   8
ATOM      7  C   LIG    1       29.082 -18.505   5.465  0.00  0.00    +0.277 C 
ATOM      8  O   LIG    1       28.860 -19.886   5.759  0.00  0.00    -0.491 OA
ENDBRANCH   1   8
BRANCH   2   9
ATOM      9  O   LIG    1       28.887 -20.234   8.410  0.00  0.00    -0.486 OA
BRANCH   9  10
ATOM     10  C   LIG    1       29.790 -21.351   8.445  0.00  0.00    +0.262 C 
BRANCH  10  11
ATOM     11  C   LIG    1       31.240 -20.847   8.527  0.00  0.00    +0.177 C 
BRANCH  11  12
ATOM     12  O   LIG    1       31.959 -21.608   9.516  0.00  0.00    -0.386 OA
ATOM     13  H   LIG    1       31.927 -22.538   9.220  0.00  0.00    +0.210 HD
ENDBRANCH  11  12
BRANCH  11  14
ATOM     14  C   LIG    1       31.349 -19.362   8.880  0.00  0.00    +0.190 C 
BRANCH  14  15
ATOM     15  O   LIG    1       30.908 -19.138  10.222  0.00  0.00    -0.392 OA
ATOM     16  H   LIG    1       30.044 -18.689  10.150  0.00  0.00    +0.209 HD
ENDBRANCH  14  15
ENDBRANCH  11  14
ENDBRANCH  10  11
ENDBRANCH   9  10
ENDBRANCH   2   9
TORSDOF 7
ENDMDL
MODEL 2
REMARK VINA RESULT:      -6.2      1.757      2.977
REMARK  Name = *****
REMARK                            x       y       z     vdW  Elec       q    Type
REMARK                         _______ _______ _______ _____ _____    ______ ____
ROOT
ATOM      1  C   LIG    1       25.568 -20.405   5.611  0.00  0.00    +0.162 A 
ATOM      2  C   LIG    1       26.762 -20.382   6.370  0.00  0.00    +0.162 A 
ATOM      3  C   LIG    1       26.687 -20.620   7.747  0.00  0.00    +0.049 A 
ATOM      4  C   LIG    1       25.475 -20.924   8.364  0.00  0.00    +0.004 A 
ATOM      5  C   LIG    1       24.307 -20.985   7.609  0.00  0.00    +0.004 A 
ATOM      6  C   LIG    1       24.358 -20.725   6.243  0.00  0.00    +0.049 A 
ENDROOT
BRANCH   1   8
ATOM      7  C   LIG    1       24.510 -20.322   3.479  0.00  0.00    +0.277 C 
ATOM      8  O   LIG    1       25.678 -20.109   4.274  0.00  0.00    -0.491 OA
ENDBRANCH   1   8
BRANCH   2   9
ATOM      9  O   LIG    1       27.927 -20.040   5.720  0.00  0.00    -0.486 OA
BRANCH   9  10
ATOM     10  C   LIG    1       29.169 -20.221   6.421  0.00  0.00    +0.262 C 
BRANCH  10  11
ATOM     11  C   LIG    1       29.820 -18.855   6.690  0.00  0.00    +0.177 C 
BRANCH  11  12
ATOM     12  O   LIG    1       30.007 -18.158   5.443  0.00  0.00    -0.386 OA
ATOM     13  H   LIG    1       30.856 -17.683   5.522  0.00  0.00    +0.210 HD
ENDBRANCH  11  12
BRANCH  11  14
ATOM     14  C   LIG    1       31.170 -18.954   7.402  0.00  0.00    +0.190 C 
BRANCH  14  15
ATOM     15  O   LIG    1       31.574 -20.321   7.511  0.00  0.00    -0.392 OA
ATOM     16  H   LIG    1       31.600 -20.518   8.468  0.00  0.00    +0.209 HD
ENDBRANCH  14  15
ENDBRANCH  11  14
ENDBRANCH  10  11
ENDBRANCH   9  10
ENDBRANCH   2   9
TORSDOF 7
ENDMDL
MODEL 3
REMARK VINA RESULT:      -6.2      2.158      3.903
REMARK  Name = *****
REMARK                            x       y       z     vdW  Elec       q    Type
REMARK                         _______ _______ _______ _____ _____    ______ ____
ROOT
ATOM      1  C   LIG    1       30.142 -20.450   8.187  0.00  0.00    +0.162 A 
ATOM      2  C   LIG    1       30.691 -19.289   7.592  0.00  0.00    +0.162 A 
ATOM      3  C   LIG    1       30.112 -18.799   6.416  0.00  0.00    +0.049 A 
ATOM      4  C   LIG    1       28.986 -19.403   5.857  0.00  0.00    +0.004 A 
ATOM      5  C   LIG    1       28.424 -20.521   6.466  0.00  0.00    +0.004 A 
ATOM      6  C   LIG    1       29.002 -21.039   7.620  0.00  0.00    +0.049 A 
ENDROOT
BRANCH   1   8
ATOM      7  C   LIG    1       31.413 -22.204   9.176  0.00  0.00    +0.277 C 
ATOM      8  O   LIG    1       30.776 -20.931   9.306  0.00  0.00    -0.491 OA
ENDBRANCH   1   8
BRANCH   2   9
ATOM      9  O   LIG    1       31.824 -18.753   8.161  0.00  0.00    -0.486 OA
BRANCH   9  10
ATOM     10  C   LIG    1       31.705 -17.496   8.848  0.00  0.00    +0.262 C 
BRANCH  10  11
ATOM     11  C   LIG    1       31.909 -17.705  10.358  0.00  0.00    +0.177 C 
BRANCH  11  12
ATOM     12  O   LIG    1       30.800 -18.452  10.894  0.00  0.00    -0.386 OA
ATOM     13  H   LIG    1       30.359 -18.871  10.129  0.00  0.00    +0.210 HD
ENDBRANCH  11  12
BRANCH  11  14
ATOM     14  C   LIG    1       32.041 -16.397  11.140  0.00  0.00    +0.190 C 
BRANCH  14  15
ATOM     15  O   LIG    1       30.818 -16.101  11.821  0.00  0.00    -0.392 OA
ATOM     16  H   LIG    1       30.391 -15.388  11.308  0.00  0.00    +0.209 HD
ENDBRANCH  14  15
ENDBRANCH  11  14
ENDBRANCH  10  11
ENDBRANCH   9  10
ENDBRANCH   2   9
TORSDOF 7
ENDMDL
MODEL 4
REMARK VINA RESULT:      -6.1      2.779      4.711
REMARK  Name = *****
REMARK                            x       y       z     vdW  Elec       q    Type
REMARK                         _______ _______ _______ _____ _____    ______ ____
ROOT
ATOM      1  C   LIG    1       23.650 -20.498   5.949  0.00  0.00    +0.162 A 
ATOM      2  C   LIG    1       24.917 -20.405   5.324  0.00  0.00    +0.162 A 
ATOM      3  C   LIG    1       25.029 -19.664   4.142  0.00  0.00    +0.049 A 
ATOM      4  C   LIG    1       23.935 -18.986   3.606  0.00  0.00    +0.004 A 
ATOM      5  C   LIG    1       22.699 -19.047   4.244  0.00  0.00    +0.004 A 
ATOM      6  C   LIG    1       22.563 -19.800   5.405  0.00  0.00    +0.049 A 
ENDROOT
BRANCH   1   8
ATOM      7  C   LIG    1       23.046 -22.600   6.893  0.00  0.00    +0.277 C 
ATOM      8  O   LIG    1       23.572 -21.283   7.074  0.00  0.00    -0.491 OA
ENDBRANCH   1   8
BRANCH   2   9
ATOM      9  O   LIG    1       25.956 -21.123   5.872  0.00  0.00    -0.486 OA
BRANCH   9  10
ATOM     10  C   LIG    1       27.136 -20.406   6.270  0.00  0.00    +0.262 C 
BRANCH  10  11
ATOM     11  C   LIG    1       27.275 -20.438   7.801  0.00  0.00    +0.177 C 
BRANCH  11  12
ATOM     12  O   LIG    1       28.660 -20.276   8.161  0.00  0.00    -0.386 OA
ATOM     13  H   LIG    1       28.892 -19.353   7.945  0.00  0.00    +0.210 HD
ENDBRANCH  11  12
BRANCH  11  14
ATOM     14  C   LIG    1       26.754 -21.731   8.431  0.00  0.00    +0.190 C 
BRANCH  14  15
ATOM     15  O   LIG    1       25.540 -21.480   9.145  0.00  0.00    -0.392 OA
ATOM     16  H   LIG    1       25.469 -22.189   9.812  0.00  0.00    +0.209 HD
ENDBRANCH  14  15
ENDBRANCH  11  14
ENDBRANCH  10  11
ENDBRANCH   9  10
ENDBRANCH   2   9
TORSDOF 7
ENDMDL
MODEL 5
REMARK VINA RESULT:      -6.1      3.837      5.687
REMARK  Name = *****
REMARK                            x       y       z     vdW  Elec       q    Type
REMARK                         _______ _______ _______ _____ _____    ______ ____
ROOT
ATOM      1  C   LIG    1       24.991 -20.449   5.143  0.00  0.00    +0.162 A 
ATOM      2  C   LIG    1       23.806 -20.737   5.861  0.00  0.00    +0.162 A 
ATOM      3  C   LIG    1       22.634 -20.051   5.524  0.00  0.00    +0.049 A 
ATOM      4  C   LIG    1       22.606 -19.137   4.472  0.00  0.00    +0.004 A 
ATOM      5  C   LIG    1       23.764 -18.885   3.741  0.00  0.00    +0.004 A 
ATOM      6  C   LIG    1       24.945 -19.537   4.079  0.00  0.00    +0.049 A 
ENDROOT
BRANCH   1   8
ATOM      7  C   LIG    1       27.118 -20.304   6.206  0.00  0.00    +0.277 C 
ATOM      8  O   LIG    1       26.132 -21.100   5.544  0.00  0.00    -0.491 OA
ENDBRANCH   1   8
BRANCH   2   9
ATOM      9  O   LIG    1       23.895 -21.619   6.915  0.00  0.00    -0.486 OA
BRANCH   9  10
ATOM     10  C   LIG    1       23.415 -22.959   6.715  0.00  0.00    +0.262 C 
BRANCH  10  11
ATOM     11  C   LIG    1       24.573 -23.957   6.881  0.00  0.00    +0.177 C 
BRANCH  11  12
ATOM     12  O   LIG    1       25.690 -23.298   7.506  0.00  0.00    -0.386 OA
ATOM     13  H   LIG    1       25.995 -22.619   6.873  0.00  0.00    +0.210 HD
ENDBRANCH  11  12
BRANCH  11  14
ATOM     14  C   LIG    1       25.043 -24.568   5.560  0.00  0.00    +0.190 C 
BRANCH  14  15
ATOM     15  O   LIG    1       24.772 -23.675   4.476  0.00  0.00    -0.392 OA
ATOM     16  H   LIG    1       24.130 -24.137   3.902  0.00  0.00    +0.209 HD
ENDBRANCH  14  15
ENDBRANCH  11  14
ENDBRANCH  10  11
ENDBRANCH   9  10
ENDBRANCH   2   9
TORSDOF 7
ENDMDL
MODEL 6
REMARK VINA RESULT:      -6.1      2.895      4.264
REMARK  Name = *****
REMARK                            x       y       z     vdW  Elec       q    Type
REMARK                         _______ _______ _______ _____ _____    ______ ____
ROOT
ATOM      1  C   LIG    1       24.004 -22.172   6.991  0.00  0.00    +0.162 A 
ATOM      2  C   LIG    1       25.406 -22.363   7.029  0.00  0.00    +0.162 A 
ATOM      3  C   LIG    1       25.911 -23.660   6.888  0.00  0.00    +0.049 A 
ATOM      4  C   LIG    1       25.066 -24.746   6.665  0.00  0.00    +0.004 A 
ATOM      5  C   LIG    1       23.689 -24.550   6.589  0.00  0.00    +0.004 A 
ATOM      6  C   LIG    1       23.167 -23.271   6.754  0.00  0.00    +0.049 A 
ENDROOT
BRANCH   1   8
ATOM      7  C   LIG    1       22.993 -20.230   6.053  0.00  0.00    +0.277 C 
ATOM      8  O   LIG    1       23.548 -20.892   7.192  0.00  0.00    -0.491 OA
ENDBRANCH   1   8
BRANCH   2   9
ATOM      9  O   LIG    1       26.195 -21.264   7.289  0.00  0.00    -0.486 OA
BRANCH   9  10
ATOM     10  C   LIG    1       27.466 -21.481   7.924  0.00  0.00    +0.262 C 
BRANCH  10  11
ATOM     11  C   LIG    1       28.602 -21.206   6.924  0.00  0.00    +0.177 C 
BRANCH  11  12
ATOM     12  O   LIG    1       29.860 -21.172   7.624  0.00  0.00    -0.386 OA
ATOM     13  H   LIG    1       29.676 -21.483   8.531  0.00  0.00    +0.210 HD
ENDBRANCH  11  12
BRANCH  11  14
ATOM     14  C   LIG    1       28.433 -19.893   6.158  0.00  0.00    +0.190 C 
BRANCH  14  15
ATOM     15  O   LIG    1       27.646 -20.102   4.983  0.00  0.00    -0.392 OA
ATOM     16  H   LIG    1       26.859 -19.533   5.081  0.00  0.00    +0.209 HD
ENDBRANCH  14  15
ENDBRANCH  11  14
ENDBRANCH  10  11
ENDBRANCH   9  10
ENDBRANCH   2   9
TORSDOF 7
ENDMDL
MODEL 7
REMARK VINA RESULT:      -6.1      3.157      4.473
REMARK  Name = *****
REMARK                            x       y       z     vdW  Elec       q    Type
REMARK                         _______ _______ _______ _____ _____    ______ ____
ROOT
ATOM      1  C   LIG    1       25.130 -24.107   6.681  0.00  0.00    +0.162 A 
ATOM      2  C   LIG    1       25.544 -22.818   7.095  0.00  0.00    +0.162 A 
ATOM      3  C   LIG    1       24.569 -21.840   7.319  0.00  0.00    +0.049 A 
ATOM      4  C   LIG    1       23.211 -22.127   7.189  0.00  0.00    +0.004 A 
ATOM      5  C   LIG    1       22.805 -23.406   6.819  0.00  0.00    +0.004 A 
ATOM      6  C   LIG    1       23.760 -24.384   6.566  0.00  0.00    +0.049 A 
ENDROOT
BRANCH   1   8
ATOM      7  C   LIG    1       25.831 -26.382   6.734  0.00  0.00    +0.277 C 
ATOM      8  O   LIG    1       26.121 -25.020   6.415  0.00  0.00    -0.491 OA
ENDBRANCH   1   8
BRANCH   2   9
ATOM      9  O   LIG    1       26.897 -22.575   7.173  0.00  0.00    -0.486 OA
BRANCH   9  10
ATOM     10  C   LIG    1       27.331 -21.382   7.848  0.00  0.00    +0.262 C 
BRANCH  10  11
ATOM     11  C   LIG    1       28.690 -20.931   7.287  0.00  0.00    +0.177 C 
BRANCH  11  12
ATOM     12  O   LIG    1       29.477 -20.351   8.345  0.00  0.00    -0.386 OA
ATOM     13  H   LIG    1       28.879 -19.754   8.833  0.00  0.00    +0.210 HD
ENDBRANCH  11  12
BRANCH  11  14
ATOM     14  C   LIG    1       28.572 -19.914   6.152  0.00  0.00    +0.190 C 
BRANCH  14  15
ATOM     15  O   LIG    1       27.581 -20.334   5.210  0.00  0.00    -0.392 OA
ATOM     16  H   LIG    1       27.224 -21.176   5.553  0.00  0.00    +0.209 HD
ENDBRANCH  14  15
ENDBRANCH  11  14
ENDBRANCH  10  11
ENDBRANCH   9  10
ENDBRANCH   2   9
TORSDOF 7
ENDMDL
MODEL 8
REMARK VINA RESULT:      -6.0      3.364      5.562
REMARK  Name = *****
REMARK                            x       y       z     vdW  Elec       q    Type
REMARK                         _______ _______ _______ _____ _____    ______ ____
ROOT
ATOM      1  C   LIG    1       26.363 -20.738   6.004  0.00  0.00    +0.162 A 
ATOM      2  C   LIG    1       26.647 -21.615   7.078  0.00  0.00    +0.162 A 
ATOM      3  C   LIG    1       27.928 -21.595   7.640  0.00  0.00    +0.049 A 
ATOM      4  C   LIG    1       28.900 -20.699   7.196  0.00  0.00    +0.004 A 
ATOM      5  C   LIG    1       28.606 -19.810   6.166  0.00  0.00    +0.004 A 
ATOM      6  C   LIG    1       27.347 -19.834   5.577  0.00  0.00    +0.049 A 
ENDROOT
BRANCH   1   8
ATOM      7  C   LIG    1       24.971 -20.307   4.120  0.00  0.00    +0.277 C 
ATOM      8  O   LIG    1       25.113 -20.831   5.442  0.00  0.00    -0.491 OA
ENDBRANCH   1   8
BRANCH   2   9
ATOM      9  O   LIG    1       25.666 -22.505   7.454  0.00  0.00    -0.486 OA
BRANCH   9  10
ATOM     10  C   LIG    1       25.831 -23.885   7.088  0.00  0.00    +0.262 C 
BRANCH  10  11
ATOM     11  C   LIG    1       24.678 -24.323   6.170  0.00  0.00    +0.177 C 
BRANCH  11  12
ATOM     12  O   LIG    1       24.877 -23.775   4.853  0.00  0.00    -0.386 OA
ATOM     13  H   LIG    1       25.745 -24.105   4.549  0.00  0.00    +0.210 HD
ENDBRANCH  11  12
BRANCH  11  14
ATOM     14  C   LIG    1       23.300 -23.890   6.675  0.00  0.00    +0.190 C 
BRANCH  14  15
ATOM     15  O   LIG    1       22.920 -22.648   6.077  0.00  0.00    -0.392 OA
ATOM     16  H   LIG    1       22.567 -22.873   5.194  0.00  0.00    +0.209 HD
ENDBRANCH  14  15
ENDBRANCH  11  14
ENDBRANCH  10  11
ENDBRANCH   9  10
ENDBRANCH   2   9
TORSDOF 7
ENDMDL
MODEL 9
REMARK VINA RESULT:      -5.9      2.014      3.157
REMARK  Name = *****
REMARK                            x       y       z     vdW  Elec       q    Type
REMARK                         _______ _______ _______ _____ _____    ______ ____
ROOT
ATOM      1  C   LIG    1       24.967 -20.546   5.468  0.00  0.00    +0.162 A 
ATOM      2  C   LIG    1       25.459 -20.784   6.773  0.00  0.00    +0.162 A 
ATOM      3  C   LIG    1       24.613 -21.386   7.711  0.00  0.00    +0.049 A 
ATOM      4  C   LIG    1       23.326 -21.796   7.367  0.00  0.00    +0.004 A 
ATOM      5  C   LIG    1       22.857 -21.596   6.071  0.00  0.00    +0.004 A 
ATOM      6  C   LIG    1       23.674 -20.974   5.133  0.00  0.00    +0.049 A 
ENDROOT
BRANCH   1   8
ATOM      7  C   LIG    1       25.186 -19.106   3.583  0.00  0.00    +0.277 C 
ATOM      8  O   LIG    1       25.809 -19.899   4.597  0.00  0.00    -0.491 OA
ENDBRANCH   1   8
BRANCH   2   9
ATOM      9  O   LIG    1       26.724 -20.327   7.073  0.00  0.00    -0.486 OA
BRANCH   9  10
ATOM     10  C   LIG    1       27.756 -21.301   7.299  0.00  0.00    +0.262 C 
BRANCH  10  11
ATOM     11  C   LIG    1       29.083 -20.802   6.705  0.00  0.00    +0.177 C 
BRANCH  11  12
ATOM     12  O   LIG    1       30.154 -21.060   7.633  0.00  0.00    -0.386 OA
ATOM     13  H   LIG    1       30.315 -20.219   8.102  0.00  0.00    +0.210 HD
ENDBRANCH  11  12
BRANCH  11  14
ATOM     14  C   LIG    1       29.076 -19.310   6.369  0.00  0.00    +0.190 C 
BRANCH  14  15
ATOM     15  O   LIG    1       28.443 -19.088   5.106  0.00  0.00    -0.392 OA
ATOM     16  H   LIG    1       28.571 -18.141   4.904  0.00  0.00    +0.209 HD
ENDBRANCH  14  15
ENDBRANCH  11  14
ENDBRANCH  10  11
ENDBRANCH   9  10
ENDBRANCH   2   9
TORSDOF 7
ENDMDL
