MODEL 1
REMARK VINA RESULT:      -0.2      0.000      0.000
REMARK  Name = *****
REMARK                            x       y       z     vdW  Elec       q    Type
REMARK                         _______ _______ _______ _____ _____    ______ ____
ROOT
ATOM      1  N   LIG    1       27.688 -16.521   4.100  0.00  0.00    -0.327 N 
ATOM      2  C   LIG    1       26.691 -17.572   3.807  0.00  0.00    +0.120 C 
ATOM      3  C   LIG    1       27.409 -18.940   3.694  0.00  0.00    +0.103 C 
ATOM      4  N   LIG    1       28.205 -19.341   4.879  0.00  0.00    -0.299 NA
ATOM      5  C   LIG    1       29.132 -18.220   5.200  0.00  0.00    +0.103 C 
ATOM      6  C   LIG    1       28.479 -16.813   5.314  0.00  0.00    +0.120 C 
ENDROOT
BRANCH   1   9
ATOM      7  C   LIG    1       25.461 -13.614   3.397  0.00  0.00    +0.057 A 
ATOM      8  C   LIG    1       25.924 -14.906   3.719  0.00  0.00    +0.035 A 
ATOM      9  C   LIG    1       27.293 -15.209   3.834  0.00  0.00    +0.030 A 
ATOM     10  C   LIG    1       28.195 -14.161   3.617  0.00  0.00    +0.023 A 
ATOM     11  C   LIG    1       27.756 -12.867   3.312  0.00  0.00    +0.002 A 
ATOM     12  C   LIG    1       26.395 -12.593   3.200  0.00  0.00    +0.012 A 
BRANCH   7  14
ATOM     13  F   LIG    1       23.584 -13.103   1.983  0.00  0.00    -0.166 F 
ATOM     14  C   LIG    1       23.983 -13.355   3.262  0.00  0.00    +0.417 C 
ATOM     15  F   LIG    1       23.222 -14.403   3.685  0.00  0.00    -0.166 F 
ATOM     16  F   LIG    1       23.573 -12.280   3.993  0.00  0.00    -0.166 F 
ENDBRANCH   7  14
ENDBRANCH   1   9
BRANCH   4  17
ATOM     17  C   LIG    1       27.382 -19.678   6.059  0.00  0.00    +0.092 C 
BRANCH  17  18
ATOM     18  C   LIG    1       26.811 -21.105   6.031  0.00  0.00    +0.091 C 
BRANCH  18  19
ATOM     19  C   LIG    1       25.328 -21.101   6.087  0.00  0.00    +0.135 A 
ATOM     20  N   LIG    1       24.532 -20.577   5.140  0.00  0.00    -0.314 N 
ATOM     21  C   LIG    1       24.653 -19.805   3.900  0.00  0.00    +0.129 C 
ATOM     22  C   LIG    1       23.314 -19.077   3.964  0.00  0.00    +0.019 C 
ATOM     23  C   LIG    1       22.351 -20.138   4.569  0.00  0.00    +0.062 C 
ATOM     24  C   LIG    1       21.133 -19.291   4.795  0.00  0.00    +0.011 C 
ATOM     25  C   LIG    1       21.083 -18.454   3.485  0.00  0.00    +0.001 C 
ATOM     26  C   LIG    1       22.484 -18.567   2.816  0.00  0.00    +0.006 C 
ATOM     27  C   LIG    1       23.241 -20.689   5.576  0.00  0.00    +0.137 A 
ATOM     28  N   LIG    1       23.214 -21.295   6.734  0.00  0.00    -0.134 NA
ATOM     29  N   LIG    1       24.546 -21.549   7.061  0.00  0.00    -0.134 NA
ENDBRANCH  18  19
ENDBRANCH  17  18
ENDBRANCH   4  17
TORSDOF 5
ENDMDL
MODEL 2
REMARK VINA RESULT:       0.8      2.175      6.061
REMARK  Name = *****
REMARK                            x       y       z     vdW  Elec       q    Type
REMARK                         _______ _______ _______ _____ _____    ______ ____
ROOT
ATOM      1  N   LIG    1       26.426 -20.407   6.001  0.00  0.00    -0.327 N 
ATOM      2  C   LIG    1       26.945 -19.253   6.764  0.00  0.00    +0.120 C 
ATOM      3  C   LIG    1       28.449 -19.473   7.062  0.00  0.00    +0.103 C 
ATOM      4  N   LIG    1       29.307 -19.697   5.873  0.00  0.00    -0.299 NA
ATOM      5  C   LIG    1       28.702 -20.804   5.082  0.00  0.00    +0.103 C 
ATOM      6  C   LIG    1       27.188 -20.655   4.759  0.00  0.00    +0.120 C 
ENDROOT
BRANCH   1   9
ATOM      7  C   LIG    1       22.838 -19.853   5.151  0.00  0.00    +0.057 A 
ATOM      8  C   LIG    1       24.246 -19.776   5.156  0.00  0.00    +0.035 A 
ATOM      9  C   LIG    1       25.040 -20.571   6.003  0.00  0.00    +0.030 A 
ATOM     10  C   LIG    1       24.369 -21.459   6.852  0.00  0.00    +0.023 A 
ATOM     11  C   LIG    1       22.973 -21.563   6.851  0.00  0.00    +0.002 A 
ATOM     12  C   LIG    1       22.208 -20.762   6.006  0.00  0.00    +0.012 A 
BRANCH   7  14
ATOM     13  F   LIG    1       22.536 -18.879   2.973  0.00  0.00    -0.166 F 
ATOM     14  C   LIG    1       22.038 -18.958   4.240  0.00  0.00    +0.417 C 
ATOM     15  F   LIG    1       20.745 -19.365   4.103  0.00  0.00    -0.166 F 
ATOM     16  F   LIG    1       21.978 -17.673   4.692  0.00  0.00    -0.166 F 
ENDBRANCH   7  14
ENDBRANCH   1   9
BRANCH   4  17
ATOM     17  C   LIG    1       29.475 -18.496   5.029  0.00  0.00    +0.092 C 
BRANCH  17  18
ATOM     18  C   LIG    1       28.688 -17.272   5.526  0.00  0.00    +0.091 C 
BRANCH  18  19
ATOM     19  C   LIG    1       27.680 -16.830   4.532  0.00  0.00    +0.135 A 
ATOM     20  N   LIG    1       27.192 -15.581   4.447  0.00  0.00    -0.314 N 
ATOM     21  C   LIG    1       27.271 -14.313   5.180  0.00  0.00    +0.129 C 
ATOM     22  C   LIG    1       25.894 -13.765   4.817  0.00  0.00    +0.019 C 
ATOM     23  C   LIG    1       25.690 -14.234   3.349  0.00  0.00    +0.062 C 
ATOM     24  C   LIG    1       24.254 -13.848   3.145  0.00  0.00    +0.011 C 
ATOM     25  C   LIG    1       24.206 -12.445   3.815  0.00  0.00    +0.001 C 
ATOM     26  C   LIG    1       25.472 -12.324   4.712  0.00  0.00    +0.006 C 
ATOM     27  C   LIG    1       26.234 -15.576   3.472  0.00  0.00    +0.137 A 
ATOM     28  N   LIG    1       26.144 -16.762   2.931  0.00  0.00    -0.134 NA
ATOM     29  N   LIG    1       27.060 -17.562   3.615  0.00  0.00    -0.134 NA
ENDBRANCH  18  19
ENDBRANCH  17  18
ENDBRANCH   4  17
TORSDOF 5
ENDMDL
MODEL 3
REMARK VINA RESULT:       0.8      2.142      5.151
REMARK  Name = *****
REMARK                            x       y       z     vdW  Elec       q    Type
REMARK                         _______ _______ _______ _____ _____    ______ ____
ROOT
ATOM      1  N   LIG    1       22.533 -17.275   4.448  0.00  0.00    -0.327 N 
ATOM      2  C   LIG    1       23.103 -18.335   5.305  0.00  0.00    +0.120 C 
ATOM      3  C   LIG    1       22.002 -19.377   5.628  0.00  0.00    +0.103 C 
ATOM      4  N   LIG    1       21.350 -20.000   4.450  0.00  0.00    -0.299 NA
ATOM      5  C   LIG    1       20.872 -18.901   3.566  0.00  0.00    +0.103 C 
ATOM      6  C   LIG    1       21.923 -17.811   3.213  0.00  0.00    +0.120 C 
ENDROOT
BRANCH   1   9
ATOM      7  C   LIG    1       25.328 -14.891   3.809  0.00  0.00    +0.057 A 
ATOM      8  C   LIG    1       24.534 -16.056   3.837  0.00  0.00    +0.035 A 
ATOM      9  C   LIG    1       23.245 -16.076   4.400  0.00  0.00    +0.030 A 
ATOM     10  C   LIG    1       22.770 -14.874   4.938  0.00  0.00    +0.023 A 
ATOM     11  C   LIG    1       23.535 -13.702   4.906  0.00  0.00    +0.002 A 
ATOM     12  C   LIG    1       24.810 -13.708   4.346  0.00  0.00    +0.012 A 
BRANCH   7  14
ATOM     13  F   LIG    1       26.767 -14.508   1.921  0.00  0.00    -0.166 F 
ATOM     14  C   LIG    1       26.712 -14.936   3.215  0.00  0.00    +0.417 C 
ATOM     15  F   LIG    1       27.604 -14.164   3.896  0.00  0.00    -0.166 F 
ATOM     16  F   LIG    1       27.236 -16.193   3.208  0.00  0.00    -0.166 F 
ENDBRANCH   7  14
ENDBRANCH   1   9
BRANCH   4  17
ATOM     17  C   LIG    1       22.235 -20.914   3.699  0.00  0.00    +0.092 C 
BRANCH  17  18
ATOM     18  C   LIG    1       23.488 -21.346   4.478  0.00  0.00    +0.091 C 
BRANCH  18  19
ATOM     19  C   LIG    1       24.665 -20.514   4.125  0.00  0.00    +0.135 A 
ATOM     20  N   LIG    1       25.830 -20.521   4.795  0.00  0.00    -0.314 N 
ATOM     21  C   LIG    1       26.400 -21.111   6.010  0.00  0.00    +0.129 C 
ATOM     22  C   LIG    1       27.414 -20.016   6.328  0.00  0.00    +0.019 C 
ATOM     23  C   LIG    1       27.913 -19.563   4.928  0.00  0.00    +0.062 C 
ATOM     24  C   LIG    1       28.728 -18.363   5.313  0.00  0.00    +0.011 C 
ATOM     25  C   LIG    1       29.475 -18.881   6.575  0.00  0.00    +0.001 C 
ATOM     26  C   LIG    1       28.723 -20.154   7.060  0.00  0.00    +0.006 C 
ATOM     27  C   LIG    1       26.638 -19.575   4.230  0.00  0.00    +0.137 A 
ATOM     28  N   LIG    1       26.029 -19.017   3.217  0.00  0.00    -0.134 NA
ATOM     29  N   LIG    1       24.768 -19.612   3.158  0.00  0.00    -0.134 NA
ENDBRANCH  18  19
ENDBRANCH  17  18
ENDBRANCH   4  17
TORSDOF 5
ENDMDL
MODEL 4
REMARK VINA RESULT:       1.4      3.252      7.374
REMARK  Name = *****
REMARK                            x       y       z     vdW  Elec       q    Type
REMARK                         _______ _______ _______ _____ _____    ______ ____
ROOT
ATOM      1  N   LIG    1       23.795 -19.531   4.747  0.00  0.00    -0.327 N 
ATOM      2  C   LIG    1       24.111 -18.620   3.626  0.00  0.00    +0.120 C 
ATOM      3  C   LIG    1       22.898 -18.553   2.665  0.00  0.00    +0.103 C 
ATOM      4  N   LIG    1       21.616 -18.137   3.285  0.00  0.00    -0.299 NA
ATOM      5  C   LIG    1       21.379 -19.017   4.463  0.00  0.00    +0.103 C 
ATOM      6  C   LIG    1       22.563 -19.142   5.464  0.00  0.00    +0.120 C 
ENDROOT
BRANCH   1   9
ATOM      7  C   LIG    1       27.316 -19.967   5.891  0.00  0.00    +0.057 A 
ATOM      8  C   LIG    1       26.165 -19.481   5.239  0.00  0.00    +0.035 A 
ATOM      9  C   LIG    1       24.886 -20.020   5.466  0.00  0.00    +0.030 A 
ATOM     10  C   LIG    1       24.796 -21.074   6.383  0.00  0.00    +0.023 A 
ATOM     11  C   LIG    1       25.924 -21.561   7.054  0.00  0.00    +0.002 A 
ATOM     12  C   LIG    1       27.180 -21.013   6.809  0.00  0.00    +0.012 A 
BRANCH   7  14
ATOM     13  F   LIG    1       28.601 -18.212   4.866  0.00  0.00    -0.166 F 
ATOM     14  C   LIG    1       28.665 -19.367   5.588  0.00  0.00    +0.417 C 
ATOM     15  F   LIG    1       29.371 -19.060   6.713  0.00  0.00    -0.166 F 
ATOM     16  F   LIG    1       29.460 -20.207   4.867  0.00  0.00    -0.166 F 
ENDBRANCH   7  14
ENDBRANCH   1   9
BRANCH   4  17
ATOM     17  C   LIG    1       21.589 -16.717   3.692  0.00  0.00    +0.092 C 
BRANCH  17  18
ATOM     18  C   LIG    1       22.844 -16.266   4.457  0.00  0.00    +0.091 C 
BRANCH  18  19
ATOM     19  C   LIG    1       23.483 -15.092   3.814  0.00  0.00    +0.135 A 
ATOM     20  N   LIG    1       24.810 -14.930   3.674  0.00  0.00    -0.314 N 
ATOM     21  C   LIG    1       26.052 -15.593   4.085  0.00  0.00    +0.129 C 
ATOM     22  C   LIG    1       26.951 -14.361   4.130  0.00  0.00    +0.019 C 
ATOM     23  C   LIG    1       26.448 -13.498   2.939  0.00  0.00    +0.062 C 
ATOM     24  C   LIG    1       27.224 -12.236   3.181  0.00  0.00    +0.011 C 
ATOM     25  C   LIG    1       28.627 -12.794   3.554  0.00  0.00    +0.001 C 
ATOM     26  C   LIG    1       28.440 -14.296   3.914  0.00  0.00    +0.006 C 
ATOM     27  C   LIG    1       25.020 -13.702   3.112  0.00  0.00    +0.137 A 
ATOM     28  N   LIG    1       23.874 -13.123   2.866  0.00  0.00    -0.134 NA
ATOM     29  N   LIG    1       22.896 -14.008   3.322  0.00  0.00    -0.134 NA
ENDBRANCH  18  19
ENDBRANCH  17  18
ENDBRANCH   4  17
TORSDOF 5
ENDMDL
