MODEL 1
REMARK VINA RESULT:      -8.9      0.000      0.000
REMARK  Name = *****
REMARK                            x       y       z     vdW  Elec       q    Type
REMARK                         _______ _______ _______ _____ _____    ______ ____
ROOT
ATOM      1  C   LIG    1       25.497 -27.762   6.696  0.00  0.00    +0.039 A 
ATOM      2  C   LIG    1       25.802 -26.399   6.840  0.00  0.00    +0.155 A 
ATOM      3  F   LIG    1       26.289 -25.915   7.997  0.00  0.00    -0.203 F 
ATOM      4  C   LIG    1       25.602 -25.485   5.796  0.00  0.00    +0.084 A 
ATOM      5  C   LIG    1       25.102 -25.922   4.572  0.00  0.00    +0.027 A 
ATOM      6  C   LIG    1       24.784 -27.266   4.407  0.00  0.00    +0.003 A 
ATOM      7  C   LIG    1       24.953 -28.169   5.467  0.00  0.00    +0.013 A 
ENDROOT
BRANCH   1  11
ATOM      8  C   LIG    1       26.424 -29.126   9.912  0.00  0.00    +0.085 A 
ATOM      9  S   LIG    1       26.052 -30.693   9.344  0.00  0.00    -0.069 S 
ATOM     10  C   LIG    1       25.545 -30.074   7.810  0.00  0.00    +0.065 A 
ATOM     11  C   LIG    1       25.728 -28.690   7.813  0.00  0.00    +0.090 A 
ATOM     12  N   LIG    1       26.181 -28.172   9.038  0.00  0.00    -0.243 NA
BRANCH  10  13
ATOM     13  C   LIG    1       25.089 -31.059   6.813  0.00  0.00    +0.085 A 
ATOM     14  N   LIG    1       26.011 -31.463   5.919  0.00  0.00    -0.214 NA
ATOM     15  C   LIG    1       25.629 -32.379   5.022  0.00  0.00    +0.213 A 
ATOM     16  N   LIG    1       24.407 -32.909   4.940  0.00  0.00    -0.223 NA
ATOM     17  C   LIG    1       23.514 -32.498   5.852  0.00  0.00    +0.116 A 
ATOM     18  C   LIG    1       23.799 -31.560   6.810  0.00  0.00    +0.049 A 
BRANCH  15  19
ATOM     19  N   LIG    1       26.545 -32.769   4.071  0.00  0.00    -0.328 N 
ATOM     20  H   LIG    1       27.307 -32.109   4.019  0.00  0.00    +0.145 HD
ATOM     21  H   LIG    1       26.068 -33.007   3.212  0.00  0.00    +0.145 HD
ENDBRANCH  15  19
ENDBRANCH  10  13
BRANCH   8  23
ATOM     22  C   LIG    1       28.409 -29.380  11.510  0.00  0.00    +0.018 C 
ATOM     23  C   LIG    1       26.948 -28.908  11.336  0.00  0.00    +0.011 C 
ATOM     24  C   LIG    1       26.898 -27.410  11.687  0.00  0.00    +0.018 C 
ATOM     25  C   LIG    1       26.067 -29.683  12.333  0.00  0.00    +0.018 C 
ENDBRANCH   8  23
ENDBRANCH   1  11
BRANCH   4  26
ATOM     26  N   LIG    1       25.828 -24.083   6.008  0.00  0.00    -0.213 N 
ATOM     27  H   LIG    1       26.752 -23.868   6.392  0.00  0.00    +0.174 HD
BRANCH  26  28
ATOM     28  S   LIG    1       24.640 -23.250   6.908  0.00  0.00    +0.078 S 
ATOM     29  O   LIG    1       25.216 -22.802   8.152  0.00  0.00    -0.150 OA
ATOM     30  O   LIG    1       23.475 -24.120   6.930  0.00  0.00    -0.150 OA
BRANCH  28  31
ATOM     31  C   LIG    1       24.263 -21.855   5.911  0.00  0.00    +0.178 A 
ATOM     32  C   LIG    1       22.945 -21.568   5.572  0.00  0.00    +0.153 A 
ATOM     33  F   LIG    1       21.928 -22.333   5.986  0.00  0.00    -0.203 F 
ATOM     34  C   LIG    1       22.642 -20.474   4.762  0.00  0.00    +0.040 A 
ATOM     35  C   LIG    1       23.663 -19.651   4.293  0.00  0.00    +0.006 A 
ATOM     36  C   LIG    1       24.983 -19.923   4.648  0.00  0.00    +0.040 A 
ATOM     37  C   LIG    1       25.274 -21.017   5.463  0.00  0.00    +0.153 A 
ATOM     38  F   LIG    1       26.560 -21.247   5.761  0.00  0.00    -0.203 F 
ENDBRANCH  28  31
ENDBRANCH  26  28
ENDBRANCH   4  26
TORSDOF 7
ENDMDL
MODEL 2
REMARK VINA RESULT:      -8.9      2.020      2.849
REMARK  Name = *****
REMARK                            x       y       z     vdW  Elec       q    Type
REMARK                         _______ _______ _______ _____ _____    ______ ____
ROOT
ATOM      1  C   LIG    1       25.049 -29.151   7.262  0.00  0.00    +0.039 A 
ATOM      2  C   LIG    1       25.521 -27.839   7.428  0.00  0.00    +0.155 A 
ATOM      3  F   LIG    1       26.242 -27.492   8.510  0.00  0.00    -0.203 F 
ATOM      4  C   LIG    1       25.252 -26.835   6.487  0.00  0.00    +0.084 A 
ATOM      5  C   LIG    1       24.512 -27.128   5.346  0.00  0.00    +0.027 A 
ATOM      6  C   LIG    1       24.026 -28.419   5.161  0.00  0.00    +0.003 A 
ATOM      7  C   LIG    1       24.268 -29.410   6.124  0.00  0.00    +0.013 A 
ENDROOT
BRANCH   1  11
ATOM      8  C   LIG    1       25.460 -30.885  10.407  0.00  0.00    +0.085 A 
ATOM      9  S   LIG    1       26.169 -32.199   9.578  0.00  0.00    -0.069 S 
ATOM     10  C   LIG    1       25.939 -31.427   8.047  0.00  0.00    +0.065 A 
ATOM     11  C   LIG    1       25.357 -30.177   8.269  0.00  0.00    +0.090 A 
ATOM     12  N   LIG    1       25.050 -29.916   9.615  0.00  0.00    -0.243 NA
BRANCH  10  13
ATOM     13  C   LIG    1       26.414 -32.155   6.857  0.00  0.00    +0.085 A 
ATOM     14  N   LIG    1       25.607 -32.117   5.781  0.00  0.00    -0.214 NA
ATOM     15  C   LIG    1       26.030 -32.745   4.679  0.00  0.00    +0.213 A 
ATOM     16  N   LIG    1       27.181 -33.413   4.572  0.00  0.00    -0.223 NA
ATOM     17  C   LIG    1       27.972 -33.422   5.655  0.00  0.00    +0.116 A 
ATOM     18  C   LIG    1       27.630 -32.815   6.836  0.00  0.00    +0.049 A 
BRANCH  15  19
ATOM     19  N   LIG    1       25.196 -32.757   3.584  0.00  0.00    -0.328 N 
ATOM     20  H   LIG    1       25.452 -33.500   2.950  0.00  0.00    +0.145 HD
ATOM     21  H   LIG    1       25.110 -31.824   3.206  0.00  0.00    +0.145 HD
ENDBRANCH  15  19
ENDBRANCH  10  13
BRANCH   8  23
ATOM     22  C   LIG    1       26.509 -30.280  12.663  0.00  0.00    +0.018 C 
ATOM     23  C   LIG    1       25.301 -30.907  11.931  0.00  0.00    +0.011 C 
ATOM     24  C   LIG    1       24.048 -30.111  12.338  0.00  0.00    +0.018 C 
ATOM     25  C   LIG    1       25.145 -32.361  12.412  0.00  0.00    +0.018 C 
ENDBRANCH   8  23
ENDBRANCH   1  11
BRANCH   4  26
ATOM     26  N   LIG    1       25.663 -25.482   6.737  0.00  0.00    -0.213 N 
ATOM     27  H   LIG    1       25.934 -25.306   7.708  0.00  0.00    +0.174 HD
BRANCH  26  28
ATOM     28  S   LIG    1       24.592 -24.255   6.222  0.00  0.00    +0.078 S 
ATOM     29  O   LIG    1       23.255 -24.585   6.649  0.00  0.00    -0.150 OA
ATOM     30  O   LIG    1       24.864 -24.059   4.807  0.00  0.00    -0.150 OA
BRANCH  28  31
ATOM     31  C   LIG    1       25.141 -22.831   7.089  0.00  0.00    +0.178 A 
ATOM     32  C   LIG    1       26.500 -22.599   7.271  0.00  0.00    +0.153 A 
ATOM     33  F   LIG    1       27.429 -23.440   6.801  0.00  0.00    -0.203 F 
ATOM     34  C   LIG    1       26.941 -21.479   7.978  0.00  0.00    +0.040 A 
ATOM     35  C   LIG    1       26.018 -20.577   8.499  0.00  0.00    +0.006 A 
ATOM     36  C   LIG    1       24.655 -20.795   8.299  0.00  0.00    +0.040 A 
ATOM     37  C   LIG    1       24.226 -21.915   7.587  0.00  0.00    +0.153 A 
ATOM     38  F   LIG    1       22.906 -22.090   7.438  0.00  0.00    -0.203 F 
ENDBRANCH  28  31
ENDBRANCH  26  28
ENDBRANCH   4  26
TORSDOF 7
ENDMDL
MODEL 3
REMARK VINA RESULT:      -8.8      1.803      2.522
REMARK  Name = *****
REMARK                            x       y       z     vdW  Elec       q    Type
REMARK                         _______ _______ _______ _____ _____    ______ ____
ROOT
ATOM      1  C   LIG    1       25.065 -29.071   7.219  0.00  0.00    +0.039 A 
ATOM      2  C   LIG    1       25.574 -27.767   7.324  0.00  0.00    +0.155 A 
ATOM      3  F   LIG    1       26.328 -27.399   8.377  0.00  0.00    -0.203 F 
ATOM      4  C   LIG    1       25.311 -26.793   6.352  0.00  0.00    +0.084 A 
ATOM      5  C   LIG    1       24.539 -27.108   5.238  0.00  0.00    +0.027 A 
ATOM      6  C   LIG    1       24.015 -28.391   5.114  0.00  0.00    +0.003 A 
ATOM      7  C   LIG    1       24.252 -29.351   6.108  0.00  0.00    +0.013 A 
ENDROOT
BRANCH   1  11
ATOM      8  C   LIG    1       25.522 -30.689  10.418  0.00  0.00    +0.085 A 
ATOM      9  S   LIG    1       26.147 -32.065   9.623  0.00  0.00    -0.069 S 
ATOM     10  C   LIG    1       25.891 -31.348   8.069  0.00  0.00    +0.065 A 
ATOM     11  C   LIG    1       25.369 -30.067   8.257  0.00  0.00    +0.090 A 
ATOM     12  N   LIG    1       25.122 -29.737   9.601  0.00  0.00    -0.243 NA
BRANCH  10  13
ATOM     13  C   LIG    1       26.293 -32.143   6.895  0.00  0.00    +0.085 A 
ATOM     14  N   LIG    1       25.381 -32.246   5.911  0.00  0.00    -0.214 NA
ATOM     15  C   LIG    1       25.733 -32.937   4.823  0.00  0.00    +0.213 A 
ATOM     16  N   LIG    1       26.910 -33.541   4.646  0.00  0.00    -0.223 NA
ATOM     17  C   LIG    1       27.804 -33.411   5.637  0.00  0.00    +0.116 A 
ATOM     18  C   LIG    1       27.543 -32.729   6.797  0.00  0.00    +0.049 A 
BRANCH  15  19
ATOM     19  N   LIG    1       24.795 -33.092   3.826  0.00  0.00    -0.328 N 
ATOM     20  H   LIG    1       23.902 -32.724   4.118  0.00  0.00    +0.145 HD
ATOM     21  H   LIG    1       24.822 -34.039   3.473  0.00  0.00    +0.145 HD
ENDBRANCH  15  19
ENDBRANCH  10  13
BRANCH   8  23
ATOM     22  C   LIG    1       26.679 -30.040  12.609  0.00  0.00    +0.018 C 
ATOM     23  C   LIG    1       25.418 -30.641  11.947  0.00  0.00    +0.011 C 
ATOM     24  C   LIG    1       24.217 -29.773  12.363  0.00  0.00    +0.018 C 
ATOM     25  C   LIG    1       25.217 -32.066  12.494  0.00  0.00    +0.018 C 
ENDBRANCH   8  23
ENDBRANCH   1  11
BRANCH   4  26
ATOM     26  N   LIG    1       25.762 -25.442   6.540  0.00  0.00    -0.213 N 
ATOM     27  H   LIG    1       26.050 -25.234   7.501  0.00  0.00    +0.174 HD
BRANCH  26  28
ATOM     28  S   LIG    1       24.720 -24.208   5.988  0.00  0.00    +0.078 S 
ATOM     29  O   LIG    1       23.445 -24.334   6.650  0.00  0.00    -0.150 OA
ATOM     30  O   LIG    1       24.781 -24.258   4.536  0.00  0.00    -0.150 OA
BRANCH  28  31
ATOM     31  C   LIG    1       25.504 -22.731   6.519  0.00  0.00    +0.178 A 
ATOM     32  C   LIG    1       25.504 -21.603   5.705  0.00  0.00    +0.153 A 
ATOM     33  F   LIG    1       24.916 -21.600   4.503  0.00  0.00    -0.203 F 
ATOM     34  C   LIG    1       26.145 -20.432   6.114  0.00  0.00    +0.040 A 
ATOM     35  C   LIG    1       26.783 -20.383   7.350  0.00  0.00    +0.006 A 
ATOM     36  C   LIG    1       26.766 -21.505   8.178  0.00  0.00    +0.040 A 
ATOM     37  C   LIG    1       26.119 -22.668   7.762  0.00  0.00    +0.153 A 
ATOM     38  F   LIG    1       26.147 -23.724   8.585  0.00  0.00    -0.203 F 
ENDBRANCH  28  31
ENDBRANCH  26  28
ENDBRANCH   4  26
TORSDOF 7
ENDMDL
MODEL 4
REMARK VINA RESULT:      -8.6      4.219      7.473
REMARK  Name = *****
REMARK                            x       y       z     vdW  Elec       q    Type
REMARK                         _______ _______ _______ _____ _____    ______ ____
ROOT
ATOM      1  C   LIG    1       25.485 -29.507   8.889  0.00  0.00    +0.039 A 
ATOM      2  C   LIG    1       24.411 -30.081   9.587  0.00  0.00    +0.155 A 
ATOM      3  F   LIG    1       23.152 -29.994   9.118  0.00  0.00    -0.203 F 
ATOM      4  C   LIG    1       24.599 -30.756  10.801  0.00  0.00    +0.084 A 
ATOM      5  C   LIG    1       25.875 -30.883  11.339  0.00  0.00    +0.027 A 
ATOM      6  C   LIG    1       26.956 -30.315  10.671  0.00  0.00    +0.003 A 
ATOM      7  C   LIG    1       26.757 -29.610   9.475  0.00  0.00    +0.013 A 
ENDROOT
BRANCH   1  11
ATOM      8  C   LIG    1       24.972 -26.927   6.409  0.00  0.00    +0.085 A 
ATOM      9  S   LIG    1       24.685 -28.130   5.231  0.00  0.00    -0.069 S 
ATOM     10  C   LIG    1       24.979 -29.395   6.374  0.00  0.00    +0.065 A 
ATOM     11  C   LIG    1       25.248 -28.812   7.614  0.00  0.00    +0.090 A 
ATOM     12  N   LIG    1       25.287 -27.408   7.594  0.00  0.00    -0.243 NA
BRANCH  10  13
ATOM     13  C   LIG    1       24.850 -30.778   5.883  0.00  0.00    +0.085 A 
ATOM     14  N   LIG    1       23.793 -31.472   6.346  0.00  0.00    -0.214 NA
ATOM     15  C   LIG    1       23.638 -32.720   5.892  0.00  0.00    +0.213 A 
ATOM     16  N   LIG    1       24.454 -33.329   5.030  0.00  0.00    -0.223 NA
ATOM     17  C   LIG    1       25.491 -32.610   4.575  0.00  0.00    +0.116 A 
ATOM     18  C   LIG    1       25.745 -31.325   4.980  0.00  0.00    +0.049 A 
BRANCH  15  19
ATOM     19  N   LIG    1       22.589 -33.461   6.390  0.00  0.00    -0.328 N 
ATOM     20  H   LIG    1       22.564 -34.375   5.962  0.00  0.00    +0.145 HD
ATOM     21  H   LIG    1       21.742 -32.910   6.375  0.00  0.00    +0.145 HD
ENDBRANCH  15  19
ENDBRANCH  10  13
BRANCH   8  23
ATOM     22  C   LIG    1       23.555 -24.794   6.457  0.00  0.00    +0.018 C 
ATOM     23  C   LIG    1       24.900 -25.439   6.050  0.00  0.00    +0.011 C 
ATOM     24  C   LIG    1       26.020 -24.671   6.775  0.00  0.00    +0.018 C 
ATOM     25  C   LIG    1       25.080 -25.266   4.531  0.00  0.00    +0.018 C 
ENDBRANCH   8  23
ENDBRANCH   1  11
BRANCH   4  26
ATOM     26  N   LIG    1       23.468 -31.244  11.539  0.00  0.00    -0.213 N 
ATOM     27  H   LIG    1       22.566 -31.017  11.110  0.00  0.00    +0.174 HD
BRANCH  26  28
ATOM     28  S   LIG    1       23.414 -30.848  13.199  0.00  0.00    +0.078 S 
ATOM     29  O   LIG    1       24.713 -31.075  13.781  0.00  0.00    -0.150 OA
ATOM     30  O   LIG    1       22.257 -31.545  13.737  0.00  0.00    -0.150 OA
BRANCH  28  31
ATOM     31  C   LIG    1       23.071 -29.127  13.207  0.00  0.00    +0.178 A 
ATOM     32  C   LIG    1       24.074 -28.210  13.502  0.00  0.00    +0.153 A 
ATOM     33  F   LIG    1       25.322 -28.598  13.789  0.00  0.00    -0.203 F 
ATOM     34  C   LIG    1       23.800 -26.842  13.531  0.00  0.00    +0.040 A 
ATOM     35  C   LIG    1       22.515 -26.383  13.252  0.00  0.00    +0.006 A 
ATOM     36  C   LIG    1       21.512 -27.298  12.934  0.00  0.00    +0.040 A 
ATOM     37  C   LIG    1       21.798 -28.662  12.904  0.00  0.00    +0.153 A 
ATOM     38  F   LIG    1       20.796 -29.502  12.611  0.00  0.00    -0.203 F 
ENDBRANCH  28  31
ENDBRANCH  26  28
ENDBRANCH   4  26
TORSDOF 7
ENDMDL
MODEL 5
REMARK VINA RESULT:      -8.2      5.125      8.832
REMARK  Name = *****
REMARK                            x       y       z     vdW  Elec       q    Type
REMARK                         _______ _______ _______ _____ _____    ______ ____
ROOT
ATOM      1  C   LIG    1       26.738 -21.744   7.431  0.00  0.00    +0.039 A 
ATOM      2  C   LIG    1       28.117 -21.591   7.216  0.00  0.00    +0.155 A 
ATOM      3  F   LIG    1       28.776 -22.380   6.348  0.00  0.00    -0.203 F 
ATOM      4  C   LIG    1       28.866 -20.624   7.900  0.00  0.00    +0.084 A 
ATOM      5  C   LIG    1       28.245 -19.775   8.812  0.00  0.00    +0.027 A 
ATOM      6  C   LIG    1       26.880 -19.912   9.049  0.00  0.00    +0.003 A 
ATOM      7  C   LIG    1       26.144 -20.905   8.388  0.00  0.00    +0.013 A 
ENDROOT
BRANCH   1  11
ATOM      8  C   LIG    1       25.566 -24.916   6.153  0.00  0.00    +0.085 A 
ATOM      9  S   LIG    1       24.513 -24.088   5.093  0.00  0.00    -0.069 S 
ATOM     10  C   LIG    1       25.006 -22.552   5.718  0.00  0.00    +0.065 A 
ATOM     11  C   LIG    1       25.986 -22.766   6.688  0.00  0.00    +0.090 A 
ATOM     12  N   LIG    1       26.249 -24.121   6.952  0.00  0.00    -0.243 NA
BRANCH  10  13
ATOM     13  C   LIG    1       24.384 -21.359   5.116  0.00  0.00    +0.085 A 
ATOM     14  N   LIG    1       25.207 -20.549   4.424  0.00  0.00    -0.214 NA
ATOM     15  C   LIG    1       24.660 -19.476   3.844  0.00  0.00    +0.213 A 
ATOM     16  N   LIG    1       23.370 -19.143   3.911  0.00  0.00    -0.223 NA
ATOM     17  C   LIG    1       22.571 -19.974   4.595  0.00  0.00    +0.116 A 
ATOM     18  C   LIG    1       23.030 -21.098   5.232  0.00  0.00    +0.049 A 
BRANCH  15  19
ATOM     19  N   LIG    1       25.496 -18.612   3.172  0.00  0.00    -0.328 N 
ATOM     20  H   LIG    1       25.602 -17.749   3.685  0.00  0.00    +0.145 HD
ATOM     21  H   LIG    1       25.220 -18.553   2.201  0.00  0.00    +0.145 HD
ENDBRANCH  15  19
ENDBRANCH  10  13
BRANCH   8  23
ATOM     22  C   LIG    1       26.223 -27.008   7.475  0.00  0.00    +0.018 C 
ATOM     23  C   LIG    1       25.634 -26.447   6.162  0.00  0.00    +0.011 C 
ATOM     24  C   LIG    1       24.220 -27.034   5.999  0.00  0.00    +0.018 C 
ATOM     25  C   LIG    1       26.511 -26.930   4.992  0.00  0.00    +0.018 C 
ENDBRANCH   8  23
ENDBRANCH   1  11
BRANCH   4  26
ATOM     26  N   LIG    1       30.291 -20.560   7.732  0.00  0.00    -0.213 N 
ATOM     27  H   LIG    1       30.663 -21.269   7.095  0.00  0.00    +0.174 HD
BRANCH  26  28
ATOM     28  S   LIG    1       31.225 -20.545   9.161  0.00  0.00    +0.078 S 
ATOM     29  O   LIG    1       32.516 -21.126   8.888  0.00  0.00    -0.150 OA
ATOM     30  O   LIG    1       30.382 -21.127  10.193  0.00  0.00    -0.150 OA
BRANCH  28  31
ATOM     31  C   LIG    1       31.423 -18.837   9.513  0.00  0.00    +0.178 A 
ATOM     32  C   LIG    1       31.984 -17.984   8.568  0.00  0.00    +0.153 A 
ATOM     33  F   LIG    1       32.390 -18.426   7.372  0.00  0.00    -0.203 F 
ATOM     34  C   LIG    1       32.163 -16.630   8.852  0.00  0.00    +0.040 A 
ATOM     35  C   LIG    1       31.769 -16.118  10.086  0.00  0.00    +0.006 A 
ATOM     36  C   LIG    1       31.187 -16.966  11.027  0.00  0.00    +0.040 A 
ATOM     37  C   LIG    1       31.008 -18.317  10.731  0.00  0.00    +0.153 A 
ATOM     38  F   LIG    1       30.461 -19.094  11.676  0.00  0.00    -0.203 F 
ENDBRANCH  28  31
ENDBRANCH  26  28
ENDBRANCH   4  26
TORSDOF 7
ENDMDL
MODEL 6
REMARK VINA RESULT:      -7.8      4.491      8.211
REMARK  Name = *****
REMARK                            x       y       z     vdW  Elec       q    Type
REMARK                         _______ _______ _______ _____ _____    ______ ____
ROOT
ATOM      1  C   LIG    1       25.489 -29.506   8.860  0.00  0.00    +0.039 A 
ATOM      2  C   LIG    1       24.414 -30.110   9.531  0.00  0.00    +0.155 A 
ATOM      3  F   LIG    1       23.164 -30.048   9.036  0.00  0.00    -0.203 F 
ATOM      4  C   LIG    1       24.592 -30.791  10.743  0.00  0.00    +0.084 A 
ATOM      5  C   LIG    1       25.859 -30.892  11.308  0.00  0.00    +0.027 A 
ATOM      6  C   LIG    1       26.941 -30.295  10.667  0.00  0.00    +0.003 A 
ATOM      7  C   LIG    1       26.751 -29.585   9.472  0.00  0.00    +0.013 A 
ENDROOT
BRANCH   1  11
ATOM      8  C   LIG    1       24.994 -26.918   6.386  0.00  0.00    +0.085 A 
ATOM      9  S   LIG    1       24.723 -28.117   5.200  0.00  0.00    -0.069 S 
ATOM     10  C   LIG    1       25.009 -29.386   6.341  0.00  0.00    +0.065 A 
ATOM     11  C   LIG    1       25.263 -28.807   7.586  0.00  0.00    +0.090 A 
ATOM     12  N   LIG    1       25.299 -27.403   7.572  0.00  0.00    -0.243 NA
BRANCH  10  13
ATOM     13  C   LIG    1       24.889 -30.768   5.843  0.00  0.00    +0.085 A 
ATOM     14  N   LIG    1       23.812 -31.456   6.267  0.00  0.00    -0.214 NA
ATOM     15  C   LIG    1       23.665 -32.702   5.805  0.00  0.00    +0.213 A 
ATOM     16  N   LIG    1       24.507 -33.315   4.972  0.00  0.00    -0.223 NA
ATOM     17  C   LIG    1       25.564 -32.601   4.555  0.00  0.00    +0.116 A 
ATOM     18  C   LIG    1       25.812 -31.319   4.972  0.00  0.00    +0.049 A 
BRANCH  15  19
ATOM     19  N   LIG    1       22.595 -33.437   6.265  0.00  0.00    -0.328 N 
ATOM     20  H   LIG    1       22.831 -33.910   7.125  0.00  0.00    +0.145 HD
ATOM     21  H   LIG    1       22.210 -33.991   5.513  0.00  0.00    +0.145 HD
ENDBRANCH  15  19
ENDBRANCH  10  13
BRANCH   8  23
ATOM     22  C   LIG    1       26.017 -24.597   6.738  0.00  0.00    +0.018 C 
ATOM     23  C   LIG    1       24.922 -25.429   6.032  0.00  0.00    +0.011 C 
ATOM     24  C   LIG    1       25.104 -25.242   4.514  0.00  0.00    +0.018 C 
ATOM     25  C   LIG    1       23.548 -24.868   6.441  0.00  0.00    +0.018 C 
ENDBRANCH   8  23
ENDBRANCH   1  11
BRANCH   4  26
ATOM     26  N   LIG    1       23.457 -31.309  11.454  0.00  0.00    -0.213 N 
ATOM     27  H   LIG    1       22.709 -31.650  10.844  0.00  0.00    +0.174 HD
BRANCH  26  28
ATOM     28  S   LIG    1       22.784 -30.299  12.655  0.00  0.00    +0.078 S 
ATOM     29  O   LIG    1       22.791 -28.936  12.184  0.00  0.00    -0.150 OA
ATOM     30  O   LIG    1       23.477 -30.634  13.889  0.00  0.00    -0.150 OA
BRANCH  28  31
ATOM     31  C   LIG    1       21.126 -30.857  12.789  0.00  0.00    +0.178 A 
ATOM     32  C   LIG    1       20.290 -30.854  11.677  0.00  0.00    +0.153 A 
ATOM     33  F   LIG    1       20.711 -30.430  10.480  0.00  0.00    -0.203 F 
ATOM     34  C   LIG    1       18.964 -31.276  11.784  0.00  0.00    +0.040 A 
ATOM     35  C   LIG    1       18.470 -31.715  13.010  0.00  0.00    +0.006 A 
ATOM     36  C   LIG    1       19.311 -31.740  14.121  0.00  0.00    +0.040 A 
ATOM     37  C   LIG    1       20.636 -31.321  14.002  0.00  0.00    +0.153 A 
ATOM     38  F   LIG    1       21.398 -31.346  15.103  0.00  0.00    -0.203 F 
ENDBRANCH  28  31
ENDBRANCH  26  28
ENDBRANCH   4  26
TORSDOF 7
ENDMDL
MODEL 7
REMARK VINA RESULT:      -7.7      5.017      8.688
REMARK  Name = *****
REMARK                            x       y       z     vdW  Elec       q    Type
REMARK                         _______ _______ _______ _____ _____    ______ ____
ROOT
ATOM      1  C   LIG    1       26.609 -21.847   7.427  0.00  0.00    +0.039 A 
ATOM      2  C   LIG    1       27.973 -21.628   7.179  0.00  0.00    +0.155 A 
ATOM      3  F   LIG    1       28.637 -22.351   6.258  0.00  0.00    -0.203 F 
ATOM      4  C   LIG    1       28.704 -20.660   7.883  0.00  0.00    +0.084 A 
ATOM      5  C   LIG    1       28.077 -19.878   8.848  0.00  0.00    +0.027 A 
ATOM      6  C   LIG    1       26.727 -20.081   9.119  0.00  0.00    +0.003 A 
ATOM      7  C   LIG    1       26.011 -21.075   8.436  0.00  0.00    +0.013 A 
ENDROOT
BRANCH   1  11
ATOM      8  C   LIG    1       25.491 -25.013   6.088  0.00  0.00    +0.085 A 
ATOM      9  S   LIG    1       24.432 -24.183   5.036  0.00  0.00    -0.069 S 
ATOM     10  C   LIG    1       24.899 -22.650   5.690  0.00  0.00    +0.065 A 
ATOM     11  C   LIG    1       25.877 -22.867   6.663  0.00  0.00    +0.090 A 
ATOM     12  N   LIG    1       26.157 -24.223   6.904  0.00  0.00    -0.243 NA
BRANCH  10  13
ATOM     13  C   LIG    1       24.263 -21.457   5.105  0.00  0.00    +0.085 A 
ATOM     14  N   LIG    1       25.073 -20.638   4.408  0.00  0.00    -0.214 NA
ATOM     15  C   LIG    1       24.514 -19.563   3.843  0.00  0.00    +0.213 A 
ATOM     16  N   LIG    1       23.222 -19.237   3.928  0.00  0.00    -0.223 NA
ATOM     17  C   LIG    1       22.436 -20.078   4.616  0.00  0.00    +0.116 A 
ATOM     18  C   LIG    1       22.909 -21.204   5.240  0.00  0.00    +0.049 A 
BRANCH  15  19
ATOM     19  N   LIG    1       25.336 -18.690   3.167  0.00  0.00    -0.328 N 
ATOM     20  H   LIG    1       26.293 -18.795   3.470  0.00  0.00    +0.145 HD
ATOM     21  H   LIG    1       24.936 -17.761   3.180  0.00  0.00    +0.145 HD
ENDBRANCH  15  19
ENDBRANCH  10  13
BRANCH   8  23
ATOM     22  C   LIG    1       24.204 -27.216   5.865  0.00  0.00    +0.018 C 
ATOM     23  C   LIG    1       25.580 -26.543   6.071  0.00  0.00    +0.011 C 
ATOM     24  C   LIG    1       26.498 -27.000   4.922  0.00  0.00    +0.018 C 
ATOM     25  C   LIG    1       26.167 -27.040   7.405  0.00  0.00    +0.018 C 
ENDBRANCH   8  23
ENDBRANCH   1  11
BRANCH   4  26
ATOM     26  N   LIG    1       30.119 -20.531   7.677  0.00  0.00    -0.213 N 
ATOM     27  H   LIG    1       30.683 -20.874   8.459  0.00  0.00    +0.174 HD
BRANCH  26  28
ATOM     28  S   LIG    1       30.682 -18.987   7.215  0.00  0.00    +0.078 S 
ATOM     29  O   LIG    1       29.666 -18.327   6.432  0.00  0.00    -0.150 OA
ATOM     30  O   LIG    1       32.001 -19.201   6.641  0.00  0.00    -0.150 OA
BRANCH  28  31
ATOM     31  C   LIG    1       30.878 -18.140   8.739  0.00  0.00    +0.178 A 
ATOM     32  C   LIG    1       30.179 -16.963   8.985  0.00  0.00    +0.153 A 
ATOM     33  F   LIG    1       29.343 -16.437   8.082  0.00  0.00    -0.203 F 
ATOM     34  C   LIG    1       30.348 -16.274  10.187  0.00  0.00    +0.040 A 
ATOM     35  C   LIG    1       31.215 -16.770  11.157  0.00  0.00    +0.006 A 
ATOM     36  C   LIG    1       31.901 -17.961  10.923  0.00  0.00    +0.040 A 
ATOM     37  C   LIG    1       31.721 -18.643   9.720  0.00  0.00    +0.153 A 
ATOM     38  F   LIG    1       32.416 -19.774   9.535  0.00  0.00    -0.203 F 
ENDBRANCH  28  31
ENDBRANCH  26  28
ENDBRANCH   4  26
TORSDOF 7
ENDMDL
MODEL 8
REMARK VINA RESULT:      -7.6      3.850      7.827
REMARK  Name = *****
REMARK                            x       y       z     vdW  Elec       q    Type
REMARK                         _______ _______ _______ _____ _____    ______ ____
ROOT
ATOM      1  C   LIG    1       25.533 -29.518   8.859  0.00  0.00    +0.039 A 
ATOM      2  C   LIG    1       24.475 -30.116   9.561  0.00  0.00    +0.155 A 
ATOM      3  F   LIG    1       23.210 -30.041   9.108  0.00  0.00    -0.203 F 
ATOM      4  C   LIG    1       24.685 -30.802  10.765  0.00  0.00    +0.084 A 
ATOM      5  C   LIG    1       25.970 -30.917  11.289  0.00  0.00    +0.027 A 
ATOM      6  C   LIG    1       27.035 -30.326  10.615  0.00  0.00    +0.003 A 
ATOM      7  C   LIG    1       26.813 -29.610   9.430  0.00  0.00    +0.013 A 
ENDROOT
BRANCH   1  11
ATOM      8  C   LIG    1       24.982 -26.915   6.411  0.00  0.00    +0.085 A 
ATOM      9  S   LIG    1       24.661 -28.107   5.231  0.00  0.00    -0.069 S 
ATOM     10  C   LIG    1       24.972 -29.383   6.357  0.00  0.00    +0.065 A 
ATOM     11  C   LIG    1       25.272 -28.812   7.596  0.00  0.00    +0.090 A 
ATOM     12  N   LIG    1       25.320 -27.407   7.585  0.00  0.00    -0.243 NA
BRANCH  10  13
ATOM     13  C   LIG    1       24.822 -30.762   5.859  0.00  0.00    +0.085 A 
ATOM     14  N   LIG    1       25.793 -31.200   5.035  0.00  0.00    -0.214 NA
ATOM     15  C   LIG    1       25.696 -32.457   4.593  0.00  0.00    +0.213 A 
ATOM     16  N   LIG    1       24.707 -33.301   4.894  0.00  0.00    -0.223 NA
ATOM     17  C   LIG    1       23.761 -32.843   5.727  0.00  0.00    +0.116 A 
ATOM     18  C   LIG    1       23.763 -31.569   6.233  0.00  0.00    +0.049 A 
BRANCH  15  19
ATOM     19  N   LIG    1       26.655 -32.906   3.712  0.00  0.00    -0.328 N 
ATOM     20  H   LIG    1       27.251 -33.590   4.155  0.00  0.00    +0.145 HD
ATOM     21  H   LIG    1       27.097 -32.121   3.255  0.00  0.00    +0.145 HD
ENDBRANCH  15  19
ENDBRANCH  10  13
BRANCH   8  23
ATOM     22  C   LIG    1       23.568 -24.782   6.476  0.00  0.00    +0.018 C 
ATOM     23  C   LIG    1       24.912 -25.424   6.066  0.00  0.00    +0.011 C 
ATOM     24  C   LIG    1       26.032 -24.664   6.798  0.00  0.00    +0.018 C 
ATOM     25  C   LIG    1       25.094 -25.238   4.548  0.00  0.00    +0.018 C 
ENDBRANCH   8  23
ENDBRANCH   1  11
BRANCH   4  26
ATOM     26  N   LIG    1       23.570 -31.315  11.510  0.00  0.00    -0.213 N 
ATOM     27  H   LIG    1       22.846 -31.743  10.926  0.00  0.00    +0.174 HD
BRANCH  26  28
ATOM     28  S   LIG    1       22.836 -30.241  12.616  0.00  0.00    +0.078 S 
ATOM     29  O   LIG    1       21.875 -30.964  13.410  0.00  0.00    -0.150 OA
ATOM     30  O   LIG    1       22.399 -29.098  11.829  0.00  0.00    -0.150 OA
BRANCH  28  31
ATOM     31  C   LIG    1       24.163 -29.725  13.641  0.00  0.00    +0.178 A 
ATOM     32  C   LIG    1       24.654 -28.426  13.556  0.00  0.00    +0.153 A 
ATOM     33  F   LIG    1       24.143 -27.533  12.701  0.00  0.00    -0.203 F 
ATOM     34  C   LIG    1       25.724 -28.018  14.354  0.00  0.00    +0.040 A 
ATOM     35  C   LIG    1       26.302 -28.910  15.253  0.00  0.00    +0.006 A 
ATOM     36  C   LIG    1       25.798 -30.206  15.356  0.00  0.00    +0.040 A 
ATOM     37  C   LIG    1       24.726 -30.602  14.558  0.00  0.00    +0.153 A 
ATOM     38  F   LIG    1       24.290 -31.863  14.681  0.00  0.00    -0.203 F 
ENDBRANCH  28  31
ENDBRANCH  26  28
ENDBRANCH   4  26
TORSDOF 7
ENDMDL
MODEL 9
REMARK VINA RESULT:      -7.3      5.446      9.319
REMARK  Name = *****
REMARK                            x       y       z     vdW  Elec       q    Type
REMARK                         _______ _______ _______ _____ _____    ______ ____
ROOT
ATOM      1  C   LIG    1       27.185 -21.046   6.293  0.00  0.00    +0.039 A 
ATOM      2  C   LIG    1       27.983 -21.047   7.448  0.00  0.00    +0.155 A 
ATOM      3  F   LIG    1       27.809 -21.970   8.412  0.00  0.00    -0.203 F 
ATOM      4  C   LIG    1       28.983 -20.086   7.653  0.00  0.00    +0.084 A 
ATOM      5  C   LIG    1       29.214 -19.104   6.694  0.00  0.00    +0.027 A 
ATOM      6  C   LIG    1       28.431 -19.076   5.544  0.00  0.00    +0.003 A 
ATOM      7  C   LIG    1       27.409 -20.020   5.362  0.00  0.00    +0.013 A 
ENDROOT
BRANCH   1  11
ATOM      8  C   LIG    1       25.470 -24.225   6.150  0.00  0.00    +0.085 A 
ATOM      9  S   LIG    1       24.087 -23.440   5.526  0.00  0.00    -0.069 S 
ATOM     10  C   LIG    1       24.853 -21.892   5.632  0.00  0.00    +0.065 A 
ATOM     11  C   LIG    1       26.151 -22.076   6.112  0.00  0.00    +0.090 A 
ATOM     12  N   LIG    1       26.458 -23.406   6.446  0.00  0.00    -0.243 NA
BRANCH  10  13
ATOM     13  C   LIG    1       24.070 -20.730   5.175  0.00  0.00    +0.085 A 
ATOM     14  N   LIG    1       24.738 -19.819   4.443  0.00  0.00    -0.214 NA
ATOM     15  C   LIG    1       24.043 -18.770   3.993  0.00  0.00    +0.213 A 
ATOM     16  N   LIG    1       22.746 -18.554   4.223  0.00  0.00    -0.223 NA
ATOM     17  C   LIG    1       22.103 -19.484   4.944  0.00  0.00    +0.116 A 
ATOM     18  C   LIG    1       22.722 -20.594   5.458  0.00  0.00    +0.049 A 
BRANCH  15  19
ATOM     19  N   LIG    1       24.721 -17.805   3.282  0.00  0.00    -0.328 N 
ATOM     20  H   LIG    1       24.289 -16.901   3.409  0.00  0.00    +0.145 HD
ATOM     21  H   LIG    1       24.880 -18.122   2.336  0.00  0.00    +0.145 HD
ENDBRANCH  15  19
ENDBRANCH  10  13
BRANCH   8  23
ATOM     22  C   LIG    1       26.415 -26.475   5.376  0.00  0.00    +0.018 C 
ATOM     23  C   LIG    1       25.484 -25.742   6.368  0.00  0.00    +0.011 C 
ATOM     24  C   LIG    1       25.977 -26.061   7.791  0.00  0.00    +0.018 C 
ATOM     25  C   LIG    1       24.059 -26.300   6.197  0.00  0.00    +0.018 C 
ENDBRANCH   8  23
ENDBRANCH   1  11
BRANCH   4  26
ATOM     26  N   LIG    1       29.712 -20.053   8.889  0.00  0.00    -0.213 N 
ATOM     27  H   LIG    1       29.316 -19.416   9.585  0.00  0.00    +0.174 HD
BRANCH  26  28
ATOM     28  S   LIG    1       31.394 -19.782   8.773  0.00  0.00    +0.078 S 
ATOM     29  O   LIG    1       31.751 -19.612   7.387  0.00  0.00    -0.150 OA
ATOM     30  O   LIG    1       32.021 -20.840   9.549  0.00  0.00    -0.150 OA
BRANCH  28  31
ATOM     31  C   LIG    1       31.632 -18.264   9.622  0.00  0.00    +0.178 A 
ATOM     32  C   LIG    1       32.310 -17.215   9.011  0.00  0.00    +0.153 A 
ATOM     33  F   LIG    1       32.802 -17.320   7.771  0.00  0.00    -0.203 F 
ATOM     34  C   LIG    1       32.520 -16.015   9.691  0.00  0.00    +0.040 A 
ATOM     35  C   LIG    1       32.041 -15.855  10.988  0.00  0.00    +0.006 A 
ATOM     36  C   LIG    1       31.342 -16.897  11.596  0.00  0.00    +0.040 A 
ATOM     37  C   LIG    1       31.133 -18.091  10.906  0.00  0.00    +0.153 A 
ATOM     38  F   LIG    1       30.471 -19.068  11.540  0.00  0.00    -0.203 F 
ENDBRANCH  28  31
ENDBRANCH  26  28
ENDBRANCH   4  26
TORSDOF 7
ENDMDL
