MODEL 1
REMARK VINA RESULT:       5.9      0.000      0.000
REMARK  Name = *****
REMARK                            x       y       z     vdW  Elec       q    Type
REMARK                         _______ _______ _______ _____ _____    ______ ____
ROOT
ATOM      1  C   LIG    1       22.663 -18.291   4.430  0.00  0.00    +0.145 C 
ATOM      2  C   LIG    1       23.886 -17.866   4.012  0.00  0.00    +0.076 C 
ATOM      3  S   LIG    1       24.237 -16.166   3.704  0.00  0.00    -0.107 S 
ATOM      4  C   LIG    1       25.912 -16.376   2.994  0.00  0.00    +0.093 C 
ATOM      5  C   LIG    1       26.512 -17.661   3.562  0.00  0.00    +0.094 C 
ATOM      6  S   LIG    1       25.218 -18.931   3.612  0.00  0.00    -0.114 S 
ENDROOT
BRANCH   4   7
ATOM      7  C   LIG    1       26.788 -15.162   3.271  0.00  0.00    -0.015 A 
ATOM      8  C   LIG    1       27.918 -15.211   4.110  0.00  0.00    +0.047 A 
ATOM      9 CL   LIG    1       28.410 -16.661   4.913  0.00  0.00    -0.083 Cl
ATOM     10  C   LIG    1       28.694 -14.069   4.341  0.00  0.00    +0.040 A 
ATOM     11  C   LIG    1       28.351 -12.861   3.742  0.00  0.00    +0.042 A 
ATOM     12 CL   LIG    1       29.303 -11.459   4.031  0.00  0.00    -0.084 Cl
ATOM     13  C   LIG    1       27.240 -12.781   2.911  0.00  0.00    +0.020 A 
ATOM     14  C   LIG    1       26.469 -13.920   2.677  0.00  0.00    +0.007 A 
ENDBRANCH   4   7
BRANCH   1  15
ATOM     15  N   LIG    1       22.334 -19.607   4.833  0.00  0.00    -0.296 N 
ATOM     16  C   LIG    1       22.934 -20.398   5.802  0.00  0.00    +0.204 A 
ATOM     17  N   LIG    1       22.366 -21.572   5.947  0.00  0.00    -0.244 NA
ATOM     18  C   LIG    1       21.320 -21.568   5.072  0.00  0.00    +0.130 A 
ATOM     19  C   LIG    1       21.256 -20.371   4.406  0.00  0.00    +0.113 A 
ENDBRANCH   1  15
BRANCH   1  21
ATOM     20  N   LIG    1       20.745 -16.599   4.496  0.00  0.00    -0.189 NA
ATOM     21  C   LIG    1       21.609 -17.361   4.466  0.00  0.00    +0.119 C 
ENDBRANCH   1  21
TORSDOF 3
ENDMDL
MODEL 2
REMARK VINA RESULT:       7.5      4.057      7.867
REMARK  Name = *****
REMARK                            x       y       z     vdW  Elec       q    Type
REMARK                         _______ _______ _______ _____ _____    ______ ____
ROOT
ATOM      1  C   LIG    1       27.667 -15.521   4.307  0.00  0.00    +0.145 C 
ATOM      2  C   LIG    1       26.399 -15.894   3.986  0.00  0.00    +0.076 C 
ATOM      3  S   LIG    1       25.900 -17.583   3.927  0.00  0.00    -0.107 S 
ATOM      4  C   LIG    1       24.221 -17.330   3.240  0.00  0.00    +0.093 C 
ATOM      5  C   LIG    1       23.750 -15.933   3.640  0.00  0.00    +0.094 C 
ATOM      6  S   LIG    1       25.142 -14.783   3.478  0.00  0.00    -0.114 S 
ENDROOT
BRANCH   4   7
ATOM      7  C   LIG    1       23.261 -18.416   3.706  0.00  0.00    -0.015 A 
ATOM      8  C   LIG    1       23.694 -19.684   4.137  0.00  0.00    +0.047 A 
ATOM      9 CL   LIG    1       25.364 -20.130   4.165  0.00  0.00    -0.083 Cl
ATOM     10  C   LIG    1       22.776 -20.655   4.554  0.00  0.00    +0.040 A 
ATOM     11  C   LIG    1       21.413 -20.376   4.543  0.00  0.00    +0.042 A 
ATOM     12 CL   LIG    1       20.287 -21.572   5.051  0.00  0.00    -0.084 Cl
ATOM     13  C   LIG    1       20.955 -19.134   4.121  0.00  0.00    +0.020 A 
ATOM     14  C   LIG    1       21.870 -18.164   3.710  0.00  0.00    +0.007 A 
ENDBRANCH   4   7
BRANCH   1  15
ATOM     15  N   LIG    1       28.117 -14.195   4.514  0.00  0.00    -0.296 N 
ATOM     16  C   LIG    1       28.854 -13.382   3.666  0.00  0.00    +0.204 A 
ATOM     17  N   LIG    1       29.088 -12.188   4.157  0.00  0.00    -0.244 NA
ATOM     18  C   LIG    1       28.457 -12.173   5.366  0.00  0.00    +0.130 A 
ATOM     19  C   LIG    1       27.829 -13.371   5.594  0.00  0.00    +0.113 A 
ENDBRANCH   1  15
BRANCH   1  21
ATOM     20  N   LIG    1       29.443 -17.345   4.555  0.00  0.00    -0.189 NA
ATOM     21  C   LIG    1       28.644 -16.523   4.443  0.00  0.00    +0.119 C 
ENDBRANCH   1  21
TORSDOF 3
ENDMDL
MODEL 3
REMARK VINA RESULT:       7.9      2.208      3.076
REMARK  Name = *****
REMARK                            x       y       z     vdW  Elec       q    Type
REMARK                         _______ _______ _______ _____ _____    ______ ____
ROOT
ATOM      1  C   LIG    1       22.859 -18.394   3.722  0.00  0.00    +0.145 C 
ATOM      2  C   LIG    1       23.310 -17.161   4.079  0.00  0.00    +0.076 C 
ATOM      3  S   LIG    1       25.024 -16.748   4.079  0.00  0.00    -0.107 S 
ATOM      4  C   LIG    1       24.888 -15.092   4.849  0.00  0.00    +0.093 C 
ATOM      5  C   LIG    1       23.499 -14.535   4.536  0.00  0.00    +0.094 C 
ATOM      6  S   LIG    1       22.289 -15.876   4.693  0.00  0.00    -0.114 S 
ENDROOT
BRANCH   4   7
ATOM      7  C   LIG    1       25.998 -14.165   4.372  0.00  0.00    -0.015 A 
ATOM      8  C   LIG    1       25.962 -13.506   3.129  0.00  0.00    +0.047 A 
ATOM      9 CL   LIG    1       24.649 -13.697   2.020  0.00  0.00    -0.083 Cl
ATOM     10  C   LIG    1       27.008 -12.666   2.728  0.00  0.00    +0.040 A 
ATOM     11  C   LIG    1       28.106 -12.476   3.560  0.00  0.00    +0.042 A 
ATOM     12 CL   LIG    1       29.391 -11.447   3.064  0.00  0.00    -0.084 Cl
ATOM     13  C   LIG    1       28.172 -13.115   4.792  0.00  0.00    +0.020 A 
ATOM     14  C   LIG    1       27.128 -13.949   5.194  0.00  0.00    +0.007 A 
ENDBRANCH   4   7
BRANCH   1  15
ATOM     15  N   LIG    1       21.505 -18.769   3.559  0.00  0.00    -0.296 N 
ATOM     16  C   LIG    1       20.839 -19.876   4.064  0.00  0.00    +0.204 A 
ATOM     17  N   LIG    1       19.568 -19.916   3.742  0.00  0.00    -0.244 NA
ATOM     18  C   LIG    1       19.350 -18.779   3.023  0.00  0.00    +0.130 A 
ATOM     19  C   LIG    1       20.504 -18.044   2.925  0.00  0.00    +0.113 A 
ENDBRANCH   1  15
BRANCH   1  21
ATOM     20  N   LIG    1       24.578 -20.243   3.311  0.00  0.00    -0.189 NA
ATOM     21  C   LIG    1       23.804 -19.411   3.496  0.00  0.00    +0.119 C 
ENDBRANCH   1  21
TORSDOF 3
ENDMDL
