MODEL 1
REMARK VINA RESULT:      -3.8      0.000      0.000
REMARK  Name = *****
REMARK                            x       y       z     vdW  Elec       q    Type
REMARK                         _______ _______ _______ _____ _____    ______ ____
ROOT
ATOM      1  C   LIG    1       30.361 -17.635   9.133  0.00  0.00    +0.111 C 
ATOM      2  C   LIG    1       31.785 -18.128   9.175  0.00  0.00    +0.232 C 
ATOM      3  N   LIG    1       32.758 -17.172   9.178  0.00  0.00    -0.198 N 
ATOM      4  H   LIG    1       33.729 -17.467   9.126  0.00  0.00    +0.182 HD
ATOM      5  O   LIG    1       32.060 -19.316   9.263  0.00  0.00    -0.274 OA
ENDROOT
BRANCH   3   6
ATOM      6  O   LIG    1       32.470 -15.834   8.864  0.00  0.00    -0.295 OA
ATOM      7  H   LIG    1       32.258 -15.439   9.731  0.00  0.00    +0.241 HD
ENDBRANCH   3   6
TORSDOF 1
ENDMDL
MODEL 2
REMARK VINA RESULT:      -3.8      3.199      4.019
REMARK  Name = *****
REMARK                            x       y       z     vdW  Elec       q    Type
REMARK                         _______ _______ _______ _____ _____    ______ ____
ROOT
ATOM      1  C   LIG    1       29.664 -20.811   7.899  0.00  0.00    +0.111 C 
ATOM      2  C   LIG    1       31.074 -20.423   8.262  0.00  0.00    +0.232 C 
ATOM      3  N   LIG    1       31.677 -21.165   9.236  0.00  0.00    -0.198 N 
ATOM      4  H   LIG    1       32.597 -20.883   9.562  0.00  0.00    +0.182 HD
ATOM      5  O   LIG    1       31.675 -19.531   7.679  0.00  0.00    -0.274 OA
ENDROOT
BRANCH   3   6
ATOM      6  O   LIG    1       30.939 -22.037  10.052  0.00  0.00    -0.295 OA
ATOM      7  H   LIG    1       30.086 -21.576  10.161  0.00  0.00    +0.241 HD
ENDBRANCH   3   6
TORSDOF 1
ENDMDL
MODEL 3
REMARK VINA RESULT:      -3.8      3.062      3.604
REMARK  Name = *****
REMARK                            x       y       z     vdW  Elec       q    Type
REMARK                         _______ _______ _______ _____ _____    ______ ____
ROOT
ATOM      1  C   LIG    1       31.484 -18.806   9.041  0.00  0.00    +0.111 C 
ATOM      2  C   LIG    1       31.219 -19.854   7.991  0.00  0.00    +0.232 C 
ATOM      3  N   LIG    1       31.477 -21.147   8.345  0.00  0.00    -0.198 N 
ATOM      4  H   LIG    1       31.386 -21.872   7.639  0.00  0.00    +0.182 HD
ATOM      5  O   LIG    1       30.741 -19.578   6.901  0.00  0.00    -0.274 OA
ENDROOT
BRANCH   3   6
ATOM      6  O   LIG    1       32.217 -21.455   9.498  0.00  0.00    -0.295 OA
ATOM      7  H   LIG    1       31.721 -21.010  10.210  0.00  0.00    +0.241 HD
ENDBRANCH   3   6
TORSDOF 1
ENDMDL
MODEL 4
REMARK VINA RESULT:      -3.7      2.667      3.199
REMARK  Name = *****
REMARK                            x       y       z     vdW  Elec       q    Type
REMARK                         _______ _______ _______ _____ _____    ______ ____
ROOT
ATOM      1  C   LIG    1       29.791 -20.417   7.635  0.00  0.00    +0.111 C 
ATOM      2  C   LIG    1       30.691 -19.286   7.205  0.00  0.00    +0.232 C 
ATOM      3  N   LIG    1       31.849 -19.130   7.911  0.00  0.00    -0.198 N 
ATOM      4  H   LIG    1       32.442 -18.332   7.702  0.00  0.00    +0.182 HD
ATOM      5  O   LIG    1       30.435 -18.580   6.241  0.00  0.00    -0.274 OA
ENDROOT
BRANCH   3   6
ATOM      6  O   LIG    1       32.052 -19.786   9.136  0.00  0.00    -0.295 OA
ATOM      7  H   LIG    1       31.323 -19.452   9.693  0.00  0.00    +0.241 HD
ENDBRANCH   3   6
TORSDOF 1
ENDMDL
MODEL 5
REMARK VINA RESULT:      -3.6      3.259      3.508
REMARK  Name = *****
REMARK                            x       y       z     vdW  Elec       q    Type
REMARK                         _______ _______ _______ _____ _____    ______ ____
ROOT
ATOM      1  C   LIG    1       29.720 -21.289   8.083  0.00  0.00    +0.111 C 
ATOM      2  C   LIG    1       30.876 -21.316   9.050  0.00  0.00    +0.232 C 
ATOM      3  N   LIG    1       31.802 -20.323   8.916  0.00  0.00    -0.198 N 
ATOM      4  H   LIG    1       32.635 -20.353   9.498  0.00  0.00    +0.182 HD
ATOM      5  O   LIG    1       30.957 -22.144   9.946  0.00  0.00    -0.274 OA
ENDROOT
BRANCH   3   6
ATOM      6  O   LIG    1       31.838 -19.505   7.775  0.00  0.00    -0.295 OA
ATOM      7  H   LIG    1       32.568 -18.886   7.964  0.00  0.00    +0.241 HD
ENDBRANCH   3   6
TORSDOF 1
ENDMDL
MODEL 6
REMARK VINA RESULT:      -3.6      2.835      3.629
REMARK  Name = *****
REMARK                            x       y       z     vdW  Elec       q    Type
REMARK                         _______ _______ _______ _____ _____    ______ ____
ROOT
ATOM      1  C   LIG    1       30.156 -18.692   8.193  0.00  0.00    +0.111 C 
ATOM      2  C   LIG    1       31.098 -19.802   8.582  0.00  0.00    +0.232 C 
ATOM      3  N   LIG    1       30.842 -21.031   8.047  0.00  0.00    -0.198 N 
ATOM      4  H   LIG    1       31.407 -21.820   8.348  0.00  0.00    +0.182 HD
ATOM      5  O   LIG    1       32.076 -19.609   9.290  0.00  0.00    -0.274 OA
ENDROOT
BRANCH   3   6
ATOM      6  O   LIG    1       29.619 -21.313   7.416  0.00  0.00    -0.295 OA
ATOM      7  H   LIG    1       29.628 -20.727   6.636  0.00  0.00    +0.241 HD
ENDBRANCH   3   6
TORSDOF 1
ENDMDL
MODEL 7
REMARK VINA RESULT:      -3.5     10.503     10.876
REMARK  Name = *****
REMARK                            x       y       z     vdW  Elec       q    Type
REMARK                         _______ _______ _______ _____ _____    ______ ____
ROOT
ATOM      1  C   LIG    1       25.753 -24.168   6.899  0.00  0.00    +0.111 C 
ATOM      2  C   LIG    1       25.253 -25.121   5.845  0.00  0.00    +0.232 C 
ATOM      3  N   LIG    1       23.907 -25.124   5.618  0.00  0.00    -0.198 N 
ATOM      4  H   LIG    1       23.524 -25.809   4.972  0.00  0.00    +0.182 HD
ATOM      5  O   LIG    1       26.010 -25.815   5.181  0.00  0.00    -0.274 OA
ENDROOT
BRANCH   3   6
ATOM      6  O   LIG    1       23.015 -24.501   6.506  0.00  0.00    -0.295 OA
ATOM      7  H   LIG    1       23.339 -24.781   7.384  0.00  0.00    +0.241 HD
ENDBRANCH   3   6
TORSDOF 1
ENDMDL
MODEL 8
REMARK VINA RESULT:      -3.5     10.713     11.054
REMARK  Name = *****
REMARK                            x       y       z     vdW  Elec       q    Type
REMARK                         _______ _______ _______ _____ _____    ______ ____
ROOT
ATOM      1  C   LIG    1       23.263 -24.066   6.755  0.00  0.00    +0.111 C 
ATOM      2  C   LIG    1       24.019 -25.104   5.966  0.00  0.00    +0.232 C 
ATOM      3  N   LIG    1       24.831 -24.639   4.972  0.00  0.00    -0.198 N 
ATOM      4  H   LIG    1       25.295 -25.311   4.369  0.00  0.00    +0.182 HD
ATOM      5  O   LIG    1       23.961 -26.295   6.233  0.00  0.00    -0.274 OA
ENDROOT
BRANCH   3   6
ATOM      6  O   LIG    1       24.745 -23.312   4.519  0.00  0.00    -0.295 OA
ATOM      7  H   LIG    1       24.540 -22.810   5.330  0.00  0.00    +0.241 HD
ENDBRANCH   3   6
TORSDOF 1
ENDMDL
MODEL 9
REMARK VINA RESULT:      -3.4      2.035      2.361
REMARK  Name = *****
REMARK                            x       y       z     vdW  Elec       q    Type
REMARK                         _______ _______ _______ _____ _____    ______ ____
ROOT
ATOM      1  C   LIG    1       31.988 -16.760   9.282  0.00  0.00    +0.111 C 
ATOM      2  C   LIG    1       31.734 -18.178   8.839  0.00  0.00    +0.232 C 
ATOM      3  N   LIG    1       31.055 -18.975   9.715  0.00  0.00    -0.198 N 
ATOM      4  H   LIG    1       30.935 -19.958   9.485  0.00  0.00    +0.182 HD
ATOM      5  O   LIG    1       32.062 -18.584   7.734  0.00  0.00    -0.274 OA
ENDROOT
BRANCH   3   6
ATOM      6  O   LIG    1       30.865 -18.595  11.053  0.00  0.00    -0.295 OA
ATOM      7  H   LIG    1       30.845 -19.447  11.529  0.00  0.00    +0.241 HD
ENDBRANCH   3   6
TORSDOF 1
ENDMDL
