MODEL 1
REMARK VINA RESULT:      -4.9      0.000      0.000
REMARK  Name = *****
REMARK                            x       y       z     vdW  Elec       q    Type
REMARK                         _______ _______ _______ _____ _____    ______ ____
ROOT
ATOM      1  C   LIG    1       23.226 -30.236  11.097  0.00  0.00    +0.065 C 
ATOM      2  C   LIG    1       24.713 -30.324  10.671  0.00  0.00    +0.097 C 
ATOM      3  C   LIG    1       25.617 -29.276  11.353  0.00  0.00    +0.065 C 
ATOM      4  C   LIG    1       25.090 -28.372  12.218  0.00  0.00    +0.016 C 
ATOM      5  C   LIG    1       25.864 -27.350  13.019  0.00  0.00    +0.061 C 
ATOM      6  N   LIG    1       23.736 -28.379  12.476  0.00  0.00    -0.321 N 
ATOM      7  H   LIG    1       23.391 -27.705  13.156  0.00  0.00    +0.152 HD
ATOM      8  C   LIG    1       22.826 -29.294  11.988  0.00  0.00    +0.016 C 
ATOM      9  C   LIG    1       21.444 -29.134  12.584  0.00  0.00    +0.061 C 
ENDROOT
BRANCH   2  10
ATOM     10  C   LIG    1       24.906 -30.402   9.142  0.00  0.00    -0.015 A 
ATOM     11  C   LIG    1       25.687 -31.364   8.468  0.00  0.00    +0.063 A 
ATOM     12 CL   LIG    1       26.479 -32.632   9.347  0.00  0.00    -0.082 Cl
ATOM     13  C   LIG    1       25.827 -31.302   7.065  0.00  0.00    +0.059 A 
ATOM     14 CL   LIG    1       26.796 -32.428   6.171  0.00  0.00    -0.082 Cl
ATOM     15  C   LIG    1       25.188 -30.303   6.325  0.00  0.00    +0.021 A 
ATOM     16  C   LIG    1       24.403 -29.359   6.972  0.00  0.00    +0.002 A 
ATOM     17  C   LIG    1       24.269 -29.408   8.360  0.00  0.00    +0.006 A 
ENDBRANCH   2  10
BRANCH   1  18
ATOM     18  C   LIG    1       22.321 -31.292  10.547  0.00  0.00    +0.338 C 
ATOM     19  O   LIG    1       21.323 -31.056   9.895  0.00  0.00    -0.245 OA
BRANCH  18  20
ATOM     20  O   LIG    1       22.760 -32.533  10.886  0.00  0.00    -0.462 OA
BRANCH  20  22
ATOM     21  C   LIG    1       23.047 -33.825   8.832  0.00  0.00    +0.048 C 
ATOM     22  C   LIG    1       22.269 -33.647  10.127  0.00  0.00    +0.229 C 
ENDBRANCH  20  22
ENDBRANCH  18  20
ENDBRANCH   1  18
BRANCH   3  23
ATOM     23  C   LIG    1       27.084 -29.425  11.142  0.00  0.00    +0.337 C 
ATOM     24  O   LIG    1       27.677 -28.963  10.176  0.00  0.00    -0.245 OA
BRANCH  23  25
ATOM     25  O   LIG    1       27.648 -30.204  12.094  0.00  0.00    -0.465 OA
ATOM     26  C   LIG    1       28.737 -29.611  12.800  0.00  0.00    +0.280 C 
ENDBRANCH  23  25
ENDBRANCH   3  23
TORSDOF 6
ENDMDL
MODEL 2
REMARK VINA RESULT:      -4.8      1.913      5.008
REMARK  Name = *****
REMARK                            x       y       z     vdW  Elec       q    Type
REMARK                         _______ _______ _______ _____ _____    ______ ____
ROOT
ATOM      1  C   LIG    1       25.929 -30.489  11.464  0.00  0.00    +0.065 C 
ATOM      2  C   LIG    1       24.883 -30.841  10.376  0.00  0.00    +0.097 C 
ATOM      3  C   LIG    1       23.725 -31.721  10.890  0.00  0.00    +0.065 C 
ATOM      4  C   LIG    1       23.697 -32.136  12.182  0.00  0.00    +0.016 C 
ATOM      5  C   LIG    1       22.589 -32.925  12.840  0.00  0.00    +0.061 C 
ATOM      6  N   LIG    1       24.719 -31.783  13.037  0.00  0.00    -0.321 N 
ATOM      7  H   LIG    1       24.641 -32.089  14.004  0.00  0.00    +0.152 HD
ATOM      8  C   LIG    1       25.778 -30.953  12.731  0.00  0.00    +0.016 C 
ATOM      9  C   LIG    1       26.643 -30.627  13.928  0.00  0.00    +0.061 C 
ENDROOT
BRANCH   2  10
ATOM     10  C   LIG    1       25.516 -31.358   9.066  0.00  0.00    -0.015 A 
ATOM     11  C   LIG    1       25.294 -30.812   7.785  0.00  0.00    +0.063 A 
ATOM     12 CL   LIG    1       24.291 -29.411   7.582  0.00  0.00    -0.082 Cl
ATOM     13  C   LIG    1       25.893 -31.405   6.653  0.00  0.00    +0.059 A 
ATOM     14 CL   LIG    1       25.640 -30.812   5.043  0.00  0.00    -0.082 Cl
ATOM     15  C   LIG    1       26.720 -32.524   6.783  0.00  0.00    +0.021 A 
ATOM     16  C   LIG    1       26.961 -33.062   8.039  0.00  0.00    +0.002 A 
ATOM     17  C   LIG    1       26.364 -32.488   9.162  0.00  0.00    +0.006 A 
ENDBRANCH   2  10
BRANCH   1  18
ATOM     18  C   LIG    1       27.020 -29.554  11.050  0.00  0.00    +0.338 C 
ATOM     19  O   LIG    1       28.160 -29.903  10.819  0.00  0.00    -0.245 OA
BRANCH  18  20
ATOM     20  O   LIG    1       26.564 -28.275  10.983  0.00  0.00    -0.462 OA
BRANCH  20  22
ATOM     21  C   LIG    1       25.750 -27.075  12.949  0.00  0.00    +0.048 C 
ATOM     22  C   LIG    1       26.931 -27.378  12.040  0.00  0.00    +0.229 C 
ENDBRANCH  20  22
ENDBRANCH  18  20
ENDBRANCH   1  18
BRANCH   3  23
ATOM     23  C   LIG    1       22.587 -31.935   9.953  0.00  0.00    +0.337 C 
ATOM     24  O   LIG    1       22.414 -32.973   9.327  0.00  0.00    -0.245 OA
BRANCH  23  25
ATOM     25  O   LIG    1       21.837 -30.818   9.817  0.00  0.00    -0.465 OA
ATOM     26  C   LIG    1       20.593 -30.829  10.517  0.00  0.00    +0.280 C 
ENDBRANCH  23  25
ENDBRANCH   3  23
TORSDOF 6
ENDMDL
MODEL 3
REMARK VINA RESULT:      -4.8      3.066      6.005
REMARK  Name = *****
REMARK                            x       y       z     vdW  Elec       q    Type
REMARK                         _______ _______ _______ _____ _____    ______ ____
ROOT
ATOM      1  C   LIG    1       25.225 -29.405   6.977  0.00  0.00    +0.065 C 
ATOM      2  C   LIG    1       25.638 -30.305   8.170  0.00  0.00    +0.097 C 
ATOM      3  C   LIG    1       25.638 -31.812   7.839  0.00  0.00    +0.065 C 
ATOM      4  C   LIG    1       25.276 -32.245   6.604  0.00  0.00    +0.016 C 
ATOM      5  C   LIG    1       25.311 -33.675   6.116  0.00  0.00    +0.061 C 
ATOM      6  N   LIG    1       24.889 -31.335   5.645  0.00  0.00    -0.321 N 
ATOM      7  H   LIG    1       24.657 -31.701   4.725  0.00  0.00    +0.152 HD
ATOM      8  C   LIG    1       24.901 -29.961   5.782  0.00  0.00    +0.016 C 
ATOM      9  C   LIG    1       24.576 -29.232   4.498  0.00  0.00    +0.061 C 
ENDROOT
BRANCH   2  10
ATOM     10  C   LIG    1       24.895 -29.962   9.478  0.00  0.00    -0.015 A 
ATOM     11  C   LIG    1       25.487 -29.395  10.626  0.00  0.00    +0.063 A 
ATOM     12 CL   LIG    1       27.167 -28.964  10.631  0.00  0.00    -0.082 Cl
ATOM     13  C   LIG    1       24.711 -29.172  11.783  0.00  0.00    +0.059 A 
ATOM     14 CL   LIG    1       25.376 -28.511  13.242  0.00  0.00    -0.082 Cl
ATOM     15  C   LIG    1       23.351 -29.492  11.806  0.00  0.00    +0.021 A 
ATOM     16  C   LIG    1       22.750 -30.035  10.679  0.00  0.00    +0.002 A 
ATOM     17  C   LIG    1       23.513 -30.269   9.535  0.00  0.00    +0.006 A 
ENDBRANCH   2  10
BRANCH   1  18
ATOM     18  C   LIG    1       25.305 -27.929   7.208  0.00  0.00    +0.338 C 
ATOM     19  O   LIG    1       26.235 -27.381   7.764  0.00  0.00    -0.245 OA
BRANCH  18  20
ATOM     20  O   LIG    1       24.200 -27.302   6.725  0.00  0.00    -0.462 OA
BRANCH  20  22
ATOM     21  C   LIG    1       23.817 -24.905   6.456  0.00  0.00    +0.048 C 
ATOM     22  C   LIG    1       24.396 -26.177   5.857  0.00  0.00    +0.229 C 
ENDBRANCH  20  22
ENDBRANCH  18  20
ENDBRANCH   1  18
BRANCH   3  23
ATOM     23  C   LIG    1       26.209 -32.719   8.873  0.00  0.00    +0.337 C 
ATOM     24  O   LIG    1       27.410 -32.847   9.070  0.00  0.00    -0.245 OA
BRANCH  23  25
ATOM     25  O   LIG    1       25.244 -33.439   9.491  0.00  0.00    -0.465 OA
ATOM     26  C   LIG    1       25.226 -33.339  10.915  0.00  0.00    +0.280 C 
ENDBRANCH  23  25
ENDBRANCH   3  23
TORSDOF 6
ENDMDL
MODEL 4
REMARK VINA RESULT:      -4.7      3.117      5.484
REMARK  Name = *****
REMARK                            x       y       z     vdW  Elec       q    Type
REMARK                         _______ _______ _______ _____ _____    ______ ____
ROOT
ATOM      1  C   LIG    1       23.296 -29.360  11.957  0.00  0.00    +0.065 C 
ATOM      2  C   LIG    1       24.770 -29.121  11.539  0.00  0.00    +0.097 C 
ATOM      3  C   LIG    1       25.147 -29.777  10.195  0.00  0.00    +0.065 C 
ATOM      4  C   LIG    1       24.233 -30.506   9.504  0.00  0.00    +0.016 C 
ATOM      5  C   LIG    1       24.437 -31.130   8.143  0.00  0.00    +0.061 C 
ATOM      6  N   LIG    1       22.964 -30.674  10.015  0.00  0.00    -0.321 N 
ATOM      7  H   LIG    1       22.303 -31.200   9.448  0.00  0.00    +0.152 HD
ATOM      8  C   LIG    1       22.473 -30.095  11.167  0.00  0.00    +0.016 C 
ATOM      9  C   LIG    1       20.995 -30.340  11.373  0.00  0.00    +0.061 C 
ENDROOT
BRANCH   2  10
ATOM     10  C   LIG    1       25.779 -29.408  12.671  0.00  0.00    -0.015 A 
ATOM     11  C   LIG    1       26.656 -28.461  13.239  0.00  0.00    +0.063 A 
ATOM     12 CL   LIG    1       26.621 -26.805  12.725  0.00  0.00    -0.082 Cl
ATOM     13  C   LIG    1       27.571 -28.857  14.238  0.00  0.00    +0.059 A 
ATOM     14 CL   LIG    1       28.702 -27.759  14.959  0.00  0.00    -0.082 Cl
ATOM     15  C   LIG    1       27.613 -30.180  14.687  0.00  0.00    +0.021 A 
ATOM     16  C   LIG    1       26.745 -31.120  14.149  0.00  0.00    +0.002 A 
ATOM     17  C   LIG    1       25.845 -30.738  13.154  0.00  0.00    +0.006 A 
ENDBRANCH   2  10
BRANCH   1  18
ATOM     18  C   LIG    1       22.844 -28.662  13.201  0.00  0.00    +0.338 C 
ATOM     19  O   LIG    1       22.589 -29.232  14.242  0.00  0.00    -0.245 OA
BRANCH  18  20
ATOM     20  O   LIG    1       22.748 -27.322  12.997  0.00  0.00    -0.462 OA
BRANCH  20  22
ATOM     21  C   LIG    1       20.393 -26.672  12.954  0.00  0.00    +0.048 C 
ATOM     22  C   LIG    1       21.718 -26.611  13.698  0.00  0.00    +0.229 C 
ENDBRANCH  20  22
ENDBRANCH  18  20
ENDBRANCH   1  18
BRANCH   3  23
ATOM     23  C   LIG    1       26.484 -29.428   9.638  0.00  0.00    +0.337 C 
ATOM     24  O   LIG    1       27.428 -30.207   9.610  0.00  0.00    -0.245 OA
BRANCH  23  25
ATOM     25  O   LIG    1       26.542 -28.131   9.259  0.00  0.00    -0.465 OA
ATOM     26  C   LIG    1       26.147 -27.870   7.912  0.00  0.00    +0.280 C 
ENDBRANCH  23  25
ENDBRANCH   3  23
TORSDOF 6
ENDMDL
MODEL 5
REMARK VINA RESULT:      -4.6      2.973      5.391
REMARK  Name = *****
REMARK                            x       y       z     vdW  Elec       q    Type
REMARK                         _______ _______ _______ _____ _____    ______ ____
ROOT
ATOM      1  C   LIG    1       24.385 -30.029  10.353  0.00  0.00    +0.065 C 
ATOM      2  C   LIG    1       23.125 -29.919  11.249  0.00  0.00    +0.097 C 
ATOM      3  C   LIG    1       23.300 -28.968  12.451  0.00  0.00    +0.065 C 
ATOM      4  C   LIG    1       24.484 -28.337  12.663  0.00  0.00    +0.016 C 
ATOM      5  C   LIG    1       24.770 -27.320  13.743  0.00  0.00    +0.061 C 
ATOM      6  N   LIG    1       25.541 -28.560  11.807  0.00  0.00    -0.321 N 
ATOM      7  H   LIG    1       26.398 -28.041  11.985  0.00  0.00    +0.152 HD
ATOM      8  C   LIG    1       25.506 -29.330  10.663  0.00  0.00    +0.016 C 
ATOM      9  C   LIG    1       26.779 -29.245   9.850  0.00  0.00    +0.061 C 
ENDROOT
BRANCH   2  10
ATOM     10  C   LIG    1       22.525 -31.289  11.629  0.00  0.00    -0.015 A 
ATOM     11  C   LIG    1       21.206 -31.705  11.351  0.00  0.00    +0.063 A 
ATOM     12 CL   LIG    1       20.125 -30.679  10.464  0.00  0.00    -0.082 Cl
ATOM     13  C   LIG    1       20.756 -32.967  11.794  0.00  0.00    +0.059 A 
ATOM     14 CL   LIG    1       19.140 -33.533  11.521  0.00  0.00    -0.082 Cl
ATOM     15  C   LIG    1       21.608 -33.825  12.496  0.00  0.00    +0.021 A 
ATOM     16  C   LIG    1       22.913 -33.437  12.762  0.00  0.00    +0.002 A 
ATOM     17  C   LIG    1       23.361 -32.186  12.337  0.00  0.00    +0.006 A 
ENDBRANCH   2  10
BRANCH   1  18
ATOM     18  C   LIG    1       24.242 -30.856   9.115  0.00  0.00    +0.338 C 
ATOM     19  O   LIG    1       24.641 -31.998   9.014  0.00  0.00    -0.245 OA
BRANCH  18  20
ATOM     20  O   LIG    1       23.622 -30.153   8.131  0.00  0.00    -0.462 OA
BRANCH  20  22
ATOM     21  C   LIG    1       24.707 -28.393   6.830  0.00  0.00    +0.048 C 
ATOM     22  C   LIG    1       24.368 -29.871   6.938  0.00  0.00    +0.229 C 
ENDBRANCH  20  22
ENDBRANCH  18  20
ENDBRANCH   1  18
BRANCH   3  23
ATOM     23  C   LIG    1       22.075 -28.664  13.241  0.00  0.00    +0.337 C 
ATOM     24  O   LIG    1       21.841 -29.151  14.339  0.00  0.00    -0.245 OA
BRANCH  23  25
ATOM     25  O   LIG    1       21.227 -27.864  12.555  0.00  0.00    -0.465 OA
ATOM     26  C   LIG    1       20.775 -26.707  13.260  0.00  0.00    +0.280 C 
ENDBRANCH  23  25
ENDBRANCH   3  23
TORSDOF 6
ENDMDL
MODEL 6
REMARK VINA RESULT:      -4.5      2.964      5.833
REMARK  Name = *****
REMARK                            x       y       z     vdW  Elec       q    Type
REMARK                         _______ _______ _______ _____ _____    ______ ____
ROOT
ATOM      1  C   LIG    1       22.348 -28.246  13.171  0.00  0.00    +0.065 C 
ATOM      2  C   LIG    1       23.271 -29.045  12.217  0.00  0.00    +0.097 C 
ATOM      3  C   LIG    1       22.515 -30.035  11.306  0.00  0.00    +0.065 C 
ATOM      4  C   LIG    1       21.166 -30.163  11.401  0.00  0.00    +0.016 C 
ATOM      5  C   LIG    1       20.290 -31.024  10.520  0.00  0.00    +0.061 C 
ATOM      6  N   LIG    1       20.470 -29.417  12.327  0.00  0.00    -0.321 N 
ATOM      7  H   LIG    1       19.458 -29.522  12.340  0.00  0.00    +0.152 HD
ATOM      8  C   LIG    1       21.007 -28.454  13.157  0.00  0.00    +0.016 C 
ATOM      9  C   LIG    1       19.961 -27.696  13.943  0.00  0.00    +0.061 C 
ENDROOT
BRANCH   2  10
ATOM     10  C   LIG    1       24.489 -29.671  12.929  0.00  0.00    -0.015 A 
ATOM     11  C   LIG    1       25.839 -29.378  12.641  0.00  0.00    +0.063 A 
ATOM     12 CL   LIG    1       26.250 -28.187  11.449  0.00  0.00    -0.082 Cl
ATOM     13  C   LIG    1       26.869 -30.053  13.329  0.00  0.00    +0.059 A 
ATOM     14 CL   LIG    1       28.550 -29.771  13.008  0.00  0.00    -0.082 Cl
ATOM     15  C   LIG    1       26.572 -31.006  14.308  0.00  0.00    +0.021 A 
ATOM     16  C   LIG    1       25.249 -31.293  14.613  0.00  0.00    +0.002 A 
ATOM     17  C   LIG    1       24.225 -30.637  13.930  0.00  0.00    +0.006 A 
ENDBRANCH   2  10
BRANCH   1  18
ATOM     18  C   LIG    1       23.014 -27.198  14.005  0.00  0.00    +0.338 C 
ATOM     19  O   LIG    1       23.070 -27.233  15.217  0.00  0.00    -0.245 OA
BRANCH  18  20
ATOM     20  O   LIG    1       23.527 -26.210  13.225  0.00  0.00    -0.462 OA
BRANCH  20  22
ATOM     21  C   LIG    1       25.853 -25.492  13.432  0.00  0.00    +0.048 C 
ATOM     22  C   LIG    1       24.407 -25.260  13.841  0.00  0.00    +0.229 C 
ENDBRANCH  20  22
ENDBRANCH  18  20
ENDBRANCH   1  18
BRANCH   3  23
ATOM     23  C   LIG    1       23.311 -30.693  10.233  0.00  0.00    +0.337 C 
ATOM     24  O   LIG    1       23.939 -31.731  10.398  0.00  0.00    -0.245 OA
BRANCH  23  25
ATOM     25  O   LIG    1       23.325 -29.954   9.100  0.00  0.00    -0.465 OA
ATOM     26  C   LIG    1       24.587 -29.876   8.438  0.00  0.00    +0.280 C 
ENDBRANCH  23  25
ENDBRANCH   3  23
TORSDOF 6
ENDMDL
MODEL 7
REMARK VINA RESULT:      -4.4      3.052      5.476
REMARK  Name = *****
REMARK                            x       y       z     vdW  Elec       q    Type
REMARK                         _______ _______ _______ _____ _____    ______ ____
ROOT
ATOM      1  C   LIG    1       24.962 -30.954   7.130  0.00  0.00    +0.065 C 
ATOM      2  C   LIG    1       24.950 -31.131   8.670  0.00  0.00    +0.097 C 
ATOM      3  C   LIG    1       25.976 -32.162   9.184  0.00  0.00    +0.065 C 
ATOM      4  C   LIG    1       26.769 -32.836   8.313  0.00  0.00    +0.016 C 
ATOM      5  C   LIG    1       27.870 -33.806   8.678  0.00  0.00    +0.061 C 
ATOM      6  N   LIG    1       26.645 -32.612   6.959  0.00  0.00    -0.321 N 
ATOM      7  H   LIG    1       27.282 -33.115   6.346  0.00  0.00    +0.152 HD
ATOM      8  C   LIG    1       25.819 -31.678   6.367  0.00  0.00    +0.016 C 
ATOM      9  C   LIG    1       26.031 -31.558   4.874  0.00  0.00    +0.061 C 
ENDROOT
BRANCH   2  10
ATOM     10  C   LIG    1       23.533 -31.329   9.250  0.00  0.00    -0.015 A 
ATOM     11  C   LIG    1       22.710 -32.452   9.021  0.00  0.00    +0.063 A 
ATOM     12 CL   LIG    1       23.280 -33.787   8.072  0.00  0.00    -0.082 Cl
ATOM     13  C   LIG    1       21.410 -32.496   9.568  0.00  0.00    +0.059 A 
ATOM     14 CL   LIG    1       20.328 -33.825   9.303  0.00  0.00    -0.082 Cl
ATOM     15  C   LIG    1       20.926 -31.444  10.352  0.00  0.00    +0.021 A 
ATOM     16  C   LIG    1       21.730 -30.341  10.599  0.00  0.00    +0.002 A 
ATOM     17  C   LIG    1       23.013 -30.285  10.053  0.00  0.00    +0.006 A 
ENDBRANCH   2  10
BRANCH   1  18
ATOM     18  C   LIG    1       24.060 -29.893   6.583  0.00  0.00    +0.338 C 
ATOM     19  O   LIG    1       23.179 -30.106   5.775  0.00  0.00    -0.245 OA
BRANCH  18  20
ATOM     20  O   LIG    1       24.372 -28.676   7.101  0.00  0.00    -0.462 OA
BRANCH  20  22
ATOM     21  C   LIG    1       25.661 -27.820   5.210  0.00  0.00    +0.048 C 
ATOM     22  C   LIG    1       24.522 -27.579   6.189  0.00  0.00    +0.229 C 
ENDBRANCH  20  22
ENDBRANCH  18  20
ENDBRANCH   1  18
BRANCH   3  23
ATOM     23  C   LIG    1       26.155 -32.241  10.661  0.00  0.00    +0.337 C 
ATOM     24  O   LIG    1       26.563 -31.310  11.342  0.00  0.00    -0.245 OA
BRANCH  23  25
ATOM     25  O   LIG    1       25.899 -33.485  11.127  0.00  0.00    -0.465 OA
ATOM     26  C   LIG    1       24.766 -33.593  11.988  0.00  0.00    +0.280 C 
ENDBRANCH  23  25
ENDBRANCH   3  23
TORSDOF 6
ENDMDL
MODEL 8
REMARK VINA RESULT:      -4.4      3.062      5.465
REMARK  Name = *****
REMARK                            x       y       z     vdW  Elec       q    Type
REMARK                         _______ _______ _______ _____ _____    ______ ____
ROOT
ATOM      1  C   LIG    1       25.809 -30.435  10.637  0.00  0.00    +0.065 C 
ATOM      2  C   LIG    1       26.224 -30.141  12.101  0.00  0.00    +0.097 C 
ATOM      3  C   LIG    1       25.881 -31.282  13.083  0.00  0.00    +0.065 C 
ATOM      4  C   LIG    1       25.252 -32.402  12.644  0.00  0.00    +0.016 C 
ATOM      5  C   LIG    1       24.933 -33.626  13.470  0.00  0.00    +0.061 C 
ATOM      6  N   LIG    1       24.900 -32.514  11.316  0.00  0.00    -0.321 N 
ATOM      7  H   LIG    1       24.460 -33.384  11.025  0.00  0.00    +0.152 HD
ATOM      8  C   LIG    1       25.199 -31.605  10.321  0.00  0.00    +0.016 C 
ATOM      9  C   LIG    1       24.822 -32.090   8.939  0.00  0.00    +0.061 C 
ENDROOT
BRANCH   2  10
ATOM     10  C   LIG    1       25.777 -28.749  12.595  0.00  0.00    -0.015 A 
ATOM     11  C   LIG    1       24.439 -28.330  12.748  0.00  0.00    +0.063 A 
ATOM     12 CL   LIG    1       23.130 -29.424  12.435  0.00  0.00    -0.082 Cl
ATOM     13  C   LIG    1       24.155 -27.011  13.161  0.00  0.00    +0.059 A 
ATOM     14 CL   LIG    1       22.537 -26.414  13.340  0.00  0.00    -0.082 Cl
ATOM     15  C   LIG    1       25.188 -26.110  13.438  0.00  0.00    +0.021 A 
ATOM     16  C   LIG    1       26.509 -26.512  13.308  0.00  0.00    +0.002 A 
ATOM     17  C   LIG    1       26.797 -27.811  12.889  0.00  0.00    +0.006 A 
ENDBRANCH   2  10
BRANCH   1  18
ATOM     18  C   LIG    1       26.208 -29.409   9.623  0.00  0.00    +0.338 C 
ATOM     19  O   LIG    1       27.340 -28.990   9.494  0.00  0.00    -0.245 OA
BRANCH  18  20
ATOM     20  O   LIG    1       25.136 -29.012   8.888  0.00  0.00    -0.462 OA
BRANCH  20  22
ATOM     21  C   LIG    1       24.308 -29.171   6.595  0.00  0.00    +0.048 C 
ATOM     22  C   LIG    1       25.368 -28.610   7.530  0.00  0.00    +0.229 C 
ENDBRANCH  20  22
ENDBRANCH  18  20
ENDBRANCH   1  18
BRANCH   3  23
ATOM     23  C   LIG    1       26.423 -31.154  14.464  0.00  0.00    +0.337 C 
ATOM     24  O   LIG    1       25.751 -30.793  15.422  0.00  0.00    -0.245 OA
BRANCH  23  25
ATOM     25  O   LIG    1       27.753 -31.395  14.502  0.00  0.00    -0.465 OA
ATOM     26  C   LIG    1       28.542 -30.370  15.105  0.00  0.00    +0.280 C 
ENDBRANCH  23  25
ENDBRANCH   3  23
TORSDOF 6
ENDMDL
MODEL 9
REMARK VINA RESULT:      -4.3      3.060      5.327
REMARK  Name = *****
REMARK                            x       y       z     vdW  Elec       q    Type
REMARK                         _______ _______ _______ _____ _____    ______ ____
ROOT
ATOM      1  C   LIG    1       23.926 -31.698   7.586  0.00  0.00    +0.065 C 
ATOM      2  C   LIG    1       24.286 -30.245   7.989  0.00  0.00    +0.097 C 
ATOM      3  C   LIG    1       24.878 -29.410   6.834  0.00  0.00    +0.065 C 
ATOM      4  C   LIG    1       25.064 -29.965   5.609  0.00  0.00    +0.016 C 
ATOM      5  C   LIG    1       25.552 -29.247   4.371  0.00  0.00    +0.061 C 
ATOM      6  N   LIG    1       24.739 -31.287   5.399  0.00  0.00    -0.321 N 
ATOM      7  H   LIG    1       24.865 -31.652   4.458  0.00  0.00    +0.152 HD
ATOM      8  C   LIG    1       24.146 -32.129   6.318  0.00  0.00    +0.016 C 
ATOM      9  C   LIG    1       23.765 -33.472   5.736  0.00  0.00    +0.061 C 
ENDROOT
BRANCH   2  10
ATOM     10  C   LIG    1       25.104 -30.158   9.294  0.00  0.00    -0.015 A 
ATOM     11  C   LIG    1       24.568 -29.916  10.576  0.00  0.00    +0.063 A 
ATOM     12 CL   LIG    1       22.856 -29.750  10.800  0.00  0.00    -0.082 Cl
ATOM     13  C   LIG    1       25.426 -29.810  11.691  0.00  0.00    +0.059 A 
ATOM     14 CL   LIG    1       24.845 -29.480  13.291  0.00  0.00    -0.082 Cl
ATOM     15  C   LIG    1       26.809 -29.956  11.547  0.00  0.00    +0.021 A 
ATOM     16  C   LIG    1       27.350 -30.210  10.295  0.00  0.00    +0.002 A 
ATOM     17  C   LIG    1       26.509 -30.306   9.186  0.00  0.00    +0.006 A 
ENDBRANCH   2  10
BRANCH   1  18
ATOM     18  C   LIG    1       23.254 -32.524   8.636  0.00  0.00    +0.338 C 
ATOM     19  O   LIG    1       22.071 -32.450   8.901  0.00  0.00    -0.245 OA
BRANCH  18  20
ATOM     20  O   LIG    1       24.145 -33.346   9.251  0.00  0.00    -0.462 OA
BRANCH  20  22
ATOM     21  C   LIG    1       25.294 -33.534  11.399  0.00  0.00    +0.048 C 
ATOM     22  C   LIG    1       23.970 -33.592  10.653  0.00  0.00    +0.229 C 
ENDBRANCH  20  22
ENDBRANCH  18  20
ENDBRANCH   1  18
BRANCH   3  23
ATOM     23  C   LIG    1       25.064 -27.955   7.094  0.00  0.00    +0.337 C 
ATOM     24  O   LIG    1       26.045 -27.491   7.661  0.00  0.00    -0.245 OA
BRANCH  23  25
ATOM     25  O   LIG    1       23.983 -27.238   6.710  0.00  0.00    -0.465 OA
ATOM     26  C   LIG    1       24.271 -26.017   6.030  0.00  0.00    +0.280 C 
ENDBRANCH  23  25
ENDBRANCH   3  23
TORSDOF 6
ENDMDL
