MODEL 1
REMARK VINA RESULT:      -3.0      0.000      0.000
REMARK  Name = *****
REMARK                            x       y       z     vdW  Elec       q    Type
REMARK                         _______ _______ _______ _____ _____    ______ ____
ROOT
ATOM      1  C   LIG    1       25.645 -14.503   3.864  0.00  0.00    +0.131 C 
ATOM      2  C   LIG    1       24.356 -15.201   4.285  0.00  0.00    +0.234 C 
ATOM      3  O   LIG    1       23.388 -14.616   4.768  0.00  0.00    -0.274 OA
ATOM      4  N   LIG    1       24.267 -16.527   3.994  0.00  0.00    -0.266 N 
ATOM      5  H   LIG    1       23.382 -16.989   4.166  0.00  0.00    +0.157 HD
ATOM      6  C   LIG    1       25.295 -17.231   3.477  0.00  0.00    +0.150 C 
ATOM      7  N   LIG    1       26.472 -16.790   3.266  0.00  0.00    -0.158 NA
ATOM      8  C   LIG    1       26.778 -15.501   3.630  0.00  0.00    +0.254 C 
ATOM      9  O   LIG    1       27.945 -15.145   3.699  0.00  0.00    -0.273 OA
ENDROOT
BRANCH   1  10
ATOM     10  C   LIG    1       25.365 -13.692   2.520  0.00  0.00    +0.010 C 
ATOM     11  C   LIG    1       26.446 -12.632   2.224  0.00  0.00    +0.009 C 
BRANCH  10  12
ATOM     12  C   LIG    1       23.953 -13.037   2.465  0.00  0.00    +0.004 C 
BRANCH  12  13
ATOM     13  C   LIG    1       23.894 -11.568   2.916  0.00  0.00    -0.003 C 
ATOM     14  C   LIG    1       23.533 -11.448   4.395  0.00  0.00    +0.004 C 
ENDBRANCH  12  13
ENDBRANCH  10  12
ENDBRANCH   1  10
BRANCH   6  15
ATOM     15  S   LIG    1       24.880 -18.865   3.082  0.00  0.00    -0.110 S 
ATOM     16  H   LIG    1       23.852 -18.540   2.284  0.00  0.00    +0.110 HD
ENDBRANCH   6  15
BRANCH   1  17
ATOM     17  C   LIG    1       26.048 -13.549   5.037  0.00  0.00    +0.052 C 
BRANCH  17  19
ATOM     18  C   LIG    1       28.336 -12.476   5.239  0.00  0.00    +0.004 C 
ATOM     19  C   LIG    1       27.524 -13.531   5.388  0.00  0.00    -0.033 C 
ENDBRANCH  17  19
ENDBRANCH   1  17
TORSDOF 6
ENDMDL
MODEL 2
REMARK VINA RESULT:      -2.9      2.747      4.265
REMARK  Name = *****
REMARK                            x       y       z     vdW  Elec       q    Type
REMARK                         _______ _______ _______ _____ _____    ______ ____
ROOT
ATOM      1  C   LIG    1       25.014 -14.107   3.573  0.00  0.00    +0.131 C 
ATOM      2  C   LIG    1       24.938 -13.103   4.720  0.00  0.00    +0.234 C 
ATOM      3  O   LIG    1       23.883 -12.701   5.208  0.00  0.00    -0.274 OA
ATOM      4  N   LIG    1       26.123 -12.740   5.280  0.00  0.00    -0.266 N 
ATOM      5  H   LIG    1       26.093 -12.159   6.110  0.00  0.00    +0.157 HD
ATOM      6  C   LIG    1       27.315 -13.134   4.787  0.00  0.00    +0.150 C 
ATOM      7  N   LIG    1       27.497 -13.813   3.725  0.00  0.00    -0.158 NA
ATOM      8  C   LIG    1       26.411 -14.154   2.956  0.00  0.00    +0.254 C 
ATOM      9  O   LIG    1       26.572 -14.553   1.812  0.00  0.00    -0.273 OA
ENDROOT
BRANCH   1  10
ATOM     10  C   LIG    1       24.634 -15.549   4.138  0.00  0.00    +0.010 C 
ATOM     11  C   LIG    1       25.364 -16.692   3.402  0.00  0.00    +0.009 C 
BRANCH  10  12
ATOM     12  C   LIG    1       23.102 -15.830   4.162  0.00  0.00    +0.004 C 
BRANCH  12  13
ATOM     13  C   LIG    1       22.680 -17.101   4.918  0.00  0.00    -0.003 C 
ATOM     14  C   LIG    1       22.132 -18.164   3.969  0.00  0.00    +0.004 C 
ENDBRANCH  12  13
ENDBRANCH  10  12
ENDBRANCH   1  10
BRANCH   6  15
ATOM     15  S   LIG    1       28.659 -12.637   5.759  0.00  0.00    -0.110 S 
ATOM     16  H   LIG    1       29.288 -11.984   4.771  0.00  0.00    +0.110 HD
ENDBRANCH   6  15
BRANCH   1  17
ATOM     17  C   LIG    1       23.996 -13.630   2.485  0.00  0.00    +0.052 C 
BRANCH  17  19
ATOM     18  C   LIG    1       25.096 -11.447   1.812  0.00  0.00    +0.004 C 
ATOM     19  C   LIG    1       24.013 -12.143   2.181  0.00  0.00    -0.033 C 
ENDBRANCH  17  19
ENDBRANCH   1  17
TORSDOF 6
ENDMDL
MODEL 3
REMARK VINA RESULT:      -2.8      1.201      3.531
REMARK  Name = *****
REMARK                            x       y       z     vdW  Elec       q    Type
REMARK                         _______ _______ _______ _____ _____    ______ ____
ROOT
ATOM      1  C   LIG    1       24.698 -14.578   3.782  0.00  0.00    +0.131 C 
ATOM      2  C   LIG    1       25.736 -15.185   2.844  0.00  0.00    +0.234 C 
ATOM      3  O   LIG    1       26.504 -14.519   2.151  0.00  0.00    -0.274 OA
ATOM      4  N   LIG    1       25.864 -16.538   2.884  0.00  0.00    -0.266 N 
ATOM      5  H   LIG    1       26.618 -16.956   2.351  0.00  0.00    +0.157 HD
ATOM      6  C   LIG    1       25.047 -17.328   3.611  0.00  0.00    +0.150 C 
ATOM      7  N   LIG    1       24.032 -16.941   4.277  0.00  0.00    -0.158 NA
ATOM      8  C   LIG    1       23.673 -15.615   4.239  0.00  0.00    +0.254 C 
ATOM      9  O   LIG    1       22.569 -15.269   4.629  0.00  0.00    -0.273 OA
ENDROOT
BRANCH   1  10
ATOM     10  C   LIG    1       25.453 -13.982   5.054  0.00  0.00    +0.010 C 
ATOM     11  C   LIG    1       25.069 -12.517   5.346  0.00  0.00    +0.009 C 
BRANCH  10  12
ATOM     12  C   LIG    1       27.003 -14.119   4.984  0.00  0.00    +0.004 C 
BRANCH  12  13
ATOM     13  C   LIG    1       27.775 -12.792   4.888  0.00  0.00    -0.003 C 
ATOM     14  C   LIG    1       28.876 -12.857   3.833  0.00  0.00    +0.004 C 
ENDBRANCH  12  13
ENDBRANCH  10  12
ENDBRANCH   1  10
BRANCH   6  15
ATOM     15  S   LIG    1       25.505 -18.997   3.588  0.00  0.00    -0.110 S 
ATOM     16  H   LIG    1       26.773 -18.781   3.966  0.00  0.00    +0.110 HD
ENDBRANCH   6  15
BRANCH   1  17
ATOM     17  C   LIG    1       23.958 -13.459   2.977  0.00  0.00    +0.052 C 
BRANCH  17  19
ATOM     18  C   LIG    1       24.977 -11.448   1.818  0.00  0.00    +0.004 C 
ATOM     19  C   LIG    1       24.784 -12.770   1.906  0.00  0.00    -0.033 C 
ENDBRANCH  17  19
ENDBRANCH   1  17
TORSDOF 6
ENDMDL
MODEL 4
REMARK VINA RESULT:      -2.7      4.288      6.652
REMARK  Name = *****
REMARK                            x       y       z     vdW  Elec       q    Type
REMARK                         _______ _______ _______ _____ _____    ______ ____
ROOT
ATOM      1  C   LIG    1       24.207 -20.074   4.772  0.00  0.00    +0.131 C 
ATOM      2  C   LIG    1       25.516 -20.327   4.030  0.00  0.00    +0.234 C 
ATOM      3  O   LIG    1       25.616 -20.338   2.805  0.00  0.00    -0.274 OA
ATOM      4  N   LIG    1       26.631 -20.435   4.800  0.00  0.00    -0.266 N 
ATOM      5  H   LIG    1       27.525 -20.497   4.327  0.00  0.00    +0.157 HD
ATOM      6  C   LIG    1       26.590 -20.445   6.148  0.00  0.00    +0.150 C 
ATOM      7  N   LIG    1       25.536 -20.432   6.864  0.00  0.00    -0.158 NA
ATOM      8  C   LIG    1       24.309 -20.459   6.247  0.00  0.00    +0.254 C 
ATOM      9  O   LIG    1       23.306 -20.725   6.892  0.00  0.00    -0.273 OA
ENDROOT
BRANCH   1  10
ATOM     10  C   LIG    1       23.849 -18.525   4.652  0.00  0.00    +0.010 C 
ATOM     11  C   LIG    1       22.358 -18.276   4.347  0.00  0.00    +0.009 C 
BRANCH  10  12
ATOM     12  C   LIG    1       24.734 -17.754   3.626  0.00  0.00    +0.004 C 
BRANCH  12  13
ATOM     13  C   LIG    1       24.675 -16.221   3.732  0.00  0.00    -0.003 C 
ATOM     14  C   LIG    1       25.996 -15.578   3.317  0.00  0.00    +0.004 C 
ENDBRANCH  12  13
ENDBRANCH  10  12
ENDBRANCH   1  10
BRANCH   6  15
ATOM     15  S   LIG    1       28.158 -20.464   6.884  0.00  0.00    -0.110 S 
ATOM     16  H   LIG    1       28.746 -21.160   5.899  0.00  0.00    +0.110 HD
ENDBRANCH   6  15
BRANCH   1  17
ATOM     17  C   LIG    1       23.119 -20.969   4.091  0.00  0.00    +0.052 C 
BRANCH  17  19
ATOM     18  C   LIG    1       20.751 -21.541   4.792  0.00  0.00    +0.004 C 
ATOM     19  C   LIG    1       22.070 -21.547   5.023  0.00  0.00    -0.033 C 
ENDBRANCH  17  19
ENDBRANCH   1  17
TORSDOF 6
ENDMDL
MODEL 5
REMARK VINA RESULT:      -2.6      2.595      4.628
REMARK  Name = *****
REMARK                            x       y       z     vdW  Elec       q    Type
REMARK                         _______ _______ _______ _____ _____    ______ ____
ROOT
ATOM      1  C   LIG    1       25.986 -14.748   3.713  0.00  0.00    +0.131 C 
ATOM      2  C   LIG    1       26.453 -14.007   2.464  0.00  0.00    +0.234 C 
ATOM      3  O   LIG    1       27.453 -14.318   1.818  0.00  0.00    -0.274 OA
ATOM      4  N   LIG    1       25.633 -13.023   2.007  0.00  0.00    -0.266 N 
ATOM      5  H   LIG    1       25.866 -12.590   1.121  0.00  0.00    +0.157 HD
ATOM      6  C   LIG    1       24.530 -12.624   2.672  0.00  0.00    +0.150 C 
ATOM      7  N   LIG    1       24.154 -13.043   3.816  0.00  0.00    -0.158 NA
ATOM      8  C   LIG    1       24.941 -13.946   4.488  0.00  0.00    +0.254 C 
ATOM      9  O   LIG    1       24.758 -14.150   5.679  0.00  0.00    -0.273 OA
ENDROOT
BRANCH   1  10
ATOM     10  C   LIG    1       25.360 -16.145   3.268  0.00  0.00    +0.010 C 
ATOM     11  C   LIG    1       24.038 -16.468   3.995  0.00  0.00    +0.009 C 
BRANCH  10  12
ATOM     12  C   LIG    1       26.344 -17.345   3.403  0.00  0.00    +0.004 C 
BRANCH  12  13
ATOM     13  C   LIG    1       25.694 -18.688   3.777  0.00  0.00    -0.003 C 
ATOM     14  C   LIG    1       26.628 -19.548   4.624  0.00  0.00    +0.004 C 
ENDBRANCH  12  13
ENDBRANCH  10  12
ENDBRANCH   1  10
BRANCH   6  15
ATOM     15  S   LIG    1       23.596 -11.447   1.812  0.00  0.00    -0.110 S 
ATOM     16  H   LIG    1       24.519 -11.229   0.864  0.00  0.00    +0.110 HD
ENDBRANCH   6  15
BRANCH   1  17
ATOM     17  C   LIG    1       27.245 -14.946   4.620  0.00  0.00    +0.052 C 
BRANCH  17  19
ATOM     18  C   LIG    1       28.376 -12.679   4.698  0.00  0.00    +0.004 C 
ATOM     19  C   LIG    1       27.756 -13.695   5.311  0.00  0.00    -0.033 C 
ENDBRANCH  17  19
ENDBRANCH   1  17
TORSDOF 6
ENDMDL
MODEL 6
REMARK VINA RESULT:      -2.5      2.741      4.051
REMARK  Name = *****
REMARK                            x       y       z     vdW  Elec       q    Type
REMARK                         _______ _______ _______ _____ _____    ______ ____
ROOT
ATOM      1  C   LIG    1       26.148 -14.221   4.044  0.00  0.00    +0.131 C 
ATOM      2  C   LIG    1       26.288 -13.921   2.555  0.00  0.00    +0.234 C 
ATOM      3  O   LIG    1       27.092 -14.486   1.816  0.00  0.00    -0.274 OA
ATOM      4  N   LIG    1       25.382 -13.053   2.030  0.00  0.00    -0.266 N 
ATOM      5  H   LIG    1       25.386 -12.919   1.025  0.00  0.00    +0.157 HD
ATOM      6  C   LIG    1       24.483 -12.389   2.785  0.00  0.00    +0.150 C 
ATOM      7  N   LIG    1       24.407 -12.421   4.057  0.00  0.00    -0.158 NA
ATOM      8  C   LIG    1       25.335 -13.146   4.764  0.00  0.00    +0.254 C 
ATOM      9  O   LIG    1       25.457 -12.975   5.967  0.00  0.00    -0.273 OA
ENDROOT
BRANCH   1  10
ATOM     10  C   LIG    1       25.426 -15.633   4.210  0.00  0.00    +0.010 C 
ATOM     11  C   LIG    1       26.207 -16.787   3.547  0.00  0.00    +0.009 C 
BRANCH  10  12
ATOM     12  C   LIG    1       23.949 -15.644   3.717  0.00  0.00    +0.004 C 
BRANCH  12  13
ATOM     13  C   LIG    1       22.891 -15.824   4.819  0.00  0.00    -0.003 C 
ATOM     14  C   LIG    1       22.048 -17.076   4.590  0.00  0.00    +0.004 C 
ENDBRANCH  12  13
ENDBRANCH  10  12
ENDBRANCH   1  10
BRANCH   6  15
ATOM     15  S   LIG    1       23.367 -11.447   1.856  0.00  0.00    -0.110 S 
ATOM     16  H   LIG    1       22.529 -11.210   2.877  0.00  0.00    +0.110 HD
ENDBRANCH   6  15
BRANCH   1  17
ATOM     17  C   LIG    1       27.595 -14.243   4.640  0.00  0.00    +0.052 C 
BRANCH  17  19
ATOM     18  C   LIG    1       29.221 -12.515   3.749  0.00  0.00    +0.004 C 
ATOM     19  C   LIG    1       28.316 -12.908   4.654  0.00  0.00    -0.033 C 
ENDBRANCH  17  19
ENDBRANCH   1  17
TORSDOF 6
ENDMDL
MODEL 7
REMARK VINA RESULT:      -2.4      1.454      3.688
REMARK  Name = *****
REMARK                            x       y       z     vdW  Elec       q    Type
REMARK                         _______ _______ _______ _____ _____    ______ ____
ROOT
ATOM      1  C   LIG    1       25.253 -14.636   3.608  0.00  0.00    +0.131 C 
ATOM      2  C   LIG    1       25.674 -16.085   3.386  0.00  0.00    +0.234 C 
ATOM      3  O   LIG    1       26.800 -16.423   3.026  0.00  0.00    -0.274 OA
ATOM      4  N   LIG    1       24.759 -17.034   3.721  0.00  0.00    -0.266 N 
ATOM      5  H   LIG    1       25.052 -18.004   3.684  0.00  0.00    +0.157 HD
ATOM      6  C   LIG    1       23.503 -16.733   4.110  0.00  0.00    +0.150 C 
ATOM      7  N   LIG    1       22.991 -15.567   4.145  0.00  0.00    -0.158 NA
ATOM      8  C   LIG    1       23.735 -14.497   3.710  0.00  0.00    +0.254 C 
ATOM      9  O   LIG    1       23.190 -13.430   3.472  0.00  0.00    -0.273 OA
ENDROOT
BRANCH   1  10
ATOM     10  C   LIG    1       25.925 -14.115   4.956  0.00  0.00    +0.010 C 
ATOM     11  C   LIG    1       25.452 -12.701   5.354  0.00  0.00    +0.009 C 
BRANCH  10  12
ATOM     12  C   LIG    1       27.482 -14.166   4.942  0.00  0.00    +0.004 C 
BRANCH  12  13
ATOM     13  C   LIG    1       28.183 -12.803   4.821  0.00  0.00    -0.003 C 
ATOM     14  C   LIG    1       29.161 -12.775   3.649  0.00  0.00    +0.004 C 
ENDBRANCH  12  13
ENDBRANCH  10  12
ENDBRANCH   1  10
BRANCH   6  15
ATOM     15  S   LIG    1       22.585 -18.117   4.599  0.00  0.00    -0.110 S 
ATOM     16  H   LIG    1       23.650 -18.853   4.949  0.00  0.00    +0.110 HD
ENDBRANCH   6  15
BRANCH   1  17
ATOM     17  C   LIG    1       25.752 -13.824   2.367  0.00  0.00    +0.052 C 
BRANCH  17  19
ATOM     18  C   LIG    1       24.947 -11.481   1.829  0.00  0.00    +0.004 C 
ATOM     19  C   LIG    1       24.770 -12.809   1.812  0.00  0.00    -0.033 C 
ENDBRANCH  17  19
ENDBRANCH   1  17
TORSDOF 6
ENDMDL
MODEL 8
REMARK VINA RESULT:      -2.4      2.897      4.447
REMARK  Name = *****
REMARK                            x       y       z     vdW  Elec       q    Type
REMARK                         _______ _______ _______ _____ _____    ______ ____
ROOT
ATOM      1  C   LIG    1       26.034 -14.068   3.668  0.00  0.00    +0.131 C 
ATOM      2  C   LIG    1       25.213 -12.954   3.024  0.00  0.00    +0.234 C 
ATOM      3  O   LIG    1       25.165 -12.754   1.812  0.00  0.00    -0.274 OA
ATOM      4  N   LIG    1       24.418 -12.234   3.861  0.00  0.00    -0.266 N 
ATOM      5  H   LIG    1       23.785 -11.562   3.445  0.00  0.00    +0.157 HD
ATOM      6  C   LIG    1       24.432 -12.395   5.200  0.00  0.00    +0.150 C 
ATOM      7  N   LIG    1       25.215 -13.159   5.853  0.00  0.00    -0.158 NA
ATOM      8  C   LIG    1       26.179 -13.865   5.175  0.00  0.00    +0.254 C 
ATOM      9  O   LIG    1       27.105 -14.378   5.786  0.00  0.00    -0.273 OA
ENDROOT
BRANCH   1  10
ATOM     10  C   LIG    1       25.307 -15.459   3.387  0.00  0.00    +0.010 C 
ATOM     11  C   LIG    1       23.950 -15.582   4.109  0.00  0.00    +0.009 C 
BRANCH  10  12
ATOM     12  C   LIG    1       26.189 -16.703   3.704  0.00  0.00    +0.004 C 
BRANCH  12  13
ATOM     13  C   LIG    1       25.615 -18.051   3.235  0.00  0.00    -0.003 C 
ATOM     14  C   LIG    1       26.121 -19.207   4.094  0.00  0.00    +0.004 C 
ENDBRANCH  12  13
ENDBRANCH  10  12
ENDBRANCH   1  10
BRANCH   6  15
ATOM     15  S   LIG    1       23.237 -11.447   6.018  0.00  0.00    -0.110 S 
ATOM     16  H   LIG    1       23.583 -11.851   7.249  0.00  0.00    +0.110 HD
ENDBRANCH   6  15
BRANCH   1  17
ATOM     17  C   LIG    1       27.455 -14.020   3.013  0.00  0.00    +0.052 C 
BRANCH  17  19
ATOM     18  C   LIG    1       29.119 -12.458   4.115  0.00  0.00    +0.004 C 
ATOM     19  C   LIG    1       28.204 -12.710   3.171  0.00  0.00    -0.033 C 
ENDBRANCH  17  19
ENDBRANCH   1  17
TORSDOF 6
ENDMDL
MODEL 9
REMARK VINA RESULT:      -2.0      4.562      6.777
REMARK  Name = *****
REMARK                            x       y       z     vdW  Elec       q    Type
REMARK                         _______ _______ _______ _____ _____    ______ ____
ROOT
ATOM      1  C   LIG    1       23.464 -20.458   4.789  0.00  0.00    +0.131 C 
ATOM      2  C   LIG    1       24.627 -21.147   4.082  0.00  0.00    +0.234 C 
ATOM      3  O   LIG    1       24.579 -21.552   2.922  0.00  0.00    -0.274 OA
ATOM      4  N   LIG    1       25.800 -21.201   4.768  0.00  0.00    -0.266 N 
ATOM      5  H   LIG    1       26.614 -21.557   4.281  0.00  0.00    +0.157 HD
ATOM      6  C   LIG    1       25.918 -20.788   6.047  0.00  0.00    +0.150 C 
ATOM      7  N   LIG    1       24.969 -20.375   6.789  0.00  0.00    -0.158 NA
ATOM      8  C   LIG    1       23.685 -20.381   6.299  0.00  0.00    +0.254 C 
ATOM      9  O   LIG    1       22.738 -20.260   7.061  0.00  0.00    -0.273 OA
ENDROOT
BRANCH   1  10
ATOM     10  C   LIG    1       23.316 -18.984   4.199  0.00  0.00    +0.010 C 
ATOM     11  C   LIG    1       24.639 -18.430   3.631  0.00  0.00    +0.009 C 
BRANCH  10  12
ATOM     12  C   LIG    1       22.703 -17.964   5.204  0.00  0.00    +0.004 C 
BRANCH  12  13
ATOM     13  C   LIG    1       22.062 -16.720   4.567  0.00  0.00    -0.003 C 
ATOM     14  C   LIG    1       22.917 -15.474   4.782  0.00  0.00    +0.004 C 
ENDBRANCH  12  13
ENDBRANCH  10  12
ENDBRANCH   1  10
BRANCH   6  15
ATOM     15  S   LIG    1       27.543 -20.847   6.641  0.00  0.00    -0.110 S 
ATOM     16  H   LIG    1       28.099 -20.352   5.526  0.00  0.00    +0.110 HD
ENDBRANCH   6  15
BRANCH   1  17
ATOM     17  C   LIG    1       22.188 -21.319   4.509  0.00  0.00    +0.052 C 
BRANCH  17  19
ATOM     18  C   LIG    1       20.249 -19.947   3.626  0.00  0.00    +0.004 C 
ATOM     19  C   LIG    1       20.865 -20.586   4.629  0.00  0.00    -0.033 C 
ENDBRANCH  17  19
ENDBRANCH   1  17
TORSDOF 6
ENDMDL
