MODEL 1
REMARK VINA RESULT:      -5.5      0.000      0.000
REMARK  Name = *****
REMARK                            x       y       z     vdW  Elec       q    Type
REMARK                         _______ _______ _______ _____ _____    ______ ____
ROOT
ATOM      1  N   LIG    1       25.707 -16.727   2.919  0.00  0.00    -0.302 NA
ATOM      2  H   LIG    1       24.736 -16.942   3.166  0.00  0.00    +0.123 HD
ENDROOT
BRANCH   1   3
ATOM      3  C   LIG    1       26.020 -15.344   3.348  0.00  0.00    +0.023 C 
ATOM      4  C   LIG    1       26.436 -14.503   2.101  0.00  0.00    +0.026 C 
ATOM      5  C   LIG    1       26.791 -13.055   2.504  0.00  0.00    -0.006 C 
ATOM      6  C   LIG    1       25.569 -12.404   3.170  0.00  0.00    +0.038 C 
ATOM      7  C   LIG    1       25.174 -13.202   4.420  0.00  0.00    +0.068 C 
ATOM      8  C   LIG    1       26.353 -13.239   5.408  0.00  0.00    +0.038 C 
ATOM      9  C   LIG    1       27.576 -13.888   4.743  0.00  0.00    -0.006 C 
ATOM     10  C   LIG    1       27.963 -13.078   3.499  0.00  0.00    +0.007 C 
ATOM     11  C   LIG    1       24.810 -14.638   4.011  0.00  0.00    +0.057 C 
ATOM     12  C   LIG    1       27.221 -15.326   4.330  0.00  0.00    +0.026 C 
BRANCH   7  13
ATOM     13  O   LIG    1       24.044 -12.606   5.041  0.00  0.00    -0.389 OA
ATOM     14  H   LIG    1       24.264 -11.683   5.255  0.00  0.00    +0.210 HD
ENDBRANCH   7  13
ENDBRANCH   1   3
BRANCH   1  15
ATOM     15  C   LIG    1       26.565 -17.755   3.550  0.00  0.00    +0.178 C 
BRANCH  15  18
ATOM     16  C   LIG    1       25.525 -20.937   5.487  0.00  0.00    +0.179 C 
ATOM     17  N   LIG    1       26.230 -19.739   5.019  0.00  0.00    -0.285 N 
ATOM     18  C   LIG    1       25.744 -18.976   3.982  0.00  0.00    +0.230 C 
ATOM     19  O   LIG    1       24.677 -19.248   3.429  0.00  0.00    -0.274 OA
ATOM     20  C   LIG    1       27.472 -19.528   5.742  0.00  0.00    +0.109 C 
ATOM     21  C   LIG    1       27.311 -20.375   6.991  0.00  0.00    +0.022 C 
ATOM     22  C   LIG    1       26.515 -21.571   6.479  0.00  0.00    +0.039 C 
BRANCH  16  24
ATOM     23  N   LIG    1       23.232 -20.422   6.702  0.00  0.00    -0.195 NA
ATOM     24  C   LIG    1       24.249 -20.622   6.162  0.00  0.00    +0.085 C 
ENDBRANCH  16  24
ENDBRANCH  15  18
ENDBRANCH   1  15
TORSDOF 5
ENDMDL
MODEL 2
REMARK VINA RESULT:      -4.7      1.182      2.119
REMARK  Name = *****
REMARK                            x       y       z     vdW  Elec       q    Type
REMARK                         _______ _______ _______ _____ _____    ______ ____
ROOT
ATOM      1  N   LIG    1       25.317 -16.691   2.909  0.00  0.00    -0.302 NA
ATOM      2  H   LIG    1       24.370 -16.912   3.233  0.00  0.00    +0.123 HD
ENDROOT
BRANCH   1   3
ATOM      3  C   LIG    1       25.633 -15.287   3.262  0.00  0.00    +0.023 C 
ATOM      4  C   LIG    1       24.839 -14.891   4.546  0.00  0.00    +0.026 C 
ATOM      5  C   LIG    1       25.124 -13.425   4.941  0.00  0.00    -0.006 C 
ATOM      6  C   LIG    1       26.628 -13.258   5.203  0.00  0.00    +0.038 C 
ATOM      7  C   LIG    1       27.418 -13.609   3.935  0.00  0.00    +0.068 C 
ATOM      8  C   LIG    1       26.980 -12.692   2.779  0.00  0.00    +0.038 C 
ATOM      9  C   LIG    1       25.476 -12.857   2.517  0.00  0.00    -0.006 C 
ATOM     10  C   LIG    1       24.699 -12.497   3.791  0.00  0.00    +0.007 C 
ATOM     11  C   LIG    1       27.140 -15.072   3.554  0.00  0.00    +0.057 C 
ATOM     12  C   LIG    1       25.189 -14.318   2.135  0.00  0.00    +0.026 C 
BRANCH   7  13
ATOM     13  O   LIG    1       28.810 -13.457   4.170  0.00  0.00    -0.389 OA
ATOM     14  H   LIG    1       28.989 -13.683   5.099  0.00  0.00    +0.210 HD
ENDBRANCH   7  13
ENDBRANCH   1   3
BRANCH   1  15
ATOM     15  C   LIG    1       26.237 -17.679   3.513  0.00  0.00    +0.178 C 
BRANCH  15  18
ATOM     16  C   LIG    1       25.426 -20.940   5.428  0.00  0.00    +0.179 C 
ATOM     17  N   LIG    1       26.061 -19.708   4.948  0.00  0.00    -0.285 N 
ATOM     18  C   LIG    1       25.485 -18.937   3.965  0.00  0.00    +0.230 C 
ATOM     19  O   LIG    1       24.393 -19.230   3.475  0.00  0.00    -0.274 OA
ATOM     20  C   LIG    1       27.340 -19.475   5.594  0.00  0.00    +0.109 C 
ATOM     21  C   LIG    1       27.288 -20.356   6.829  0.00  0.00    +0.022 C 
ATOM     22  C   LIG    1       26.498 -21.565   6.337  0.00  0.00    +0.039 C 
BRANCH  16  24
ATOM     23  N   LIG    1       23.217 -20.430   6.791  0.00  0.00    -0.195 NA
ATOM     24  C   LIG    1       24.187 -20.683   6.193  0.00  0.00    +0.085 C 
ENDBRANCH  16  24
ENDBRANCH  15  18
ENDBRANCH   1  15
TORSDOF 5
ENDMDL
MODEL 3
REMARK VINA RESULT:      -3.9      2.273      7.123
REMARK  Name = *****
REMARK                            x       y       z     vdW  Elec       q    Type
REMARK                         _______ _______ _______ _____ _____    ______ ____
ROOT
ATOM      1  N   LIG    1       22.247 -17.595   4.567  0.00  0.00    -0.302 NA
ATOM      2  H   LIG    1       21.364 -17.777   4.080  0.00  0.00    +0.123 HD
ENDROOT
BRANCH   1   3
ATOM      3  C   LIG    1       22.892 -18.887   4.897  0.00  0.00    +0.023 C 
ATOM      4  C   LIG    1       22.019 -20.053   4.339  0.00  0.00    +0.026 C 
ATOM      5  C   LIG    1       22.645 -21.424   4.677  0.00  0.00    -0.006 C 
ATOM      6  C   LIG    1       24.050 -21.501   4.060  0.00  0.00    +0.038 C 
ATOM      7  C   LIG    1       24.930 -20.381   4.630  0.00  0.00    +0.068 C 
ATOM      8  C   LIG    1       25.020 -20.519   6.160  0.00  0.00    +0.038 C 
ATOM      9  C   LIG    1       23.617 -20.443   6.779  0.00  0.00    -0.006 C 
ATOM     10  C   LIG    1       22.750 -21.571   6.204  0.00  0.00    +0.007 C 
ATOM     11  C   LIG    1       24.307 -19.020   4.279  0.00  0.00    +0.057 C 
ATOM     12  C   LIG    1       22.987 -19.084   6.433  0.00  0.00    +0.026 C 
BRANCH   7  13
ATOM     13  O   LIG    1       26.230 -20.446   4.062  0.00  0.00    -0.389 OA
ATOM     14  H   LIG    1       26.482 -19.552   3.774  0.00  0.00    +0.210 HD
ENDBRANCH   7  13
ENDBRANCH   1   3
BRANCH   1  15
ATOM     15  C   LIG    1       23.066 -16.725   3.695  0.00  0.00    +0.178 C 
BRANCH  15  18
ATOM     16  C   LIG    1       25.140 -13.648   4.787  0.00  0.00    +0.179 C 
ATOM     17  N   LIG    1       24.681 -14.880   4.136  0.00  0.00    -0.285 N 
ATOM     18  C   LIG    1       23.445 -15.421   4.408  0.00  0.00    +0.230 C 
ATOM     19  O   LIG    1       22.659 -14.872   5.181  0.00  0.00    -0.274 OA
ATOM     20  C   LIG    1       25.695 -15.434   3.257  0.00  0.00    +0.109 C 
ATOM     21  C   LIG    1       26.642 -14.272   3.020  0.00  0.00    +0.022 C 
ATOM     22  C   LIG    1       26.614 -13.545   4.362  0.00  0.00    +0.039 C 
BRANCH  16  24
ATOM     23  N   LIG    1       23.761 -11.542   3.974  0.00  0.00    -0.195 NA
ATOM     24  C   LIG    1       24.390 -12.455   4.343  0.00  0.00    +0.085 C 
ENDBRANCH  16  24
ENDBRANCH  15  18
ENDBRANCH   1  15
TORSDOF 5
ENDMDL
MODEL 4
REMARK VINA RESULT:      -3.9      2.284      7.296
REMARK  Name = *****
REMARK                            x       y       z     vdW  Elec       q    Type
REMARK                         _______ _______ _______ _____ _____    ______ ____
ROOT
ATOM      1  N   LIG    1       23.841 -17.749   3.318  0.00  0.00    -0.302 NA
ATOM      2  H   LIG    1       24.522 -17.829   2.556  0.00  0.00    +0.123 HD
ENDROOT
BRANCH   1   3
ATOM      3  C   LIG    1       23.895 -18.977   4.145  0.00  0.00    +0.023 C 
ATOM      4  C   LIG    1       23.843 -20.226   3.212  0.00  0.00    +0.026 C 
ATOM      5  C   LIG    1       23.877 -21.533   4.035  0.00  0.00    -0.006 C 
ATOM      6  C   LIG    1       25.171 -21.572   4.863  0.00  0.00    +0.038 C 
ATOM      7  C   LIG    1       25.216 -20.367   5.812  0.00  0.00    +0.068 C 
ATOM      8  C   LIG    1       23.993 -20.395   6.746  0.00  0.00    +0.038 C 
ATOM      9  C   LIG    1       22.699 -20.357   5.920  0.00  0.00    -0.006 C 
ATOM     10  C   LIG    1       22.665 -21.569   4.980  0.00  0.00    +0.007 C 
ATOM     11  C   LIG    1       25.193 -19.071   4.986  0.00  0.00    +0.057 C 
ATOM     12  C   LIG    1       22.669 -19.063   5.091  0.00  0.00    +0.026 C 
BRANCH   7  13
ATOM     13  O   LIG    1       26.410 -20.396   6.580  0.00  0.00    -0.389 OA
ATOM     14  H   LIG    1       26.538 -21.302   6.911  0.00  0.00    +0.210 HD
ENDBRANCH   7  13
ENDBRANCH   1   3
BRANCH   1  15
ATOM     15  C   LIG    1       24.153 -16.511   4.066  0.00  0.00    +0.178 C 
BRANCH  15  18
ATOM     16  C   LIG    1       26.111 -13.581   2.473  0.00  0.00    +0.179 C 
ATOM     17  N   LIG    1       25.085 -14.401   3.126  0.00  0.00    -0.285 N 
ATOM     18  C   LIG    1       25.295 -15.732   3.402  0.00  0.00    +0.230 C 
ATOM     19  O   LIG    1       26.368 -16.280   3.144  0.00  0.00    -0.274 OA
ATOM     20  C   LIG    1       23.869 -13.646   3.371  0.00  0.00    +0.109 C 
ATOM     21  C   LIG    1       24.313 -12.199   3.265  0.00  0.00    +0.022 C 
ATOM     22  C   LIG    1       25.380 -12.261   2.175  0.00  0.00    +0.039 C 
BRANCH  16  24
ATOM     23  N   LIG    1       28.230 -13.190   4.007  0.00  0.00    -0.195 NA
ATOM     24  C   LIG    1       27.284 -13.337   3.338  0.00  0.00    +0.085 C 
ENDBRANCH  16  24
ENDBRANCH  15  18
ENDBRANCH   1  15
TORSDOF 5
ENDMDL
MODEL 5
REMARK VINA RESULT:      -3.4      2.051      2.616
REMARK  Name = *****
REMARK                            x       y       z     vdW  Elec       q    Type
REMARK                         _______ _______ _______ _____ _____    ______ ____
ROOT
ATOM      1  N   LIG    1       23.174 -15.831   4.659  0.00  0.00    -0.302 NA
ATOM      2  H   LIG    1       23.604 -16.394   5.400  0.00  0.00    +0.123 HD
ENDROOT
BRANCH   1   3
ATOM      3  C   LIG    1       24.117 -14.762   4.255  0.00  0.00    +0.023 C 
ATOM      4  C   LIG    1       25.335 -15.404   3.520  0.00  0.00    +0.026 C 
ATOM      5  C   LIG    1       26.356 -14.326   3.096  0.00  0.00    -0.006 C 
ATOM      6  C   LIG    1       25.668 -13.323   2.158  0.00  0.00    +0.038 C 
ATOM      7  C   LIG    1       24.491 -12.657   2.883  0.00  0.00    +0.068 C 
ATOM      8  C   LIG    1       24.998 -11.935   4.144  0.00  0.00    +0.038 C 
ATOM      9  C   LIG    1       25.687 -12.936   5.083  0.00  0.00    -0.006 C 
ATOM     10  C   LIG    1       26.865 -13.590   4.347  0.00  0.00    +0.007 C 
ATOM     11  C   LIG    1       23.473 -13.734   3.291  0.00  0.00    +0.057 C 
ATOM     12  C   LIG    1       24.675 -14.017   5.496  0.00  0.00    +0.026 C 
BRANCH   7  13
ATOM     13  O   LIG    1       23.849 -11.728   2.020  0.00  0.00    -0.389 OA
ATOM     14  H   LIG    1       23.008 -12.117   1.726  0.00  0.00    +0.210 HD
ENDBRANCH   7  13
ENDBRANCH   1   3
BRANCH   1  15
ATOM     15  C   LIG    1       22.806 -16.750   3.559  0.00  0.00    +0.178 C 
BRANCH  15  18
ATOM     16  C   LIG    1       23.364 -20.476   4.433  0.00  0.00    +0.179 C 
ATOM     17  N   LIG    1       23.542 -19.092   3.979  0.00  0.00    -0.285 N 
ATOM     18  C   LIG    1       22.532 -18.164   4.082  0.00  0.00    +0.230 C 
ATOM     19  O   LIG    1       21.448 -18.449   4.593  0.00  0.00    -0.274 OA
ATOM     20  C   LIG    1       24.854 -18.883   3.392  0.00  0.00    +0.109 C 
ATOM     21  C   LIG    1       25.668 -20.060   3.897  0.00  0.00    +0.022 C 
ATOM     22  C   LIG    1       24.636 -21.183   3.935  0.00  0.00    +0.039 C 
BRANCH  16  24
ATOM     23  N   LIG    1       23.193 -20.716   7.062  0.00  0.00    -0.195 NA
ATOM     24  C   LIG    1       23.254 -20.585   5.902  0.00  0.00    +0.085 C 
ENDBRANCH  16  24
ENDBRANCH  15  18
ENDBRANCH   1  15
TORSDOF 5
ENDMDL
MODEL 6
REMARK VINA RESULT:      -3.2      2.137      3.132
REMARK  Name = *****
REMARK                            x       y       z     vdW  Elec       q    Type
REMARK                         _______ _______ _______ _____ _____    ______ ____
ROOT
ATOM      1  N   LIG    1       23.126 -15.879   4.671  0.00  0.00    -0.302 NA
ATOM      2  H   LIG    1       23.669 -16.440   5.334  0.00  0.00    +0.123 HD
ENDROOT
BRANCH   1   3
ATOM      3  C   LIG    1       23.946 -14.730   4.222  0.00  0.00    +0.023 C 
ATOM      4  C   LIG    1       24.026 -13.678   5.371  0.00  0.00    +0.026 C 
ATOM      5  C   LIG    1       24.859 -12.450   4.940  0.00  0.00    -0.006 C 
ATOM      6  C   LIG    1       26.278 -12.909   4.572  0.00  0.00    +0.038 C 
ATOM      7  C   LIG    1       26.214 -13.916   3.416  0.00  0.00    +0.068 C 
ATOM      8  C   LIG    1       25.539 -13.266   2.196  0.00  0.00    +0.038 C 
ATOM      9  C   LIG    1       24.120 -12.806   2.562  0.00  0.00    -0.006 C 
ATOM     10  C   LIG    1       24.199 -11.795   3.715  0.00  0.00    +0.007 C 
ATOM     11  C   LIG    1       25.395 -15.140   3.856  0.00  0.00    +0.057 C 
ATOM     12  C   LIG    1       23.294 -14.025   3.004  0.00  0.00    +0.026 C 
BRANCH   7  13
ATOM     13  O   LIG    1       27.524 -14.345   3.071  0.00  0.00    -0.389 OA
ATOM     14  H   LIG    1       27.605 -15.288   3.295  0.00  0.00    +0.210 HD
ENDBRANCH   7  13
ENDBRANCH   1   3
BRANCH   1  15
ATOM     15  C   LIG    1       22.703 -16.775   3.572  0.00  0.00    +0.178 C 
BRANCH  15  18
ATOM     16  C   LIG    1       23.567 -20.438   4.465  0.00  0.00    +0.179 C 
ATOM     17  N   LIG    1       23.639 -19.037   4.036  0.00  0.00    -0.285 N 
ATOM     18  C   LIG    1       22.533 -18.217   4.063  0.00  0.00    +0.230 C 
ATOM     19  O   LIG    1       21.447 -18.618   4.484  0.00  0.00    -0.274 OA
ATOM     20  C   LIG    1       24.964 -18.688   3.556  0.00  0.00    +0.109 C 
ATOM     21  C   LIG    1       25.852 -19.783   4.118  0.00  0.00    +0.022 C 
ATOM     22  C   LIG    1       24.939 -21.005   4.066  0.00  0.00    +0.039 C 
BRANCH  16  24
ATOM     23  N   LIG    1       23.137 -20.705   7.062  0.00  0.00    -0.195 NA
ATOM     24  C   LIG    1       23.353 -20.578   5.920  0.00  0.00    +0.085 C 
ENDBRANCH  16  24
ENDBRANCH  15  18
ENDBRANCH   1  15
TORSDOF 5
ENDMDL
MODEL 7
REMARK VINA RESULT:      -2.7      2.280      6.768
REMARK  Name = *****
REMARK                            x       y       z     vdW  Elec       q    Type
REMARK                         _______ _______ _______ _____ _____    ______ ____
ROOT
ATOM      1  N   LIG    1       26.330 -18.518   3.685  0.00  0.00    -0.302 NA
ATOM      2  H   LIG    1       26.889 -18.337   4.524  0.00  0.00    +0.123 HD
ENDROOT
BRANCH   1   3
ATOM      3  C   LIG    1       25.054 -19.157   4.081  0.00  0.00    +0.023 C 
ATOM      4  C   LIG    1       25.184 -19.699   5.539  0.00  0.00    +0.026 C 
ATOM      5  C   LIG    1       23.879 -20.393   5.989  0.00  0.00    -0.006 C 
ATOM      6  C   LIG    1       22.724 -19.382   5.924  0.00  0.00    +0.038 C 
ATOM      7  C   LIG    1       22.562 -18.870   4.487  0.00  0.00    +0.068 C 
ATOM      8  C   LIG    1       22.280 -20.052   3.542  0.00  0.00    +0.038 C 
ATOM      9  C   LIG    1       23.434 -21.064   3.606  0.00  0.00    -0.006 C 
ATOM     10  C   LIG    1       23.581 -21.571   5.047  0.00  0.00    +0.007 C 
ATOM     11  C   LIG    1       23.859 -18.170   4.050  0.00  0.00    +0.057 C 
ATOM     12  C   LIG    1       24.735 -20.371   3.170  0.00  0.00    +0.026 C 
BRANCH   7  13
ATOM     13  O   LIG    1       21.496 -17.934   4.420  0.00  0.00    -0.389 OA
ATOM     14  H   LIG    1       20.986 -17.994   5.246  0.00  0.00    +0.210 HD
ENDBRANCH   7  13
ENDBRANCH   1   3
BRANCH   1  15
ATOM     15  C   LIG    1       26.157 -17.228   2.979  0.00  0.00    +0.178 C 
BRANCH  15  18
ATOM     16  C   LIG    1       27.550 -13.711   3.784  0.00  0.00    +0.179 C 
ATOM     17  N   LIG    1       26.760 -14.826   3.252  0.00  0.00    -0.285 N 
ATOM     18  C   LIG    1       27.022 -16.129   3.608  0.00  0.00    +0.230 C 
ATOM     19  O   LIG    1       27.908 -16.408   4.418  0.00  0.00    -0.274 OA
ATOM     20  C   LIG    1       25.756 -14.372   2.306  0.00  0.00    +0.109 C 
ATOM     21  C   LIG    1       25.632 -12.888   2.597  0.00  0.00    +0.022 C 
ATOM     22  C   LIG    1       27.061 -12.503   2.968  0.00  0.00    +0.039 C 
BRANCH  16  24
ATOM     23  N   LIG    1       27.106 -13.348   6.367  0.00  0.00    -0.195 NA
ATOM     24  C   LIG    1       27.320 -13.486   5.227  0.00  0.00    +0.085 C 
ENDBRANCH  16  24
ENDBRANCH  15  18
ENDBRANCH   1  15
TORSDOF 5
ENDMDL
