MODEL 1
REMARK VINA RESULT:       5.4      0.000      0.000
REMARK  Name = *****
REMARK                            x       y       z     vdW  Elec       q    Type
REMARK                         _______ _______ _______ _____ _____    ______ ____
ROOT
ATOM      1  C   LIG    1       22.758 -20.149   4.218  0.00  0.00    +0.132 C 
ATOM      2  C   LIG    1       22.798 -18.581   4.045  0.00  0.00    +0.017 C 
ATOM      3  C   LIG    1       24.288 -18.267   3.648  0.00  0.00    +0.003 C 
ATOM      4  C   LIG    1       24.995 -17.234   4.568  0.00  0.00    +0.001 C 
ATOM      5  C   LIG    1       24.134 -15.953   4.741  0.00  0.00    +0.025 C 
ATOM      6  C   LIG    1       22.780 -16.345   5.342  0.00  0.00    -0.072 C 
ATOM      7  C   LIG    1       21.990 -15.477   5.997  0.00  0.00    +0.008 C 
ATOM      8  C   LIG    1       24.089 -15.107   3.414  0.00  0.00    +0.023 C 
ATOM      9  C   LIG    1       25.489 -14.880   2.843  0.00  0.00    -0.063 C 
ATOM     10  C   LIG    1       25.911 -13.701   2.352  0.00  0.00    +0.045 C 
ATOM     11  C   LIG    1       24.990 -12.551   2.215  0.00  0.00    +0.156 C 
ATOM     12  O   LIG    1       25.419 -11.473   1.812  0.00  0.00    -0.293 OA
ATOM     13  C   LIG    1       23.527 -12.798   2.467  0.00  0.00    +0.079 C 
ATOM     14  C   LIG    1       26.405 -16.077   2.787  0.00  0.00    +0.031 C 
ATOM     15  C   LIG    1       23.351 -13.767   3.626  0.00  0.00    +0.016 C 
ATOM     16  C   LIG    1       26.408 -16.860   4.091  0.00  0.00    +0.009 C 
ATOM     17  C   LIG    1       25.018 -19.619   3.615  0.00  0.00    +0.008 C 
ATOM     18  C   LIG    1       22.427 -17.822   5.351  0.00  0.00    +0.041 C 
ATOM     19  C   LIG    1       23.924 -20.641   3.353  0.00  0.00    +0.049 C 
ENDROOT
BRANCH   1  21
ATOM     20  C   LIG    1       23.132 -21.040   6.722  0.00  0.00    +0.007 C 
ATOM     21  C   LIG    1       22.950 -20.634   5.605  0.00  0.00    -0.070 C 
ENDBRANCH   1  21
BRANCH   1  22
ATOM     22  O   LIG    1       21.548 -20.722   3.743  0.00  0.00    -0.376 OA
ATOM     23  H   LIG    1       21.765 -21.609   3.406  0.00  0.00    +0.211 HD
ENDBRANCH   1  22
BRANCH   2  24
ATOM     24  C   LIG    1       21.788 -18.083   2.943  0.00  0.00    +0.008 C 
ATOM     25  C   LIG    1       20.293 -18.202   3.225  0.00  0.00    +0.004 C 
ENDBRANCH   2  24
TORSDOF 3
ENDMDL
