MODEL 1
REMARK VINA RESULT:      14.4      0.000      0.000
REMARK  Name = *****
REMARK                            x       y       z     vdW  Elec       q    Type
REMARK                         _______ _______ _______ _____ _____    ______ ____
ROOT
ATOM      1  C   LIG    1       23.330 -13.641   6.468  0.00  0.00    +0.011 C 
ATOM      2  C   LIG    1       23.889 -13.722   5.049  0.00  0.00    +0.027 C 
ATOM      3  C   LIG    1       25.326 -14.308   4.941  0.00  0.00    +0.142 C 
ATOM      4  C   LIG    1       25.349 -14.863   3.472  0.00  0.00    +0.010 C 
ATOM      5  C   LIG    1       23.946 -15.515   3.328  0.00  0.00    +0.005 C 
ATOM      6  C   LIG    1       23.792 -16.991   3.792  0.00  0.00    +0.036 C 
ATOM      7  C   LIG    1       24.978 -17.912   3.415  0.00  0.00    +0.153 C 
ATOM      8  C   LIG    1       26.330 -17.260   3.773  0.00  0.00    +0.154 C 
ATOM      9  F   LIG    1       24.955 -17.986   2.033  0.00  0.00    -0.238 F 
ATOM     10  C   LIG    1       24.767 -19.398   3.973  0.00  0.00    +0.047 C 
ATOM     11  C   LIG    1       23.263 -19.720   4.007  0.00  0.00    -0.020 C 
ATOM     12  C   LIG    1       22.657 -20.410   4.989  0.00  0.00    +0.054 C 
ATOM     13  C   LIG    1       23.397 -20.836   6.194  0.00  0.00    +0.179 C 
ATOM     14  C   LIG    1       24.772 -20.318   6.346  0.00  0.00    +0.047 C 
ATOM     15  O   LIG    1       22.875 -21.526   7.055  0.00  0.00    -0.288 OA
ATOM     16  C   LIG    1       22.465 -19.054   2.930  0.00  0.00    +0.194 C 
ATOM     17  F   LIG    1       21.173 -19.488   2.906  0.00  0.00    -0.241 F 
ATOM     18  C   LIG    1       25.436 -20.425   3.025  0.00  0.00    +0.023 C 
ATOM     19  C   LIG    1       25.378 -19.651   5.351  0.00  0.00    -0.009 C 
ATOM     20  C   LIG    1       22.454 -17.553   3.213  0.00  0.00    +0.048 C 
ATOM     21  C   LIG    1       25.460 -13.721   2.422  0.00  0.00    +0.015 C 
ATOM     22  C   LIG    1       26.470 -15.872   3.148  0.00  0.00    +0.044 C 
ATOM     23  C   LIG    1       23.005 -14.595   4.139  0.00  0.00    +0.011 C 
ENDROOT
BRANCH   3  24
ATOM     24  O   LIG    1       25.424 -15.410   5.841  0.00  0.00    -0.379 OA
ATOM     25  H   LIG    1       26.132 -15.219   6.491  0.00  0.00    +0.211 HD
ENDBRANCH   3  24
BRANCH   3  26
ATOM     26  C   LIG    1       26.383 -13.187   5.202  0.00  0.00    +0.224 C 
ATOM     27  O   LIG    1       26.104 -12.025   5.477  0.00  0.00    -0.282 OA
BRANCH  26  28
ATOM     28  S   LIG    1       28.075 -13.662   5.098  0.00  0.00    -0.052 S 
BRANCH  28  29
ATOM     29  C   LIG    1       28.504 -12.635   3.686  0.00  0.00    +0.290 C 
ATOM     30  F   LIG    1       28.996 -11.447   4.134  0.00  0.00    -0.237 F 
ENDBRANCH  28  29
ENDBRANCH  26  28
ENDBRANCH   3  26
BRANCH   8  31
ATOM     31  O   LIG    1       27.426 -18.052   3.298  0.00  0.00    -0.389 OA
ATOM     32  H   LIG    1       27.051 -18.735   2.710  0.00  0.00    +0.210 HD
ENDBRANCH   8  31
TORSDOF 5
ENDMDL
MODEL 2
REMARK VINA RESULT:      15.5      2.426      6.749
REMARK  Name = *****
REMARK                            x       y       z     vdW  Elec       q    Type
REMARK                         _______ _______ _______ _____ _____    ______ ____
ROOT
ATOM      1  C   LIG    1       27.607 -20.041   6.415  0.00  0.00    +0.011 C 
ATOM      2  C   LIG    1       26.782 -20.130   5.133  0.00  0.00    +0.027 C 
ATOM      3  C   LIG    1       25.280 -19.756   5.290  0.00  0.00    +0.142 C 
ATOM      4  C   LIG    1       24.894 -19.306   3.837  0.00  0.00    +0.010 C 
ATOM      5  C   LIG    1       26.132 -18.478   3.393  0.00  0.00    +0.005 C 
ATOM      6  C   LIG    1       26.151 -16.968   3.762  0.00  0.00    +0.036 C 
ATOM      7  C   LIG    1       24.793 -16.246   3.595  0.00  0.00    +0.153 C 
ATOM      8  C   LIG    1       23.646 -17.054   4.237  0.00  0.00    +0.154 C 
ATOM      9  F   LIG    1       24.539 -16.260   2.234  0.00  0.00    -0.238 F 
ATOM     10  C   LIG    1       24.883 -14.712   4.045  0.00  0.00    +0.047 C 
ATOM     11  C   LIG    1       26.301 -14.184   3.768  0.00  0.00    -0.020 C 
ATOM     12  C   LIG    1       26.976 -13.354   4.583  0.00  0.00    +0.054 C 
ATOM     13  C   LIG    1       26.425 -12.957   5.895  0.00  0.00    +0.179 C 
ATOM     14  C   LIG    1       25.196 -13.649   6.336  0.00  0.00    +0.047 C 
ATOM     15  O   LIG    1       26.994 -12.147   6.609  0.00  0.00    -0.288 OA
ATOM     16  C   LIG    1       26.969 -14.802   2.578  0.00  0.00    +0.194 C 
ATOM     17  F   LIG    1       28.153 -14.197   2.282  0.00  0.00    -0.241 F 
ATOM     18  C   LIG    1       23.902 -13.850   3.212  0.00  0.00    +0.023 C 
ATOM     19  C   LIG    1       24.517 -14.457   5.506  0.00  0.00    -0.009 C 
ATOM     20  C   LIG    1       27.255 -16.265   2.909  0.00  0.00    +0.048 C 
ATOM     21  C   LIG    1       24.755 -20.519   2.872  0.00  0.00    +0.015 C 
ATOM     22  C   LIG    1       23.595 -18.486   3.704  0.00  0.00    +0.044 C 
ATOM     23  C   LIG    1       27.336 -19.205   4.034  0.00  0.00    +0.011 C 
ENDROOT
BRANCH   3  24
ATOM     24  O   LIG    1       25.194 -18.623   6.151  0.00  0.00    -0.379 OA
ATOM     25  H   LIG    1       24.797 -18.905   7.001  0.00  0.00    +0.211 HD
ENDBRANCH   3  24
BRANCH   3  26
ATOM     26  C   LIG    1       24.471 -20.994   5.798  0.00  0.00    +0.224 C 
ATOM     27  O   LIG    1       24.676 -21.564   6.862  0.00  0.00    -0.282 OA
BRANCH  26  28
ATOM     28  S   LIG    1       23.179 -21.571   4.749  0.00  0.00    -0.052 S 
BRANCH  28  29
ATOM     29  C   LIG    1       21.929 -20.388   5.270  0.00  0.00    +0.290 C 
ATOM     30  F   LIG    1       22.403 -19.681   6.333  0.00  0.00    -0.237 F 
ENDBRANCH  28  29
ENDBRANCH  26  28
ENDBRANCH   3  26
BRANCH   8  31
ATOM     31  O   LIG    1       22.374 -16.453   3.961  0.00  0.00    -0.389 OA
ATOM     32  H   LIG    1       21.923 -16.332   4.818  0.00  0.00    +0.210 HD
ENDBRANCH   8  31
TORSDOF 5
ENDMDL
