MODEL 1
REMARK VINA RESULT:      19.6      0.000      0.000
REMARK  Name = *****
REMARK                            x       y       z     vdW  Elec       q    Type
REMARK                         _______ _______ _______ _____ _____    ______ ____
ROOT
ATOM      1  C   LIG    1       26.727 -13.027   3.670  0.00  0.00    +0.132 A 
ATOM      2  C   LIG    1       25.790 -13.999   4.083  0.00  0.00    +0.075 A 
ATOM      3  C   LIG    1       25.727 -15.362   3.484  0.00  0.00    +0.202 C 
ATOM      4  C   LIG    1       24.699 -16.328   3.949  0.00  0.00    +0.078 A 
ATOM      5  C   LIG    1       23.745 -15.950   4.889  0.00  0.00    +0.078 A 
ATOM      6  C   LIG    1       23.848 -14.631   5.537  0.00  0.00    +0.198 C 
ATOM      7  O   LIG    1       23.066 -14.337   6.426  0.00  0.00    -0.286 OA
ATOM      8  C   LIG    1       22.703 -16.831   5.242  0.00  0.00    +0.132 A 
ATOM      9  C   LIG    1       22.643 -18.113   4.695  0.00  0.00    +0.007 A 
ATOM     10  C   LIG    1       21.528 -19.090   5.004  0.00  0.00    +0.082 C 
ATOM     11  C   LIG    1       21.175 -20.027   3.815  0.00  0.00    +0.133 C 
ATOM     12  C   LIG    1       22.376 -20.338   2.879  0.00  0.00    +0.079 C 
ATOM     13  C   LIG    1       23.739 -20.017   3.516  0.00  0.00    +0.158 C 
ATOM     14  C   LIG    1       23.701 -18.550   3.881  0.00  0.00    +0.030 A 
ATOM     15  C   LIG    1       24.684 -17.644   3.461  0.00  0.00    +0.135 A 
ATOM     16  O   LIG    1       26.507 -15.738   2.624  0.00  0.00    -0.286 OA
ATOM     17  C   LIG    1       24.898 -13.685   5.115  0.00  0.00    +0.037 A 
ATOM     18  C   LIG    1       24.962 -12.447   5.772  0.00  0.00    +0.012 A 
ATOM     19  C   LIG    1       25.904 -11.506   5.384  0.00  0.00    +0.004 A 
ATOM     20  C   LIG    1       26.772 -11.791   4.335  0.00  0.00    +0.046 A 
ENDROOT
BRANCH   1  22
ATOM     21  C   LIG    1       28.880 -13.745   2.914  0.00  0.00    +0.277 C 
ATOM     22  O   LIG    1       27.553 -13.324   2.618  0.00  0.00    -0.494 OA
ENDBRANCH   1  22
BRANCH   8  23
ATOM     23  O   LIG    1       21.727 -16.488   6.140  0.00  0.00    -0.506 OA
ATOM     24  H   LIG    1       21.615 -15.510   6.120  0.00  0.00    +0.292 HD
ENDBRANCH   8  23
BRANCH  11  25
ATOM     25  O   LIG    1       20.719 -21.272   4.373  0.00  0.00    -0.381 OA
ATOM     26  H   LIG    1       19.976 -21.082   4.976  0.00  0.00    +0.211 HD
ENDBRANCH  11  25
BRANCH  11  27
ATOM     27  C   LIG    1       20.004 -19.397   3.007  0.00  0.00    +0.190 C 
ATOM     28  O   LIG    1       19.352 -20.033   2.174  0.00  0.00    -0.292 OA
BRANCH  27  29
ATOM     29  C   LIG    1       19.712 -17.907   3.224  0.00  0.00    +0.233 C 
BRANCH  29  30
ATOM     30  O   LIG    1       20.125 -17.101   2.128  0.00  0.00    -0.387 OA
ATOM     31  H   LIG    1       20.320 -16.216   2.490  0.00  0.00    +0.210 HD
ENDBRANCH  29  30
ENDBRANCH  27  29
ENDBRANCH  11  27
BRANCH  15  32
ATOM     32  O   LIG    1       25.612 -18.098   2.561  0.00  0.00    -0.506 OA
ATOM     33  H   LIG    1       26.388 -18.450   3.057  0.00  0.00    +0.292 HD
ENDBRANCH  15  32
BRANCH  13  34
ATOM     34  O   LIG    1       23.922 -20.862   4.671  0.00  0.00    -0.343 OA
BRANCH  34  35
ATOM     35  C   LIG    1       25.281 -20.966   5.149  0.00  0.00    +0.253 C 
ATOM     36  O   LIG    1       25.343 -20.552   6.505  0.00  0.00    -0.346 OA
ATOM     37  C   LIG    1       26.651 -20.317   7.021  0.00  0.00    +0.148 C 
ATOM     38  C   LIG    1       27.528 -21.570   7.061  0.00  0.00    +0.040 C 
ATOM     39  C   LIG    1       27.234 -19.123   6.271  0.00  0.00    +0.160 C 
ATOM     40  C   LIG    1       27.375 -19.407   4.765  0.00  0.00    +0.087 C 
ATOM     41  C   LIG    1       26.165 -20.145   4.177  0.00  0.00    +0.082 C 
BRANCH  40  42
ATOM     42  N   LIG    1       28.642 -20.099   4.451  0.00  0.00    -0.325 NA
ATOM     43  H   LIG    1       28.555 -20.572   3.551  0.00  0.00    +0.119 HD
ATOM     44  H   LIG    1       29.369 -19.388   4.320  0.00  0.00    +0.119 HD
ENDBRANCH  40  42
BRANCH  39  45
ATOM     45  O   LIG    1       28.490 -18.705   6.820  0.00  0.00    -0.388 OA
ATOM     46  H   LIG    1       28.384 -17.772   7.076  0.00  0.00    +0.210 HD
ENDBRANCH  39  45
ENDBRANCH  34  35
ENDBRANCH  13  34
TORSDOF 11
ENDMDL
