MODEL 1
REMARK VINA RESULT:      -6.3      0.000      0.000
REMARK  Name = *****
REMARK                            x       y       z     vdW  Elec       q    Type
REMARK                         _______ _______ _______ _____ _____    ______ ____
ROOT
ATOM      1  C   LIG    1       23.311 -32.281   7.882  0.00  0.00    +0.012 C 
ATOM      2  C   LIG    1       23.927 -32.574   9.256  0.00  0.00    +0.039 C 
ATOM      3  C   LIG    1       25.093 -31.676   9.814  0.00  0.00    +0.189 C 
ATOM      4  C   LIG    1       24.958 -31.960  11.391  0.00  0.00    +0.022 C 
ATOM      5  C   LIG    1       23.424 -32.025  11.641  0.00  0.00    +0.006 C 
ATOM      6  C   LIG    1       22.703 -30.778  12.198  0.00  0.00    +0.037 C 
ATOM      7  C   LIG    1       23.499 -30.048  13.310  0.00  0.00    +0.153 C 
ATOM      8  C   LIG    1       24.872 -29.686  12.692  0.00  0.00    +0.154 C 
ATOM      9  F   LIG    1       23.742 -30.991  14.290  0.00  0.00    -0.238 F 
ATOM     10  C   LIG    1       22.701 -28.853  14.016  0.00  0.00    +0.047 C 
ATOM     11  C   LIG    1       21.187 -29.176  14.210  0.00  0.00    -0.020 C 
ATOM     12  C   LIG    1       20.389 -28.201  14.708  0.00  0.00    +0.054 C 
ATOM     13  C   LIG    1       20.373 -27.049  13.728  0.00  0.00    +0.179 C 
ATOM     14  C   LIG    1       21.691 -26.704  13.114  0.00  0.00    +0.047 C 
ATOM     15  O   LIG    1       19.370 -26.376  13.545  0.00  0.00    -0.288 OA
ATOM     16  C   LIG    1       20.527 -30.040  13.158  0.00  0.00    +0.194 C 
ATOM     17  F   LIG    1       20.320 -29.321  12.016  0.00  0.00    -0.241 F 
ATOM     18  C   LIG    1       23.335 -28.571  15.412  0.00  0.00    +0.023 C 
ATOM     19  C   LIG    1       22.757 -27.514  13.266  0.00  0.00    -0.009 C 
ATOM     20  C   LIG    1       21.355 -31.239  12.778  0.00  0.00    +0.048 C 
ATOM     21  C   LIG    1       25.420 -33.387  11.848  0.00  0.00    +0.016 C 
ATOM     22  C   LIG    1       25.663 -30.944  12.311  0.00  0.00    +0.046 C 
ATOM     23  C   LIG    1       22.819 -32.553  10.326  0.00  0.00    +0.012 C 
ENDROOT
BRANCH   3  24
ATOM     24  C   LIG    1       26.425 -32.044   9.033  0.00  0.00    +0.236 C 
ATOM     25  O   LIG    1       27.513 -32.091   9.608  0.00  0.00    -0.281 OA
BRANCH  24  26
ATOM     26  S   LIG    1       26.447 -32.190   7.280  0.00  0.00    -0.051 S 
BRANCH  26  27
ATOM     27  C   LIG    1       27.721 -33.450   7.079  0.00  0.00    +0.290 C 
ATOM     28  F   LIG    1       28.692 -33.037   6.233  0.00  0.00    -0.237 F 
ENDBRANCH  26  27
ENDBRANCH  24  26
ENDBRANCH   3  24
BRANCH   8  29
ATOM     29  O   LIG    1       25.696 -28.891  13.539  0.00  0.00    -0.389 OA
ATOM     30  H   LIG    1       25.506 -29.125  14.466  0.00  0.00    +0.210 HD
ENDBRANCH   8  29
BRANCH   3  31
ATOM     31  O   LIG    1       24.736 -30.289   9.464  0.00  0.00    -0.443 OA
BRANCH  31  32
ATOM     32  C   LIG    1       25.758 -29.416   9.117  0.00  0.00    +0.376 C 
ATOM     33  O   LIG    1       26.796 -29.320   9.745  0.00  0.00    -0.241 OA
BRANCH  32  34
ATOM     34  C   LIG    1       25.452 -28.655   7.911  0.00  0.00    +0.211 A 
ATOM     35  O   LIG    1       26.100 -27.483   7.617  0.00  0.00    -0.456 OA
ATOM     36  C   LIG    1       25.536 -26.987   6.483  0.00  0.00    +0.196 A 
ATOM     37  C   LIG    1       24.538 -27.820   6.026  0.00  0.00    +0.042 A 
ATOM     38  C   LIG    1       24.504 -28.903   6.938  0.00  0.00    +0.056 A 
ENDBRANCH  32  34
ENDBRANCH  31  32
ENDBRANCH   3  31
TORSDOF 7
ENDMDL
MODEL 2
REMARK VINA RESULT:      -6.1      2.724      3.465
REMARK  Name = *****
REMARK                            x       y       z     vdW  Elec       q    Type
REMARK                         _______ _______ _______ _____ _____    ______ ____
ROOT
ATOM      1  C   LIG    1       22.288 -30.443  10.188  0.00  0.00    +0.012 C 
ATOM      2  C   LIG    1       23.277 -30.910  11.264  0.00  0.00    +0.039 C 
ATOM      3  C   LIG    1       24.827 -30.860  10.996  0.00  0.00    +0.189 C 
ATOM      4  C   LIG    1       25.388 -30.841  12.503  0.00  0.00    +0.022 C 
ATOM      5  C   LIG    1       24.390 -29.930  13.273  0.00  0.00    +0.006 C 
ATOM      6  C   LIG    1       24.768 -28.453  13.527  0.00  0.00    +0.037 C 
ATOM      7  C   LIG    1       26.252 -28.253  13.926  0.00  0.00    +0.153 C 
ATOM      8  C   LIG    1       27.094 -28.871  12.782  0.00  0.00    +0.154 C 
ATOM      9  F   LIG    1       26.459 -29.043  15.041  0.00  0.00    -0.238 F 
ATOM     10  C   LIG    1       26.625 -26.756  14.354  0.00  0.00    +0.047 C 
ATOM     11  C   LIG    1       25.487 -26.065  15.168  0.00  0.00    -0.020 C 
ATOM     12  C   LIG    1       25.647 -24.761  15.500  0.00  0.00    +0.054 C 
ATOM     13  C   LIG    1       25.704 -23.947  14.227  0.00  0.00    +0.179 C 
ATOM     14  C   LIG    1       26.501 -24.544  13.112  0.00  0.00    +0.047 C 
ATOM     15  O   LIG    1       25.226 -22.824  14.162  0.00  0.00    -0.288 OA
ATOM     16  C   LIG    1       24.064 -26.447  14.823  0.00  0.00    +0.194 C 
ATOM     17  F   LIG    1       23.692 -25.871  13.642  0.00  0.00    -0.241 F 
ATOM     18  C   LIG    1       27.918 -26.781  15.223  0.00  0.00    +0.023 C 
ATOM     19  C   LIG    1       26.940 -25.815  13.181  0.00  0.00    -0.009 C 
ATOM     20  C   LIG    1       23.876 -27.933  14.667  0.00  0.00    +0.048 C 
ATOM     21  C   LIG    1       25.250 -32.197  13.277  0.00  0.00    +0.016 C 
ATOM     22  C   LIG    1       26.851 -30.381  12.661  0.00  0.00    +0.046 C 
ATOM     23  C   LIG    1       23.039 -30.107  12.557  0.00  0.00    +0.012 C 
ENDROOT
BRANCH   3  24
ATOM     24  C   LIG    1       25.201 -32.042  10.005  0.00  0.00    +0.236 C 
ATOM     25  O   LIG    1       26.281 -32.628  10.085  0.00  0.00    -0.281 OA
BRANCH  24  26
ATOM     26  S   LIG    1       24.190 -32.427   8.617  0.00  0.00    -0.051 S 
BRANCH  26  27
ATOM     27  C   LIG    1       25.416 -33.166   7.521  0.00  0.00    +0.290 C 
ATOM     28  F   LIG    1       26.136 -32.219   6.877  0.00  0.00    -0.237 F 
ENDBRANCH  26  27
ENDBRANCH  24  26
ENDBRANCH   3  24
BRANCH   8  29
ATOM     29  O   LIG    1       28.497 -28.664  12.921  0.00  0.00    -0.389 OA
ATOM     30  H   LIG    1       28.962 -29.260  12.306  0.00  0.00    +0.210 HD
ENDBRANCH   8  29
BRANCH   3  31
ATOM     31  O   LIG    1       25.074 -29.589  10.292  0.00  0.00    -0.443 OA
BRANCH  31  32
ATOM     32  C   LIG    1       26.041 -29.567   9.296  0.00  0.00    +0.376 C 
ATOM     33  O   LIG    1       27.152 -30.045   9.434  0.00  0.00    -0.241 OA
BRANCH  32  34
ATOM     34  C   LIG    1       25.563 -28.933   8.073  0.00  0.00    +0.211 A 
ATOM     35  O   LIG    1       26.055 -27.725   7.650  0.00  0.00    -0.456 OA
ATOM     36  C   LIG    1       25.356 -27.374   6.537  0.00  0.00    +0.196 A 
ATOM     37  C   LIG    1       24.423 -28.337   6.221  0.00  0.00    +0.042 A 
ATOM     38  C   LIG    1       24.575 -29.347   7.201  0.00  0.00    +0.056 A 
ENDBRANCH  32  34
ENDBRANCH  31  32
ENDBRANCH   3  31
TORSDOF 7
ENDMDL
MODEL 3
REMARK VINA RESULT:      -5.6      2.030      3.011
REMARK  Name = *****
REMARK                            x       y       z     vdW  Elec       q    Type
REMARK                         _______ _______ _______ _____ _____    ______ ____
ROOT
ATOM      1  C   LIG    1       22.891 -33.225   7.328  0.00  0.00    +0.012 C 
ATOM      2  C   LIG    1       24.302 -33.168   7.930  0.00  0.00    +0.039 C 
ATOM      3  C   LIG    1       25.215 -31.907   7.699  0.00  0.00    +0.189 C 
ATOM      4  C   LIG    1       26.228 -32.045   8.941  0.00  0.00    +0.022 C 
ATOM      5  C   LIG    1       25.334 -32.536  10.115  0.00  0.00    +0.006 C 
ATOM      6  C   LIG    1       24.821 -31.508  11.148  0.00  0.00    +0.037 C 
ATOM      7  C   LIG    1       25.885 -30.456  11.554  0.00  0.00    +0.153 C 
ATOM      8  C   LIG    1       26.339 -29.771  10.242  0.00  0.00    +0.154 C 
ATOM      9  F   LIG    1       26.970 -31.170  12.025  0.00  0.00    -0.238 F 
ATOM     10  C   LIG    1       25.430 -29.484  12.743  0.00  0.00    +0.047 C 
ATOM     11  C   LIG    1       24.590 -30.221  13.831  0.00  0.00    -0.020 C 
ATOM     12  C   LIG    1       24.065 -29.480  14.837  0.00  0.00    +0.054 C 
ATOM     13  C   LIG    1       23.078 -28.500  14.244  0.00  0.00    +0.179 C 
ATOM     14  C   LIG    1       23.501 -27.847  12.968  0.00  0.00    +0.047 C 
ATOM     15  O   LIG    1       22.057 -28.182  14.835  0.00  0.00    -0.288 OA
ATOM     16  C   LIG    1       23.700 -31.353  13.365  0.00  0.00    +0.194 C 
ATOM     17  F   LIG    1       22.601 -30.857  12.724  0.00  0.00    -0.241 F 
ATOM     18  C   LIG    1       26.698 -28.875  13.415  0.00  0.00    +0.023 C 
ATOM     19  C   LIG    1       24.587 -28.280  12.298  0.00  0.00    -0.009 C 
ATOM     20  C   LIG    1       24.389 -32.284  12.403  0.00  0.00    +0.048 C 
ATOM     21  C   LIG    1       27.270 -33.209   8.819  0.00  0.00    +0.016 C 
ATOM     22  C   LIG    1       27.019 -30.770   9.296  0.00  0.00    +0.046 C 
ATOM     23  C   LIG    1       24.212 -33.361   9.456  0.00  0.00    +0.012 C 
ENDROOT
BRANCH   3  24
ATOM     24  C   LIG    1       25.751 -31.944   6.206  0.00  0.00    +0.236 C 
ATOM     25  O   LIG    1       26.405 -31.013   5.737  0.00  0.00    -0.281 OA
BRANCH  24  26
ATOM     26  S   LIG    1       25.259 -33.211   5.089  0.00  0.00    -0.051 S 
BRANCH  26  27
ATOM     27  C   LIG    1       26.289 -32.804   3.667  0.00  0.00    +0.290 C 
ATOM     28  F   LIG    1       25.545 -32.342   2.636  0.00  0.00    -0.237 F 
ENDBRANCH  26  27
ENDBRANCH  24  26
ENDBRANCH   3  24
BRANCH   8  29
ATOM     29  O   LIG    1       27.231 -28.678  10.439  0.00  0.00    -0.389 OA
ATOM     30  H   LIG    1       26.710 -27.889  10.673  0.00  0.00    +0.210 HD
ENDBRANCH   8  29
BRANCH   3  31
ATOM     31  O   LIG    1       24.328 -30.737   7.829  0.00  0.00    -0.443 OA
BRANCH  31  32
ATOM     32  C   LIG    1       24.008 -30.026   6.682  0.00  0.00    +0.376 C 
ATOM     33  O   LIG    1       23.256 -30.448   5.822  0.00  0.00    -0.241 OA
BRANCH  32  34
ATOM     34  C   LIG    1       24.652 -28.718   6.642  0.00  0.00    +0.211 A 
ATOM     35  O   LIG    1       25.612 -28.361   7.553  0.00  0.00    -0.456 OA
ATOM     36  C   LIG    1       25.949 -27.069   7.296  0.00  0.00    +0.196 A 
ATOM     37  C   LIG    1       25.232 -26.579   6.227  0.00  0.00    +0.042 A 
ATOM     38  C   LIG    1       24.415 -27.651   5.797  0.00  0.00    +0.056 A 
ENDBRANCH  32  34
ENDBRANCH  31  32
ENDBRANCH   3  31
TORSDOF 7
ENDMDL
MODEL 4
REMARK VINA RESULT:      -5.0      3.024      7.353
REMARK  Name = *****
REMARK                            x       y       z     vdW  Elec       q    Type
REMARK                         _______ _______ _______ _____ _____    ______ ____
ROOT
ATOM      1  C   LIG    1       22.993 -26.743  13.247  0.00  0.00    +0.012 C 
ATOM      2  C   LIG    1       23.601 -28.085  13.675  0.00  0.00    +0.039 C 
ATOM      3  C   LIG    1       22.749 -29.406  13.597  0.00  0.00    +0.189 C 
ATOM      4  C   LIG    1       23.918 -30.509  13.541  0.00  0.00    +0.022 C 
ATOM      5  C   LIG    1       25.011 -29.868  12.639  0.00  0.00    +0.006 C 
ATOM      6  C   LIG    1       25.087 -30.276  11.151  0.00  0.00    +0.037 C 
ATOM      7  C   LIG    1       24.874 -31.793  10.913  0.00  0.00    +0.153 C 
ATOM      8  C   LIG    1       23.497 -32.138  11.531  0.00  0.00    +0.154 C 
ATOM      9  F   LIG    1       25.826 -32.438  11.680  0.00  0.00    -0.238 F 
ATOM     10  C   LIG    1       25.113 -32.263   9.401  0.00  0.00    +0.047 C 
ATOM     11  C   LIG    1       26.302 -31.516   8.722  0.00  0.00    -0.020 C 
ATOM     12  C   LIG    1       26.537 -31.758   7.410  0.00  0.00    +0.054 C 
ATOM     13  C   LIG    1       25.338 -31.293   6.615  0.00  0.00    +0.179 C 
ATOM     14  C   LIG    1       24.004 -31.607   7.212  0.00  0.00    +0.047 C 
ATOM     15  O   LIG    1       25.457 -30.799   5.504  0.00  0.00    -0.288 OA
ATOM     16  C   LIG    1       26.542 -30.081   9.140  0.00  0.00    +0.194 C 
ATOM     17  F   LIG    1       25.597 -29.263   8.591  0.00  0.00    -0.241 F 
ATOM     18  C   LIG    1       25.409 -33.793   9.385  0.00  0.00    +0.023 C 
ATOM     19  C   LIG    1       23.905 -32.072   8.473  0.00  0.00    -0.009 C 
ATOM     20  C   LIG    1       26.482 -29.885  10.632  0.00  0.00    +0.048 C 
ATOM     21  C   LIG    1       24.694 -30.720  14.887  0.00  0.00    +0.016 C 
ATOM     22  C   LIG    1       23.490 -31.906  13.047  0.00  0.00    +0.046 C 
ATOM     23  C   LIG    1       24.880 -28.349  12.857  0.00  0.00    +0.012 C 
ENDROOT
BRANCH   3  24
ATOM     24  C   LIG    1       21.698 -29.395  14.786  0.00  0.00    +0.236 C 
ATOM     25  O   LIG    1       21.419 -28.357  15.385  0.00  0.00    -0.281 OA
BRANCH  24  26
ATOM     26  S   LIG    1       21.046 -30.891  15.443  0.00  0.00    -0.051 S 
BRANCH  26  27
ATOM     27  C   LIG    1       19.292 -30.479  15.500  0.00  0.00    +0.290 C 
ATOM     28  F   LIG    1       18.523 -31.561  15.239  0.00  0.00    -0.237 F 
ENDBRANCH  26  27
ENDBRANCH  24  26
ENDBRANCH   3  24
BRANCH   8  29
ATOM     29  O   LIG    1       23.076 -33.478  11.291  0.00  0.00    -0.389 OA
ATOM     30  H   LIG    1       22.135 -33.556  11.531  0.00  0.00    +0.210 HD
ENDBRANCH   8  29
BRANCH   3  31
ATOM     31  O   LIG    1       21.997 -29.326  12.332  0.00  0.00    -0.443 OA
BRANCH  31  32
ATOM     32  C   LIG    1       20.617 -29.472  12.378  0.00  0.00    +0.376 C 
ATOM     33  O   LIG    1       19.876 -28.649  12.882  0.00  0.00    -0.241 OA
BRANCH  32  34
ATOM     34  C   LIG    1       20.167 -30.702  11.737  0.00  0.00    +0.211 A 
ATOM     35  O   LIG    1       19.984 -31.859  12.450  0.00  0.00    -0.456 OA
ATOM     36  C   LIG    1       19.644 -32.829  11.559  0.00  0.00    +0.196 A 
ATOM     37  C   LIG    1       19.591 -32.323  10.279  0.00  0.00    +0.042 A 
ATOM     38  C   LIG    1       19.908 -30.949  10.403  0.00  0.00    +0.056 A 
ENDBRANCH  32  34
ENDBRANCH  31  32
ENDBRANCH   3  31
TORSDOF 7
ENDMDL
MODEL 5
REMARK VINA RESULT:      -4.8      2.578      7.147
REMARK  Name = *****
REMARK                            x       y       z     vdW  Elec       q    Type
REMARK                         _______ _______ _______ _____ _____    ______ ____
ROOT
ATOM      1  C   LIG    1       24.337 -28.702  13.358  0.00  0.00    +0.012 C 
ATOM      2  C   LIG    1       24.824 -29.852  12.466  0.00  0.00    +0.039 C 
ATOM      3  C   LIG    1       23.808 -30.641  11.560  0.00  0.00    +0.189 C 
ATOM      4  C   LIG    1       24.806 -31.245  10.452  0.00  0.00    +0.022 C 
ATOM      5  C   LIG    1       25.830 -30.103  10.194  0.00  0.00    +0.006 C 
ATOM      6  C   LIG    1       25.638 -29.191   8.961  0.00  0.00    +0.037 C 
ATOM      7  C   LIG    1       25.201 -29.956   7.686  0.00  0.00    +0.153 C 
ATOM      8  C   LIG    1       23.895 -30.701   8.056  0.00  0.00    +0.154 C 
ATOM      9  F   LIG    1       26.163 -30.925   7.472  0.00  0.00    -0.238 F 
ATOM     10  C   LIG    1       25.158 -29.058   6.361  0.00  0.00    +0.047 C 
ATOM     11  C   LIG    1       26.322 -28.022   6.301  0.00  0.00    -0.020 C 
ATOM     12  C   LIG    1       26.332 -27.138   5.274  0.00  0.00    +0.054 C 
ATOM     13  C   LIG    1       25.100 -26.268   5.378  0.00  0.00    +0.179 C 
ATOM     14  C   LIG    1       23.837 -26.976   5.750  0.00  0.00    +0.047 C 
ATOM     15  O   LIG    1       25.120 -25.088   5.063  0.00  0.00    -0.288 OA
ATOM     16  C   LIG    1       26.801 -27.448   7.617  0.00  0.00    +0.194 C 
ATOM     17  F   LIG    1       25.898 -26.542   8.095  0.00  0.00    -0.241 F 
ATOM     18  C   LIG    1       25.250 -29.988   5.113  0.00  0.00    +0.023 C 
ATOM     19  C   LIG    1       23.862 -28.254   6.175  0.00  0.00    -0.009 C 
ATOM     20  C   LIG    1       26.982 -28.494   8.684  0.00  0.00    +0.048 C 
ATOM     21  C   LIG    1       25.734 -32.402  10.959  0.00  0.00    +0.016 C 
ATOM     22  C   LIG    1       24.136 -31.742   9.156  0.00  0.00    +0.046 C 
ATOM     23  C   LIG    1       25.927 -29.332  11.524  0.00  0.00    +0.012 C 
ENDROOT
BRANCH   3  24
ATOM     24  C   LIG    1       22.950 -31.600  12.489  0.00  0.00    +0.236 C 
ATOM     25  O   LIG    1       22.848 -31.398  13.698  0.00  0.00    -0.281 OA
BRANCH  24  26
ATOM     26  S   LIG    1       22.282 -33.108  11.876  0.00  0.00    -0.051 S 
BRANCH  26  27
ATOM     27  C   LIG    1       20.806 -33.246  12.902  0.00  0.00    +0.290 C 
ATOM     28  F   LIG    1       19.695 -32.888  12.217  0.00  0.00    -0.237 F 
ENDBRANCH  26  27
ENDBRANCH  24  26
ENDBRANCH   3  24
BRANCH   8  29
ATOM     29  O   LIG    1       23.276 -31.361   6.955  0.00  0.00    -0.389 OA
ATOM     30  H   LIG    1       23.868 -32.071   6.646  0.00  0.00    +0.210 HD
ENDBRANCH   8  29
BRANCH   3  31
ATOM     31  O   LIG    1       22.897 -29.628  10.997  0.00  0.00    -0.443 OA
BRANCH  31  32
ATOM     32  C   LIG    1       21.531 -29.864  11.063  0.00  0.00    +0.376 C 
ATOM     33  O   LIG    1       20.934 -30.555  10.259  0.00  0.00    -0.241 OA
BRANCH  32  34
ATOM     34  C   LIG    1       20.910 -29.213  12.211  0.00  0.00    +0.211 A 
ATOM     35  O   LIG    1       19.978 -29.855  12.984  0.00  0.00    -0.456 OA
ATOM     36  C   LIG    1       19.540 -28.960  13.911  0.00  0.00    +0.196 A 
ATOM     37  C   LIG    1       20.178 -27.749  13.763  0.00  0.00    +0.042 A 
ATOM     38  C   LIG    1       21.074 -27.924  12.680  0.00  0.00    +0.056 A 
ENDBRANCH  32  34
ENDBRANCH  31  32
ENDBRANCH   3  31
TORSDOF 7
ENDMDL
MODEL 6
REMARK VINA RESULT:      -4.8      2.897      7.317
REMARK  Name = *****
REMARK                            x       y       z     vdW  Elec       q    Type
REMARK                         _______ _______ _______ _____ _____    ______ ____
ROOT
ATOM      1  C   LIG    1       24.273 -27.476  13.760  0.00  0.00    +0.012 C 
ATOM      2  C   LIG    1       24.562 -28.982  13.812  0.00  0.00    +0.039 C 
ATOM      3  C   LIG    1       23.417 -30.022  13.520  0.00  0.00    +0.189 C 
ATOM      4  C   LIG    1       24.286 -31.310  13.102  0.00  0.00    +0.022 C 
ATOM      5  C   LIG    1       25.460 -30.726  12.266  0.00  0.00    +0.006 C 
ATOM      6  C   LIG    1       25.374 -30.767  10.724  0.00  0.00    +0.037 C 
ATOM      7  C   LIG    1       24.796 -32.095  10.171  0.00  0.00    +0.153 C 
ATOM      8  C   LIG    1       23.404 -32.266  10.827  0.00  0.00    +0.154 C 
ATOM      9  F   LIG    1       25.598 -33.101  10.675  0.00  0.00    -0.238 F 
ATOM     10  C   LIG    1       24.852 -32.225   8.576  0.00  0.00    +0.047 C 
ATOM     11  C   LIG    1       26.155 -31.617   7.971  0.00  0.00    -0.020 C 
ATOM     12  C   LIG    1       26.270 -31.579   6.621  0.00  0.00    +0.054 C 
ATOM     13  C   LIG    1       25.183 -30.681   6.073  0.00  0.00    +0.179 C 
ATOM     14  C   LIG    1       23.840 -30.828   6.712  0.00  0.00    +0.047 C 
ATOM     15  O   LIG    1       25.370 -29.971   5.097  0.00  0.00    -0.288 OA
ATOM     16  C   LIG    1       26.748 -30.417   8.677  0.00  0.00    +0.194 C 
ATOM     17  F   LIG    1       26.002 -29.302   8.423  0.00  0.00    -0.241 F 
ATOM     18  C   LIG    1       24.774 -33.731   8.185  0.00  0.00    +0.023 C 
ATOM     19  C   LIG    1       23.686 -31.551   7.838  0.00  0.00    -0.009 C 
ATOM     20  C   LIG    1       26.799 -30.581  10.173  0.00  0.00    +0.048 C 
ATOM     21  C   LIG    1       25.045 -32.007  14.283  0.00  0.00    +0.016 C 
ATOM     22  C   LIG    1       23.516 -32.413  12.349  0.00  0.00    +0.046 C 
ATOM     23  C   LIG    1       25.705 -29.316  12.834  0.00  0.00    +0.012 C 
ENDROOT
BRANCH   3  24
ATOM     24  C   LIG    1       22.450 -30.068  14.778  0.00  0.00    +0.236 C 
ATOM     25  O   LIG    1       22.219 -29.061  15.446  0.00  0.00    -0.281 OA
BRANCH  24  26
ATOM     26  S   LIG    1       21.835 -31.593  15.403  0.00  0.00    -0.051 S 
BRANCH  26  27
ATOM     27  C   LIG    1       20.074 -31.216  15.496  0.00  0.00    +0.290 C 
ATOM     28  F   LIG    1       19.432 -31.579  14.362  0.00  0.00    -0.237 F 
ENDBRANCH  26  27
ENDBRANCH  24  26
ENDBRANCH   3  24
BRANCH   8  29
ATOM     29  O   LIG    1       22.666 -33.380  10.332  0.00  0.00    -0.389 OA
ATOM     30  H   LIG    1       22.550 -34.022  11.056  0.00  0.00    +0.210 HD
ENDBRANCH   8  29
BRANCH   3  31
ATOM     31  O   LIG    1       22.652 -29.473  12.386  0.00  0.00    -0.443 OA
BRANCH  31  32
ATOM     32  C   LIG    1       21.270 -29.590  12.408  0.00  0.00    +0.376 C 
ATOM     33  O   LIG    1       20.677 -30.578  12.015  0.00  0.00    -0.241 OA
BRANCH  32  34
ATOM     34  C   LIG    1       20.622 -28.413  12.976  0.00  0.00    +0.211 A 
ATOM     35  O   LIG    1       19.462 -28.510  13.701  0.00  0.00    -0.456 OA
ATOM     36  C   LIG    1       19.078 -27.243  14.015  0.00  0.00    +0.196 A 
ATOM     37  C   LIG    1       19.972 -26.322  13.516  0.00  0.00    +0.042 A 
ATOM     38  C   LIG    1       20.975 -27.082  12.867  0.00  0.00    +0.056 A 
ENDBRANCH  32  34
ENDBRANCH  31  32
ENDBRANCH   3  31
TORSDOF 7
ENDMDL
MODEL 7
REMARK VINA RESULT:      -4.7      2.708      4.595
REMARK  Name = *****
REMARK                            x       y       z     vdW  Elec       q    Type
REMARK                         _______ _______ _______ _____ _____    ______ ____
ROOT
ATOM      1  C   LIG    1       24.025 -29.857   8.378  0.00  0.00    +0.012 C 
ATOM      2  C   LIG    1       24.165 -31.052   9.330  0.00  0.00    +0.039 C 
ATOM      3  C   LIG    1       24.463 -30.821  10.859  0.00  0.00    +0.189 C 
ATOM      4  C   LIG    1       23.925 -32.204  11.478  0.00  0.00    +0.022 C 
ATOM      5  C   LIG    1       22.641 -32.520  10.658  0.00  0.00    +0.006 C 
ATOM      6  C   LIG    1       21.263 -32.165  11.260  0.00  0.00    +0.037 C 
ATOM      7  C   LIG    1       21.147 -32.482  12.773  0.00  0.00    +0.153 C 
ATOM      8  C   LIG    1       22.293 -31.703  13.466  0.00  0.00    +0.154 C 
ATOM      9  F   LIG    1       21.444 -33.825  12.907  0.00  0.00    -0.238 F 
ATOM     10  C   LIG    1       19.680 -32.278  13.379  0.00  0.00    +0.047 C 
ATOM     11  C   LIG    1       18.556 -32.719  12.391  0.00  0.00    -0.020 C 
ATOM     12  C   LIG    1       17.269 -32.500  12.754  0.00  0.00    +0.054 C 
ATOM     13  C   LIG    1       17.054 -31.009  12.879  0.00  0.00    +0.179 C 
ATOM     14  C   LIG    1       18.162 -30.247  13.532  0.00  0.00    +0.047 C 
ATOM     15  O   LIG    1       15.994 -30.486  12.570  0.00  0.00    -0.288 OA
ATOM     16  C   LIG    1       18.824 -32.526  10.914  0.00  0.00    +0.194 C 
ATOM     17  F   LIG    1       18.722 -31.206  10.582  0.00  0.00    -0.241 F 
ATOM     18  C   LIG    1       19.550 -33.112  14.689  0.00  0.00    +0.023 C 
ATOM     19  C   LIG    1       19.349 -30.833  13.781  0.00  0.00    -0.009 C 
ATOM     20  C   LIG    1       20.200 -32.978  10.502  0.00  0.00    +0.048 C 
ATOM     21  C   LIG    1       24.818 -33.456  11.173  0.00  0.00    +0.016 C 
ATOM     22  C   LIG    1       23.668 -32.195  12.998  0.00  0.00    +0.046 C 
ATOM     23  C   LIG    1       22.884 -31.906   9.267  0.00  0.00    +0.012 C 
ENDROOT
BRANCH   3  24
ATOM     24  C   LIG    1       25.985 -30.399  11.013  0.00  0.00    +0.236 C 
ATOM     25  O   LIG    1       26.704 -30.901  11.876  0.00  0.00    -0.281 OA
BRANCH  24  26
ATOM     26  S   LIG    1       26.656 -29.049  10.107  0.00  0.00    -0.051 S 
BRANCH  26  27
ATOM     27  C   LIG    1       27.417 -28.110  11.445  0.00  0.00    +0.290 C 
ATOM     28  F   LIG    1       26.712 -26.990  11.724  0.00  0.00    -0.237 F 
ENDBRANCH  26  27
ENDBRANCH  24  26
ENDBRANCH   3  24
BRANCH   8  29
ATOM     29  O   LIG    1       22.262 -31.777  14.889  0.00  0.00    -0.389 OA
ATOM     30  H   LIG    1       23.050 -31.325  15.241  0.00  0.00    +0.210 HD
ENDBRANCH   8  29
BRANCH   3  31
ATOM     31  O   LIG    1       23.635 -29.670  11.261  0.00  0.00    -0.443 OA
BRANCH  31  32
ATOM     32  C   LIG    1       23.867 -29.097  12.504  0.00  0.00    +0.376 C 
ATOM     33  O   LIG    1       24.866 -29.315  13.163  0.00  0.00    -0.241 OA
BRANCH  32  34
ATOM     34  C   LIG    1       22.794 -28.196  12.909  0.00  0.00    +0.211 A 
ATOM     35  O   LIG    1       22.999 -27.203  13.831  0.00  0.00    -0.456 OA
ATOM     36  C   LIG    1       21.798 -26.601  14.047  0.00  0.00    +0.196 A 
ATOM     37  C   LIG    1       20.815 -27.177  13.273  0.00  0.00    +0.042 A 
ATOM     38  C   LIG    1       21.466 -28.189  12.528  0.00  0.00    +0.056 A 
ENDBRANCH  32  34
ENDBRANCH  31  32
ENDBRANCH   3  31
TORSDOF 7
ENDMDL
MODEL 8
REMARK VINA RESULT:      -4.4      3.158      4.740
REMARK  Name = *****
REMARK                            x       y       z     vdW  Elec       q    Type
REMARK                         _______ _______ _______ _____ _____    ______ ____
ROOT
ATOM      1  C   LIG    1       20.617 -30.219  11.514  0.00  0.00    +0.012 C 
ATOM      2  C   LIG    1       21.610 -30.929  12.444  0.00  0.00    +0.039 C 
ATOM      3  C   LIG    1       23.012 -31.396  11.903  0.00  0.00    +0.189 C 
ATOM      4  C   LIG    1       23.843 -31.488  13.277  0.00  0.00    +0.022 C 
ATOM      5  C   LIG    1       23.352 -30.268  14.107  0.00  0.00    +0.006 C 
ATOM      6  C   LIG    1       24.210 -28.983  14.127  0.00  0.00    +0.037 C 
ATOM      7  C   LIG    1       25.731 -29.255  14.235  0.00  0.00    +0.153 C 
ATOM      8  C   LIG    1       26.093 -30.165  13.035  0.00  0.00    +0.154 C 
ATOM      9  F   LIG    1       25.905 -30.015  15.376  0.00  0.00    -0.238 F 
ATOM     10  C   LIG    1       26.625 -27.940  14.424  0.00  0.00    +0.047 C 
ATOM     11  C   LIG    1       25.945 -26.881  15.345  0.00  0.00    -0.020 C 
ATOM     12  C   LIG    1       26.562 -25.684  15.500  0.00  0.00    +0.054 C 
ATOM     13  C   LIG    1       26.609 -24.993  14.156  0.00  0.00    +0.179 C 
ATOM     14  C   LIG    1       26.941 -25.868  12.990  0.00  0.00    +0.047 C 
ATOM     15  O   LIG    1       26.498 -23.781  14.054  0.00  0.00    -0.288 OA
ATOM     16  C   LIG    1       24.434 -26.798  15.300  0.00  0.00    +0.194 C 
ATOM     17  F   LIG    1       24.028 -26.189  14.148  0.00  0.00    -0.241 F 
ATOM     18  C   LIG    1       27.995 -28.341  15.050  0.00  0.00    +0.023 C 
ATOM     19  C   LIG    1       26.972 -27.208  13.119  0.00  0.00    -0.009 C 
ATOM     20  C   LIG    1       23.770 -28.149  15.343  0.00  0.00    +0.048 C 
ATOM     21  C   LIG    1       23.454 -32.688  14.207  0.00  0.00    +0.016 C 
ATOM     22  C   LIG    1       25.377 -31.519  13.124  0.00  0.00    +0.046 C 
ATOM     23  C   LIG    1       21.896 -30.032  13.663  0.00  0.00    +0.012 C 
ENDROOT
BRANCH   3  24
ATOM     24  C   LIG    1       22.797 -32.681  10.997  0.00  0.00    +0.236 C 
ATOM     25  O   LIG    1       23.628 -33.588  10.962  0.00  0.00    -0.281 OA
BRANCH  24  26
ATOM     26  S   LIG    1       21.472 -32.773   9.843  0.00  0.00    -0.051 S 
BRANCH  26  27
ATOM     27  C   LIG    1       20.324 -33.824  10.754  0.00  0.00    +0.290 C 
ATOM     28  F   LIG    1       19.071 -33.737  10.252  0.00  0.00    -0.237 F 
ENDBRANCH  26  27
ENDBRANCH  24  26
ENDBRANCH   3  24
BRANCH   8  29
ATOM     29  O   LIG    1       27.489 -30.416  12.901  0.00  0.00    -0.389 OA
ATOM     30  H   LIG    1       27.618 -31.361  12.701  0.00  0.00    +0.210 HD
ENDBRANCH   8  29
BRANCH   3  31
ATOM     31  O   LIG    1       23.492 -30.308  11.033  0.00  0.00    -0.443 OA
BRANCH  31  32
ATOM     32  C   LIG    1       23.736 -30.595   9.697  0.00  0.00    +0.376 C 
ATOM     33  O   LIG    1       22.887 -30.508   8.829  0.00  0.00    -0.241 OA
BRANCH  32  34
ATOM     34  C   LIG    1       25.121 -30.985   9.457  0.00  0.00    +0.211 A 
ATOM     35  O   LIG    1       26.170 -30.230   9.916  0.00  0.00    -0.456 OA
ATOM     36  C   LIG    1       27.312 -30.813   9.463  0.00  0.00    +0.196 A 
ATOM     37  C   LIG    1       27.028 -31.941   8.726  0.00  0.00    +0.042 A 
ATOM     38  C   LIG    1       25.617 -32.058   8.744  0.00  0.00    +0.056 A 
ENDBRANCH  32  34
ENDBRANCH  31  32
ENDBRANCH   3  31
TORSDOF 7
ENDMDL
MODEL 9
REMARK VINA RESULT:      -4.4      3.661      6.047
REMARK  Name = *****
REMARK                            x       y       z     vdW  Elec       q    Type
REMARK                         _______ _______ _______ _____ _____    ______ ____
ROOT
ATOM      1  C   LIG    1       26.293 -27.981  11.385  0.00  0.00    +0.012 C 
ATOM      2  C   LIG    1       26.040 -28.838  12.632  0.00  0.00    +0.039 C 
ATOM      3  C   LIG    1       24.999 -28.374  13.719  0.00  0.00    +0.189 C 
ATOM      4  C   LIG    1       24.658 -29.780  14.421  0.00  0.00    +0.022 C 
ATOM      5  C   LIG    1       24.619 -30.798  13.246  0.00  0.00    +0.006 C 
ATOM      6  C   LIG    1       23.251 -31.205  12.654  0.00  0.00    +0.037 C 
ATOM      7  C   LIG    1       22.153 -31.426  13.725  0.00  0.00    +0.153 C 
ATOM      8  C   LIG    1       22.059 -30.104  14.527  0.00  0.00    +0.154 C 
ATOM      9  F   LIG    1       22.650 -32.381  14.592  0.00  0.00    -0.238 F 
ATOM     10  C   LIG    1       20.776 -32.007  13.149  0.00  0.00    +0.047 C 
ATOM     11  C   LIG    1       20.997 -33.056  12.015  0.00  0.00    -0.020 C 
ATOM     12  C   LIG    1       19.903 -33.544  11.382  0.00  0.00    +0.054 C 
ATOM     13  C   LIG    1       19.214 -32.403  10.668  0.00  0.00    +0.179 C 
ATOM     14  C   LIG    1       19.134 -31.119  11.427  0.00  0.00    +0.047 C 
ATOM     15  O   LIG    1       18.660 -32.562   9.591  0.00  0.00    -0.288 OA
ATOM     16  C   LIG    1       22.197 -32.854  11.115  0.00  0.00    +0.194 C 
ATOM     17  F   LIG    1       21.968 -31.828  10.245  0.00  0.00    -0.241 F 
ATOM     18  C   LIG    1       19.984 -32.683  14.309  0.00  0.00    +0.023 C 
ATOM     19  C   LIG    1       19.827 -30.948  12.570  0.00  0.00    -0.009 C 
ATOM     20  C   LIG    1       23.452 -32.516  11.875  0.00  0.00    +0.048 C 
ATOM     21  C   LIG    1       25.803 -30.367  15.318  0.00  0.00    +0.016 C 
ATOM     22  C   LIG    1       23.369 -29.804  15.266  0.00  0.00    +0.046 C 
ATOM     23  C   LIG    1       25.607 -30.252  12.199  0.00  0.00    +0.012 C 
ENDROOT
BRANCH   3  24
ATOM     24  C   LIG    1       25.642 -27.185  14.551  0.00  0.00    +0.236 C 
ATOM     25  O   LIG    1       25.048 -26.674  15.500  0.00  0.00    -0.281 OA
BRANCH  24  26
ATOM     26  S   LIG    1       27.127 -26.402  14.028  0.00  0.00    -0.051 S 
BRANCH  26  27
ATOM     27  C   LIG    1       28.319 -27.223  15.103  0.00  0.00    +0.290 C 
ATOM     28  F   LIG    1       28.724 -28.403  14.580  0.00  0.00    -0.237 F 
ENDBRANCH  26  27
ENDBRANCH  24  26
ENDBRANCH   3  24
BRANCH   8  29
ATOM     29  O   LIG    1       21.002 -30.081  15.481  0.00  0.00    -0.389 OA
ATOM     30  H   LIG    1       20.153 -30.151  15.007  0.00  0.00    +0.210 HD
ENDBRANCH   8  29
BRANCH   3  31
ATOM     31  O   LIG    1       23.851 -27.831  12.971  0.00  0.00    -0.443 OA
BRANCH  31  32
ATOM     32  C   LIG    1       23.353 -26.590  13.344  0.00  0.00    +0.376 C 
ATOM     33  O   LIG    1       24.004 -25.564  13.285  0.00  0.00    -0.241 OA
BRANCH  32  34
ATOM     34  C   LIG    1       21.965 -26.660  13.788  0.00  0.00    +0.211 A 
ATOM     35  O   LIG    1       21.616 -26.435  15.094  0.00  0.00    -0.456 OA
ATOM     36  C   LIG    1       20.277 -26.652  15.195  0.00  0.00    +0.196 A 
ATOM     37  C   LIG    1       19.744 -27.006  13.974  0.00  0.00    +0.042 A 
ATOM     38  C   LIG    1       20.832 -26.988  13.069  0.00  0.00    +0.056 A 
ENDBRANCH  32  34
ENDBRANCH  31  32
ENDBRANCH   3  31
TORSDOF 7
ENDMDL
