MODEL 1
REMARK VINA RESULT:      -7.2      0.000      0.000
REMARK  Name = *****
REMARK                            x       y       z     vdW  Elec       q    Type
REMARK                         _______ _______ _______ _____ _____    ______ ____
ROOT
ATOM      1  C   LIG    1       26.114 -27.597  13.482  0.00  0.00    +0.134 C 
ATOM      2  C   LIG    1       26.081 -29.131  13.449  0.00  0.00    +0.079 C 
ATOM      3  C   LIG    1       24.857 -29.680  12.700  0.00  0.00    +0.158 C 
ATOM      4  C   LIG    1       23.569 -29.057  13.247  0.00  0.00    +0.030 A 
ATOM      5  C   LIG    1       23.591 -27.804  13.901  0.00  0.00    +0.007 A 
ATOM      6  C   LIG    1       22.386 -27.240  14.354  0.00  0.00    +0.132 A 
ATOM      7  C   LIG    1       21.157 -27.892  14.171  0.00  0.00    +0.078 A 
ATOM      8  C   LIG    1       19.915 -27.259  14.635  0.00  0.00    +0.198 C 
ATOM      9  O   LIG    1       19.969 -26.178  15.219  0.00  0.00    -0.286 OA
ATOM     10  C   LIG    1       18.619 -27.906  14.396  0.00  0.00    +0.037 A 
ATOM     11  C   LIG    1       18.545 -29.171  13.807  0.00  0.00    +0.075 A 
ATOM     12  C   LIG    1       17.274 -29.757  13.625  0.00  0.00    +0.132 A 
ATOM     13  C   LIG    1       16.122 -29.043  14.000  0.00  0.00    +0.046 A 
ATOM     14  C   LIG    1       16.215 -27.780  14.578  0.00  0.00    +0.004 A 
ATOM     15  C   LIG    1       19.819 -29.850  13.422  0.00  0.00    +0.202 C 
ATOM     16  O   LIG    1       19.849 -31.004  13.001  0.00  0.00    -0.286 OA
ATOM     17  C   LIG    1       17.462 -27.213  14.782  0.00  0.00    +0.012 A 
ATOM     18  C   LIG    1       21.119 -29.141  13.561  0.00  0.00    +0.078 A 
ATOM     19  C   LIG    1       22.327 -29.718  13.105  0.00  0.00    +0.135 A 
ATOM     20  C   LIG    1       24.883 -27.083  14.233  0.00  0.00    +0.082 C 
ENDROOT
BRANCH   1  21
ATOM     21  O   LIG    1       26.164 -27.094  12.146  0.00  0.00    -0.381 OA
ATOM     22  H   LIG    1       25.294 -27.209  11.722  0.00  0.00    +0.211 HD
ENDBRANCH   1  21
BRANCH  19  23
ATOM     23  O   LIG    1       22.344 -30.967  12.528  0.00  0.00    -0.506 OA
ATOM     24  H   LIG    1       22.779 -31.592  13.153  0.00  0.00    +0.292 HD
ENDBRANCH  19  23
BRANCH   6  25
ATOM     25  O   LIG    1       22.476 -26.025  14.991  0.00  0.00    -0.506 OA
ATOM     26  H   LIG    1       21.582 -25.774  15.320  0.00  0.00    +0.292 HD
ENDBRANCH   6  25
BRANCH  12  27
ATOM     27  O   LIG    1       17.191 -30.987  13.026  0.00  0.00    -0.494 OA
ATOM     28  C   LIG    1       16.542 -32.015  13.769  0.00  0.00    +0.277 C 
ENDBRANCH  12  27
BRANCH   1  29
ATOM     29  C   LIG    1       27.372 -27.141  14.250  0.00  0.00    +0.202 C 
ATOM     30  O   LIG    1       27.809 -25.990  14.140  0.00  0.00    -0.291 OA
BRANCH  29  31
ATOM     31  C   LIG    1       28.083 -28.160  15.134  0.00  0.00    +0.309 C 
BRANCH  31  32
ATOM     32  O   LIG    1       29.428 -28.306  14.672  0.00  0.00    -0.457 OA
BRANCH  32  33
ATOM     33  C   LIG    1       29.790 -29.571  14.354  0.00  0.00    +0.307 C 
ATOM     34  O   LIG    1       29.010 -30.452  13.985  0.00  0.00    -0.251 OA
BRANCH  33  35
ATOM     35  C   LIG    1       31.275 -29.747  14.508  0.00  0.00    +0.120 C 
BRANCH  35  36
ATOM     36  C   LIG    1       31.972 -29.700  13.154  0.00  0.00    +0.011 C 
BRANCH  36  38
ATOM     37  C   LIG    1       33.025 -27.777  14.376  0.00  0.00    +0.004 C 
ATOM     38  C   LIG    1       33.012 -28.590  13.093  0.00  0.00    -0.003 C 
ENDBRANCH  36  38
ENDBRANCH  35  36
ENDBRANCH  33  35
ENDBRANCH  32  33
ENDBRANCH  31  32
ENDBRANCH  29  31
ENDBRANCH   1  29
BRANCH   3  39
ATOM     39  O   LIG    1       24.883 -29.454  11.282  0.00  0.00    -0.343 OA
BRANCH  39  40
ATOM     40  C   LIG    1       25.834 -30.229  10.548  0.00  0.00    +0.253 C 
ATOM     41  O   LIG    1       25.266 -31.382   9.918  0.00  0.00    -0.346 OA
ATOM     42  C   LIG    1       24.279 -31.058   8.924  0.00  0.00    +0.148 C 
ATOM     43  C   LIG    1       23.693 -32.371   8.422  0.00  0.00    +0.040 C 
ATOM     44  C   LIG    1       24.919 -30.227   7.793  0.00  0.00    +0.163 C 
ATOM     45  C   LIG    1       25.511 -28.949   8.419  0.00  0.00    +0.109 C 
ATOM     46  C   LIG    1       26.524 -29.348   9.498  0.00  0.00    +0.086 C 
BRANCH  45  47
ATOM     47  N   LIG    1       26.090 -28.044   7.418  0.00  0.00    -0.302 N 
ATOM     48  H   LIG    1       27.092 -27.870   7.441  0.00  0.00    +0.149 HD
ATOM     49  C   LIG    1       25.278 -27.380   6.497  0.00  0.00    +0.318 C 
ATOM     50  O   LIG    1       24.054 -27.548   6.495  0.00  0.00    -0.266 OA
BRANCH  49  51
ATOM     51  C   LIG    1       25.979 -26.463   5.467  0.00  0.00    +0.469 C 
ATOM     52  F   LIG    1       26.411 -25.295   6.020  0.00  0.00    -0.162 F 
ATOM     53  F   LIG    1       25.153 -26.118   4.439  0.00  0.00    -0.162 F 
ATOM     54  F   LIG    1       27.074 -27.045   4.897  0.00  0.00    -0.162 F 
ENDBRANCH  49  51
ENDBRANCH  45  47
BRANCH  44  55
ATOM     55  O   LIG    1       25.961 -30.968   7.133  0.00  0.00    -0.387 OA
ATOM     56  H   LIG    1       25.549 -31.781   6.780  0.00  0.00    +0.210 HD
ENDBRANCH  44  55
ENDBRANCH  39  40
ENDBRANCH   3  39
TORSDOF 16
ENDMDL
MODEL 2
REMARK VINA RESULT:      -6.7      1.945      2.949
REMARK  Name = *****
REMARK                            x       y       z     vdW  Elec       q    Type
REMARK                         _______ _______ _______ _____ _____    ______ ____
ROOT
ATOM      1  C   LIG    1       26.179 -29.429  11.451  0.00  0.00    +0.134 C 
ATOM      2  C   LIG    1       25.951 -30.946  11.404  0.00  0.00    +0.079 C 
ATOM      3  C   LIG    1       24.550 -31.318  10.896  0.00  0.00    +0.158 C 
ATOM      4  C   LIG    1       23.475 -30.568  11.687  0.00  0.00    +0.030 A 
ATOM      5  C   LIG    1       23.774 -29.351  12.341  0.00  0.00    +0.007 A 
ATOM      6  C   LIG    1       22.753 -28.665  13.024  0.00  0.00    +0.132 A 
ATOM      7  C   LIG    1       21.442 -29.160  13.070  0.00  0.00    +0.078 A 
ATOM      8  C   LIG    1       20.397 -28.402  13.771  0.00  0.00    +0.198 C 
ATOM      9  O   LIG    1       20.692 -27.357  14.348  0.00  0.00    -0.286 OA
ATOM     10  C   LIG    1       19.008 -28.881  13.775  0.00  0.00    +0.037 A 
ATOM     11  C   LIG    1       18.670 -30.107  13.194  0.00  0.00    +0.075 A 
ATOM     12  C   LIG    1       17.325 -30.530  13.251  0.00  0.00    +0.132 A 
ATOM     13  C   LIG    1       16.361 -29.700  13.849  0.00  0.00    +0.046 A 
ATOM     14  C   LIG    1       16.715 -28.479  14.415  0.00  0.00    +0.004 A 
ATOM     15  C   LIG    1       19.755 -30.917  12.564  0.00  0.00    +0.202 C 
ATOM     16  O   LIG    1       19.564 -32.050  12.129  0.00  0.00    -0.286 OA
ATOM     17  C   LIG    1       18.039 -28.071  14.384  0.00  0.00    +0.012 A 
ATOM     18  C   LIG    1       21.136 -30.372  12.461  0.00  0.00    +0.078 A 
ATOM     19  C   LIG    1       22.156 -31.071  11.775  0.00  0.00    +0.135 A 
ATOM     20  C   LIG    1       25.184 -28.800  12.431  0.00  0.00    +0.082 C 
ENDROOT
BRANCH   1  21
ATOM     21  O   LIG    1       26.038 -28.886  10.137  0.00  0.00    -0.381 OA
ATOM     22  H   LIG    1       26.771 -28.269   9.959  0.00  0.00    +0.211 HD
ENDBRANCH   1  21
BRANCH  19  23
ATOM     23  O   LIG    1       21.910 -32.291  11.189  0.00  0.00    -0.506 OA
ATOM     24  H   LIG    1       21.846 -32.159  10.214  0.00  0.00    +0.292 HD
ENDBRANCH  19  23
BRANCH   6  25
ATOM     25  O   LIG    1       23.111 -27.494  13.648  0.00  0.00    -0.506 OA
ATOM     26  H   LIG    1       23.816 -27.690  14.308  0.00  0.00    +0.292 HD
ENDBRANCH   6  25
BRANCH  12  27
ATOM     27  O   LIG    1       16.980 -31.719  12.662  0.00  0.00    -0.494 OA
ATOM     28  C   LIG    1       16.074 -32.549  13.384  0.00  0.00    +0.277 C 
ENDBRANCH  12  27
BRANCH   1  29
ATOM     29  C   LIG    1       27.605 -29.153  11.971  0.00  0.00    +0.202 C 
ATOM     30  O   LIG    1       28.601 -29.489  11.320  0.00  0.00    -0.291 OA
BRANCH  29  31
ATOM     31  C   LIG    1       27.756 -28.477  13.329  0.00  0.00    +0.309 C 
BRANCH  31  32
ATOM     32  O   LIG    1       27.194 -29.329  14.330  0.00  0.00    -0.457 OA
BRANCH  32  33
ATOM     33  C   LIG    1       27.926 -30.431  14.620  0.00  0.00    +0.307 C 
ATOM     34  O   LIG    1       29.158 -30.469  14.637  0.00  0.00    -0.251 OA
BRANCH  33  35
ATOM     35  C   LIG    1       27.025 -31.595  14.925  0.00  0.00    +0.120 C 
BRANCH  35  36
ATOM     36  C   LIG    1       25.599 -31.127  15.179  0.00  0.00    +0.011 C 
BRANCH  36  38
ATOM     37  C   LIG    1       25.191 -33.323  14.035  0.00  0.00    +0.004 C 
ATOM     38  C   LIG    1       24.583 -32.223  14.889  0.00  0.00    -0.003 C 
ENDBRANCH  36  38
ENDBRANCH  35  36
ENDBRANCH  33  35
ENDBRANCH  32  33
ENDBRANCH  31  32
ENDBRANCH  29  31
ENDBRANCH   1  29
BRANCH   3  39
ATOM     39  O   LIG    1       24.337 -31.045   9.502  0.00  0.00    -0.343 OA
BRANCH  39  40
ATOM     40  C   LIG    1       25.238 -31.689   8.599  0.00  0.00    +0.253 C 
ATOM     41  O   LIG    1       24.595 -32.609   7.709  0.00  0.00    -0.346 OA
ATOM     42  C   LIG    1       23.650 -31.978   6.827  0.00  0.00    +0.148 C 
ATOM     43  C   LIG    1       22.974 -33.083   6.024  0.00  0.00    +0.040 C 
ATOM     44  C   LIG    1       24.367 -30.950   5.929  0.00  0.00    +0.163 C 
ATOM     45  C   LIG    1       25.045 -29.911   6.845  0.00  0.00    +0.109 C 
ATOM     46  C   LIG    1       26.008 -30.635   7.791  0.00  0.00    +0.086 C 
BRANCH  45  47
ATOM     47  N   LIG    1       25.705 -28.838   6.091  0.00  0.00    -0.302 N 
ATOM     48  H   LIG    1       26.625 -29.017   5.694  0.00  0.00    +0.149 HD
ATOM     49  C   LIG    1       25.119 -27.576   5.979  0.00  0.00    +0.318 C 
ATOM     50  O   LIG    1       24.026 -27.336   6.500  0.00  0.00    -0.266 OA
BRANCH  49  51
ATOM     51  C   LIG    1       25.879 -26.515   5.147  0.00  0.00    +0.469 C 
ATOM     52  F   LIG    1       26.739 -27.075   4.250  0.00  0.00    -0.162 F 
ATOM     53  F   LIG    1       26.629 -25.688   5.931  0.00  0.00    -0.162 F 
ATOM     54  F   LIG    1       25.047 -25.708   4.428  0.00  0.00    -0.162 F 
ENDBRANCH  49  51
ENDBRANCH  45  47
BRANCH  44  55
ATOM     55  O   LIG    1       25.362 -31.587   5.106  0.00  0.00    -0.387 OA
ATOM     56  H   LIG    1       24.896 -32.262   4.574  0.00  0.00    +0.210 HD
ENDBRANCH  44  55
ENDBRANCH  39  40
ENDBRANCH   3  39
TORSDOF 16
ENDMDL
MODEL 3
REMARK VINA RESULT:      -6.1      2.408      3.373
REMARK  Name = *****
REMARK                            x       y       z     vdW  Elec       q    Type
REMARK                         _______ _______ _______ _____ _____    ______ ____
ROOT
ATOM      1  C   LIG    1       25.628 -29.509  10.986  0.00  0.00    +0.134 C 
ATOM      2  C   LIG    1       25.731 -31.040  10.995  0.00  0.00    +0.079 C 
ATOM      3  C   LIG    1       24.435 -31.723  10.536  0.00  0.00    +0.158 C 
ATOM      4  C   LIG    1       23.238 -31.192  11.329  0.00  0.00    +0.030 A 
ATOM      5  C   LIG    1       23.279 -29.916  11.936  0.00  0.00    +0.007 A 
ATOM      6  C   LIG    1       22.148 -29.440  12.622  0.00  0.00    +0.132 A 
ATOM      7  C   LIG    1       20.975 -30.203  12.718  0.00  0.00    +0.078 A 
ATOM      8  C   LIG    1       19.804 -29.661  13.421  0.00  0.00    +0.198 C 
ATOM      9  O   LIG    1       19.878 -28.556  13.956  0.00  0.00    -0.286 OA
ATOM     10  C   LIG    1       18.552 -30.427  13.477  0.00  0.00    +0.037 A 
ATOM     11  C   LIG    1       18.476 -31.718  12.945  0.00  0.00    +0.075 A 
ATOM     12  C   LIG    1       17.255 -32.418  13.050  0.00  0.00    +0.132 A 
ATOM     13  C   LIG    1       16.145 -31.792  13.646  0.00  0.00    +0.046 A 
ATOM     14  C   LIG    1       16.238 -30.503  14.162  0.00  0.00    +0.004 A 
ATOM     15  C   LIG    1       19.698 -32.299  12.314  0.00  0.00    +0.202 C 
ATOM     16  O   LIG    1       19.747 -33.462  11.921  0.00  0.00    -0.286 OA
ATOM     17  C   LIG    1       17.443 -29.822  14.084  0.00  0.00    +0.012 A 
ATOM     18  C   LIG    1       20.927 -31.474  12.157  0.00  0.00    +0.078 A 
ATOM     19  C   LIG    1       22.061 -31.964  11.468  0.00  0.00    +0.135 A 
ATOM     20  C   LIG    1       24.539 -29.072  11.971  0.00  0.00    +0.082 C 
ENDROOT
BRANCH   1  21
ATOM     21  O   LIG    1       25.350 -29.059   9.659  0.00  0.00    -0.381 OA
ATOM     22  H   LIG    1       24.679 -28.352   9.689  0.00  0.00    +0.211 HD
ENDBRANCH   1  21
BRANCH  19  23
ATOM     23  O   LIG    1       22.073 -33.229  10.929  0.00  0.00    -0.506 OA
ATOM     24  H   LIG    1       22.750 -33.255  10.213  0.00  0.00    +0.292 HD
ENDBRANCH  19  23
BRANCH   6  25
ATOM     25  O   LIG    1       22.256 -28.197  13.198  0.00  0.00    -0.506 OA
ATOM     26  H   LIG    1       22.281 -27.519  12.483  0.00  0.00    +0.292 HD
ENDBRANCH   6  25
BRANCH  12  27
ATOM     27  O   LIG    1       17.163 -33.674  12.509  0.00  0.00    -0.494 OA
ATOM     28  C   LIG    1       16.374 -33.805  11.330  0.00  0.00    +0.277 C 
ENDBRANCH  12  27
BRANCH   1  29
ATOM     29  C   LIG    1       26.971 -28.914  11.460  0.00  0.00    +0.202 C 
ATOM     30  O   LIG    1       28.036 -29.516  11.283  0.00  0.00    -0.291 OA
BRANCH  29  31
ATOM     31  C   LIG    1       26.948 -27.571  12.181  0.00  0.00    +0.309 C 
BRANCH  31  32
ATOM     32  O   LIG    1       27.709 -27.686  13.386  0.00  0.00    -0.457 OA
BRANCH  32  33
ATOM     33  C   LIG    1       26.977 -27.877  14.509  0.00  0.00    +0.307 C 
ATOM     34  O   LIG    1       26.541 -28.967  14.884  0.00  0.00    -0.251 OA
BRANCH  33  35
ATOM     35  C   LIG    1       26.780 -26.576  15.235  0.00  0.00    +0.120 C 
BRANCH  35  36
ATOM     36  C   LIG    1       26.790 -25.404  14.263  0.00  0.00    +0.011 C 
BRANCH  36  38
ATOM     37  C   LIG    1       24.459 -25.238  15.177  0.00  0.00    +0.004 C 
ATOM     38  C   LIG    1       25.395 -24.833  14.051  0.00  0.00    -0.003 C 
ENDBRANCH  36  38
ENDBRANCH  35  36
ENDBRANCH  33  35
ENDBRANCH  32  33
ENDBRANCH  31  32
ENDBRANCH  29  31
ENDBRANCH   1  29
BRANCH   3  39
ATOM     39  O   LIG    1       24.143 -31.555   9.140  0.00  0.00    -0.343 OA
BRANCH  39  40
ATOM     40  C   LIG    1       25.047 -32.191   8.235  0.00  0.00    +0.253 C 
ATOM     41  O   LIG    1       24.396 -33.004   7.253  0.00  0.00    -0.346 OA
ATOM     42  C   LIG    1       23.536 -32.256   6.375  0.00  0.00    +0.148 C 
ATOM     43  C   LIG    1       22.836 -33.257   5.465  0.00  0.00    +0.040 C 
ATOM     44  C   LIG    1       24.359 -31.216   5.588  0.00  0.00    +0.163 C 
ATOM     45  C   LIG    1       25.051 -30.288   6.606  0.00  0.00    +0.109 C 
ATOM     46  C   LIG    1       25.919 -31.136   7.542  0.00  0.00    +0.086 C 
BRANCH  45  47
ATOM     47  N   LIG    1       25.812 -29.210   5.963  0.00  0.00    -0.302 N 
ATOM     48  H   LIG    1       26.769 -29.397   5.670  0.00  0.00    +0.149 HD
ATOM     49  C   LIG    1       25.265 -27.935   5.817  0.00  0.00    +0.318 C 
ATOM     50  O   LIG    1       24.123 -27.686   6.214  0.00  0.00    -0.266 OA
BRANCH  49  51
ATOM     51  C   LIG    1       26.134 -26.869   5.107  0.00  0.00    +0.469 C 
ATOM     52  F   LIG    1       26.810 -26.078   5.989  0.00  0.00    -0.162 F 
ATOM     53  F   LIG    1       25.389 -26.030   4.333  0.00  0.00    -0.162 F 
ATOM     54  F   LIG    1       27.075 -27.414   4.283  0.00  0.00    -0.162 F 
ENDBRANCH  49  51
ENDBRANCH  45  47
BRANCH  44  55
ATOM     55  O   LIG    1       25.353 -31.858   4.768  0.00  0.00    -0.387 OA
ATOM     56  H   LIG    1       26.163 -31.314   4.831  0.00  0.00    +0.210 HD
ENDBRANCH  44  55
ENDBRANCH  39  40
ENDBRANCH   3  39
TORSDOF 16
ENDMDL
