MODEL 1
REMARK VINA RESULT:      -4.9      0.000      0.000
REMARK  Name = *****
REMARK                            x       y       z     vdW  Elec       q    Type
REMARK                         _______ _______ _______ _____ _____    ______ ____
ROOT
ATOM      1  C   LIG    1       23.939 -21.407   6.763  0.00  0.00    +0.218 C 
ATOM      2  C   LIG    1       22.873 -20.622   5.997  0.00  0.00    +0.058 C 
ENDROOT
BRANCH   1   3
ATOM      3  O   LIG    1       24.310 -20.674   7.953  0.00  0.00    -0.456 OA
BRANCH   3   5
ATOM      4  C   LIG    1       26.465 -20.472   7.064  0.00  0.00    +0.136 C 
ATOM      5  C   LIG    1       25.621 -20.556   8.304  0.00  0.00    +0.304 C 
ATOM      6  O   LIG    1       26.039 -20.611   9.446  0.00  0.00    -0.251 OA
ENDBRANCH   3   5
ENDBRANCH   1   3
BRANCH   1   7
ATOM      7  C   LIG    1       23.535 -22.894   6.961  0.00  0.00    +0.177 C 
BRANCH   7   8
ATOM      8  N   LIG    1       24.527 -23.944   6.375  0.00  0.00    +0.239 N 
ATOM      9  C   LIG    1       23.893 -25.323   6.276  0.00  0.00    +0.192 C 
ATOM     10  C   LIG    1       25.812 -24.031   7.186  0.00  0.00    +0.192 C 
ATOM     11  C   LIG    1       24.891 -23.505   4.952  0.00  0.00    +0.192 C 
ENDBRANCH   7   8
ENDBRANCH   1   7
TORSDOF 4
ENDMDL
MODEL 2
REMARK VINA RESULT:      -4.8      2.418      3.331
REMARK  Name = *****
REMARK                            x       y       z     vdW  Elec       q    Type
REMARK                         _______ _______ _______ _____ _____    ______ ____
ROOT
ATOM      1  C   LIG    1       23.408 -21.621   5.846  0.00  0.00    +0.218 C 
ATOM      2  C   LIG    1       23.737 -20.706   7.027  0.00  0.00    +0.058 C 
ENDROOT
BRANCH   1   3
ATOM      3  O   LIG    1       22.734 -20.855   4.821  0.00  0.00    -0.456 OA
BRANCH   3   5
ATOM      4  C   LIG    1       22.234 -18.585   4.562  0.00  0.00    +0.136 C 
ATOM      5  C   LIG    1       23.257 -19.672   4.393  0.00  0.00    +0.304 C 
ATOM      6  O   LIG    1       24.347 -19.548   3.866  0.00  0.00    -0.251 OA
ENDBRANCH   3   5
ENDBRANCH   1   3
BRANCH   1   7
ATOM      7  C   LIG    1       24.642 -22.452   5.394  0.00  0.00    +0.177 C 
BRANCH   7   8
ATOM      8  N   LIG    1       24.771 -23.866   6.036  0.00  0.00    +0.239 N 
ATOM      9  C   LIG    1       25.806 -23.886   7.150  0.00  0.00    +0.192 C 
ATOM     10  C   LIG    1       25.113 -24.932   5.004  0.00  0.00    +0.192 C 
ATOM     11  C   LIG    1       23.418 -24.226   6.661  0.00  0.00    +0.192 C 
ENDBRANCH   7   8
ENDBRANCH   1   7
TORSDOF 4
ENDMDL
MODEL 3
REMARK VINA RESULT:      -4.7      2.014      3.166
REMARK  Name = *****
REMARK                            x       y       z     vdW  Elec       q    Type
REMARK                         _______ _______ _______ _____ _____    ______ ____
ROOT
ATOM      1  C   LIG    1       24.841 -20.980   5.562  0.00  0.00    +0.218 C 
ATOM      2  C   LIG    1       25.616 -20.061   4.617  0.00  0.00    +0.058 C 
ENDROOT
BRANCH   1   3
ATOM      3  O   LIG    1       23.637 -20.309   6.001  0.00  0.00    -0.456 OA
BRANCH   3   5
ATOM      4  C   LIG    1       22.375 -18.818   4.714  0.00  0.00    +0.136 C 
ATOM      5  C   LIG    1       22.554 -20.236   5.179  0.00  0.00    +0.304 C 
ATOM      6  O   LIG    1       21.799 -21.161   4.945  0.00  0.00    -0.251 OA
ENDBRANCH   3   5
ENDBRANCH   1   3
BRANCH   1   7
ATOM      7  C   LIG    1       24.664 -22.406   4.971  0.00  0.00    +0.177 C 
BRANCH   7   8
ATOM      8  N   LIG    1       24.781 -23.577   5.993  0.00  0.00    +0.239 N 
ATOM      9  C   LIG    1       23.466 -23.830   6.713  0.00  0.00    +0.192 C 
ATOM     10  C   LIG    1       25.883 -23.335   7.015  0.00  0.00    +0.192 C 
ATOM     11  C   LIG    1       25.127 -24.851   5.213  0.00  0.00    +0.192 C 
ENDBRANCH   7   8
ENDBRANCH   1   7
TORSDOF 4
ENDMDL
MODEL 4
REMARK VINA RESULT:      -4.7      1.930      3.140
REMARK  Name = *****
REMARK                            x       y       z     vdW  Elec       q    Type
REMARK                         _______ _______ _______ _____ _____    ______ ____
ROOT
ATOM      1  C   LIG    1       24.466 -22.978   6.702  0.00  0.00    +0.218 C 
ATOM      2  C   LIG    1       23.640 -24.266   6.695  0.00  0.00    +0.058 C 
ENDROOT
BRANCH   1   3
ATOM      3  O   LIG    1       25.580 -23.128   7.613  0.00  0.00    -0.456 OA
BRANCH   3   5
ATOM      4  C   LIG    1       27.423 -21.705   7.835  0.00  0.00    +0.136 C 
ATOM      5  C   LIG    1       26.042 -22.055   8.313  0.00  0.00    +0.304 C 
ATOM      6  O   LIG    1       25.458 -21.534   9.245  0.00  0.00    -0.251 OA
ENDBRANCH   3   5
ENDBRANCH   1   3
BRANCH   1   7
ATOM      7  C   LIG    1       24.806 -22.499   5.263  0.00  0.00    +0.177 C 
BRANCH   7   8
ATOM      8  N   LIG    1       24.504 -20.999   4.965  0.00  0.00    +0.239 N 
ATOM      9  C   LIG    1       25.769 -20.154   4.994  0.00  0.00    +0.192 C 
ATOM     10  C   LIG    1       23.482 -20.420   5.932  0.00  0.00    +0.192 C 
ATOM     11  C   LIG    1       23.925 -20.907   3.548  0.00  0.00    +0.192 C 
ENDBRANCH   7   8
ENDBRANCH   1   7
TORSDOF 4
ENDMDL
MODEL 5
REMARK VINA RESULT:      -4.7      1.907      2.757
REMARK  Name = *****
REMARK                            x       y       z     vdW  Elec       q    Type
REMARK                         _______ _______ _______ _____ _____    ______ ____
ROOT
ATOM      1  C   LIG    1       26.414 -21.756   7.407  0.00  0.00    +0.218 C 
ATOM      2  C   LIG    1       25.773 -20.960   8.545  0.00  0.00    +0.058 C 
ENDROOT
BRANCH   1   3
ATOM      3  O   LIG    1       27.853 -21.665   7.511  0.00  0.00    -0.456 OA
BRANCH   3   5
ATOM      4  C   LIG    1       28.276 -19.952   5.975  0.00  0.00    +0.136 C 
ATOM      5  C   LIG    1       28.476 -20.461   7.374  0.00  0.00    +0.304 C 
ATOM      6  O   LIG    1       29.167 -19.939   8.229  0.00  0.00    -0.251 OA
ENDBRANCH   3   5
ENDBRANCH   1   3
BRANCH   1   7
ATOM      7  C   LIG    1       25.815 -23.186   7.290  0.00  0.00    +0.177 C 
BRANCH   7   8
ATOM      8  N   LIG    1       24.795 -23.394   6.130  0.00  0.00    +0.239 N 
ATOM      9  C   LIG    1       25.124 -24.629   5.305  0.00  0.00    +0.192 C 
ATOM     10  C   LIG    1       24.711 -22.179   5.218  0.00  0.00    +0.192 C 
ATOM     11  C   LIG    1       23.412 -23.617   6.754  0.00  0.00    +0.192 C 
ENDBRANCH   7   8
ENDBRANCH   1   7
TORSDOF 4
ENDMDL
MODEL 6
REMARK VINA RESULT:      -4.7      1.890      2.659
REMARK  Name = *****
REMARK                            x       y       z     vdW  Elec       q    Type
REMARK                         _______ _______ _______ _____ _____    ______ ____
ROOT
ATOM      1  C   LIG    1       26.420 -21.704   7.452  0.00  0.00    +0.218 C 
ATOM      2  C   LIG    1       25.837 -20.883   8.603  0.00  0.00    +0.058 C 
ENDROOT
BRANCH   1   3
ATOM      3  O   LIG    1       27.863 -21.632   7.495  0.00  0.00    -0.456 OA
BRANCH   3   5
ATOM      4  C   LIG    1       28.302 -19.917   5.966  0.00  0.00    +0.136 C 
ATOM      5  C   LIG    1       28.495 -20.432   7.364  0.00  0.00    +0.304 C 
ATOM      6  O   LIG    1       29.186 -19.917   8.224  0.00  0.00    -0.251 OA
ENDBRANCH   3   5
ENDBRANCH   1   3
BRANCH   1   7
ATOM      7  C   LIG    1       25.797 -23.127   7.380  0.00  0.00    +0.177 C 
BRANCH   7   8
ATOM      8  N   LIG    1       24.767 -23.352   6.232  0.00  0.00    +0.239 N 
ATOM      9  C   LIG    1       23.354 -23.518   6.768  0.00  0.00    +0.192 C 
ATOM     10  C   LIG    1       25.129 -24.552   5.368  0.00  0.00    +0.192 C 
ATOM     11  C   LIG    1       24.774 -22.105   5.340  0.00  0.00    +0.192 C 
ENDBRANCH   7   8
ENDBRANCH   1   7
TORSDOF 4
ENDMDL
MODEL 7
REMARK VINA RESULT:      -4.6      2.825      4.529
REMARK  Name = *****
REMARK                            x       y       z     vdW  Elec       q    Type
REMARK                         _______ _______ _______ _____ _____    ______ ____
ROOT
ATOM      1  C   LIG    1       24.730 -23.396   6.531  0.00  0.00    +0.218 C 
ATOM      2  C   LIG    1       23.399 -24.127   6.713  0.00  0.00    +0.058 C 
ENDROOT
BRANCH   1   3
ATOM      3  O   LIG    1       25.814 -24.350   6.603  0.00  0.00    -0.456 OA
BRANCH   3   5
ATOM      4  C   LIG    1       25.923 -26.670   6.881  0.00  0.00    +0.136 C 
ATOM      5  C   LIG    1       25.737 -25.528   5.923  0.00  0.00    +0.304 C 
ATOM      6  O   LIG    1       25.634 -25.623   4.714  0.00  0.00    -0.251 OA
ENDBRANCH   3   5
ENDBRANCH   1   3
BRANCH   1   7
ATOM      7  C   LIG    1       24.712 -22.457   5.293  0.00  0.00    +0.177 C 
BRANCH   7   8
ATOM      8  N   LIG    1       24.707 -20.930   5.607  0.00  0.00    +0.239 N 
ATOM      9  C   LIG    1       23.299 -20.411   5.856  0.00  0.00    +0.192 C 
ATOM     10  C   LIG    1       25.361 -20.117   4.499  0.00  0.00    +0.192 C 
ATOM     11  C   LIG    1       25.509 -20.711   6.895  0.00  0.00    +0.192 C 
ENDBRANCH   7   8
ENDBRANCH   1   7
TORSDOF 4
ENDMDL
MODEL 8
REMARK VINA RESULT:      -4.6      3.514      5.505
REMARK  Name = *****
REMARK                            x       y       z     vdW  Elec       q    Type
REMARK                         _______ _______ _______ _____ _____    ______ ____
ROOT
ATOM      1  C   LIG    1       27.831 -20.418   7.092  0.00  0.00    +0.218 C 
ATOM      2  C   LIG    1       27.628 -19.912   5.663  0.00  0.00    +0.058 C 
ENDROOT
BRANCH   1   3
ATOM      3  O   LIG    1       26.744 -21.303   7.446  0.00  0.00    -0.456 OA
BRANCH   3   5
ATOM      4  C   LIG    1       24.453 -20.834   7.508  0.00  0.00    +0.136 C 
ATOM      5  C   LIG    1       25.748 -20.870   8.269  0.00  0.00    +0.304 C 
ATOM      6  O   LIG    1       25.913 -20.482   9.411  0.00  0.00    -0.251 OA
ENDBRANCH   3   5
ENDBRANCH   1   3
BRANCH   1   7
ATOM      7  C   LIG    1       29.270 -20.961   7.317  0.00  0.00    +0.177 C 
BRANCH   7   8
ATOM      8  N   LIG    1       30.288 -19.943   7.913  0.00  0.00    +0.239 N 
ATOM      9  C   LIG    1       29.590 -18.844   8.700  0.00  0.00    +0.192 C 
ATOM     10  C   LIG    1       31.169 -19.321   6.839  0.00  0.00    +0.192 C 
ATOM     11  C   LIG    1       31.194 -20.700   8.892  0.00  0.00    +0.192 C 
ENDBRANCH   7   8
ENDBRANCH   1   7
TORSDOF 4
ENDMDL
MODEL 9
REMARK VINA RESULT:      -4.6      2.213      4.097
REMARK  Name = *****
REMARK                            x       y       z     vdW  Elec       q    Type
REMARK                         _______ _______ _______ _____ _____    ______ ____
ROOT
ATOM      1  C   LIG    1       24.605 -21.388   6.818  0.00  0.00    +0.218 C 
ATOM      2  C   LIG    1       25.716 -20.668   7.585  0.00  0.00    +0.058 C 
ENDROOT
BRANCH   1   3
ATOM      3  O   LIG    1       24.330 -22.658   7.453  0.00  0.00    -0.456 OA
BRANCH   3   5
ATOM      4  C   LIG    1       25.077 -24.083   5.755  0.00  0.00    +0.136 C 
ATOM      5  C   LIG    1       23.965 -23.735   6.703  0.00  0.00    +0.304 C 
ATOM      6  O   LIG    1       22.868 -24.262   6.737  0.00  0.00    -0.251 OA
ENDBRANCH   3   5
ENDBRANCH   1   3
BRANCH   1   7
ATOM      7  C   LIG    1       23.384 -20.463   6.558  0.00  0.00    +0.177 C 
BRANCH   7   8
ATOM      8  N   LIG    1       22.928 -20.351   5.072  0.00  0.00    +0.239 N 
ATOM      9  C   LIG    1       24.039 -20.748   4.111  0.00  0.00    +0.192 C 
ATOM     10  C   LIG    1       22.433 -18.954   4.730  0.00  0.00    +0.192 C 
ATOM     11  C   LIG    1       21.768 -21.332   4.860  0.00  0.00    +0.192 C 
ENDBRANCH   7   8
ENDBRANCH   1   7
TORSDOF 4
ENDMDL
