MODEL 1
REMARK VINA RESULT:      -4.4      0.000      0.000
REMARK  Name = *****
REMARK                            x       y       z     vdW  Elec       q    Type
REMARK                         _______ _______ _______ _____ _____    ______ ____
ROOT
ATOM      1  C   LIG    1       25.133 -13.849   3.475  0.00  0.00    +0.144 C 
ATOM      2  C   LIG    1       26.547 -14.055   2.927  0.00  0.00    +0.239 C 
ATOM      3  O   LIG    1       26.781 -14.532   1.816  0.00  0.00    -0.274 OA
ATOM      4  N   LIG    1       27.592 -13.693   3.732  0.00  0.00    -0.239 N 
ATOM      5  H   LIG    1       28.518 -13.828   3.349  0.00  0.00    +0.159 HD
ATOM      6  C   LIG    1       27.517 -12.987   4.890  0.00  0.00    +0.312 C 
ATOM      7  O   LIG    1       28.519 -12.543   5.437  0.00  0.00    -0.252 OA
ATOM      8  N   LIG    1       26.273 -12.759   5.387  0.00  0.00    -0.239 N 
ATOM      9  H   LIG    1       26.224 -12.191   6.219  0.00  0.00    +0.159 HD
ATOM     10  C   LIG    1       25.086 -13.023   4.763  0.00  0.00    +0.239 C 
ATOM     11  O   LIG    1       24.043 -12.590   5.254  0.00  0.00    -0.274 OA
ENDROOT
BRANCH   1  12
ATOM     12  C   LIG    1       24.531 -15.263   3.801  0.00  0.00    -0.050 C 
ATOM     13  C   LIG    1       23.059 -15.274   4.221  0.00  0.00    +0.032 C 
ATOM     14  C   LIG    1       22.609 -16.421   5.132  0.00  0.00    +0.004 C 
ATOM     15  C   LIG    1       22.365 -17.744   4.417  0.00  0.00    +0.001 C 
ATOM     16  C   LIG    1       23.427 -18.134   3.399  0.00  0.00    +0.004 C 
ATOM     17  C   LIG    1       24.849 -17.832   3.858  0.00  0.00    +0.027 C 
ATOM     18  C   LIG    1       25.271 -16.393   3.724  0.00  0.00    -0.026 C 
ENDBRANCH   1  12
BRANCH   1  20
ATOM     19  C   LIG    1       24.842 -11.647   2.107  0.00  0.00    +0.005 C 
ATOM     20  C   LIG    1       24.331 -13.057   2.393  0.00  0.00    +0.026 C 
ENDBRANCH   1  20
TORSDOF 2
ENDMDL
MODEL 2
REMARK VINA RESULT:      -2.8      1.680      3.515
REMARK  Name = *****
REMARK                            x       y       z     vdW  Elec       q    Type
REMARK                         _______ _______ _______ _____ _____    ______ ____
ROOT
ATOM      1  C   LIG    1       25.670 -14.536   3.851  0.00  0.00    +0.144 C 
ATOM      2  C   LIG    1       24.585 -13.654   4.474  0.00  0.00    +0.239 C 
ATOM      3  O   LIG    1       24.245 -13.730   5.655  0.00  0.00    -0.274 OA
ATOM      4  N   LIG    1       23.964 -12.750   3.657  0.00  0.00    -0.239 N 
ATOM      5  H   LIG    1       23.257 -12.170   4.088  0.00  0.00    +0.159 HD
ATOM      6  C   LIG    1       24.338 -12.405   2.397  0.00  0.00    +0.312 C 
ATOM      7  O   LIG    1       23.841 -11.447   1.820  0.00  0.00    -0.252 OA
ATOM      8  N   LIG    1       25.322 -13.149   1.828  0.00  0.00    -0.239 N 
ATOM      9  H   LIG    1       25.629 -12.854   0.913  0.00  0.00    +0.159 HD
ATOM     10  C   LIG    1       26.087 -14.099   2.445  0.00  0.00    +0.239 C 
ATOM     11  O   LIG    1       27.066 -14.556   1.854  0.00  0.00    -0.274 OA
ENDROOT
BRANCH   1  12
ATOM     12  C   LIG    1       25.101 -15.996   3.741  0.00  0.00    -0.050 C 
ATOM     13  C   LIG    1       26.144 -17.098   3.536  0.00  0.00    +0.032 C 
ATOM     14  C   LIG    1       25.679 -18.361   2.803  0.00  0.00    +0.004 C 
ATOM     15  C   LIG    1       24.884 -19.339   3.661  0.00  0.00    +0.001 C 
ATOM     16  C   LIG    1       23.824 -18.705   4.548  0.00  0.00    +0.004 C 
ATOM     17  C   LIG    1       23.055 -17.579   3.869  0.00  0.00    +0.027 C 
ATOM     18  C   LIG    1       23.775 -16.257   3.814  0.00  0.00    -0.026 C 
ENDBRANCH   1  12
BRANCH   1  20
ATOM     19  C   LIG    1       27.584 -13.038   4.799  0.00  0.00    +0.005 C 
ATOM     20  C   LIG    1       26.935 -14.420   4.761  0.00  0.00    +0.026 C 
ENDBRANCH   1  20
TORSDOF 2
ENDMDL
MODEL 3
REMARK VINA RESULT:      -2.8      1.425      2.052
REMARK  Name = *****
REMARK                            x       y       z     vdW  Elec       q    Type
REMARK                         _______ _______ _______ _____ _____    ______ ____
ROOT
ATOM      1  C   LIG    1       25.410 -13.624   4.144  0.00  0.00    +0.144 C 
ATOM      2  C   LIG    1       25.965 -13.217   2.776  0.00  0.00    +0.239 C 
ATOM      3  O   LIG    1       25.252 -12.934   1.813  0.00  0.00    -0.274 OA
ATOM      4  N   LIG    1       27.325 -13.183   2.634  0.00  0.00    -0.239 N 
ATOM      5  H   LIG    1       27.672 -12.903   1.728  0.00  0.00    +0.159 HD
ATOM      6  C   LIG    1       28.246 -13.279   3.628  0.00  0.00    +0.312 C 
ATOM      7  O   LIG    1       29.431 -13.041   3.430  0.00  0.00    -0.252 OA
ATOM      8  N   LIG    1       27.782 -13.608   4.862  0.00  0.00    -0.239 N 
ATOM      9  H   LIG    1       28.465 -13.627   5.603  0.00  0.00    +0.159 HD
ATOM     10  C   LIG    1       26.472 -13.692   5.244  0.00  0.00    +0.239 C 
ATOM     11  O   LIG    1       26.205 -13.815   6.440  0.00  0.00    -0.274 OA
ENDROOT
BRANCH   1  12
ATOM     12  C   LIG    1       24.786 -15.059   4.003  0.00  0.00    -0.050 C 
ATOM     13  C   LIG    1       25.787 -16.197   3.789  0.00  0.00    +0.032 C 
ATOM     14  C   LIG    1       25.280 -17.429   3.030  0.00  0.00    +0.004 C 
ATOM     15  C   LIG    1       24.439 -18.389   3.863  0.00  0.00    +0.001 C 
ATOM     16  C   LIG    1       23.396 -17.729   4.751  0.00  0.00    +0.004 C 
ATOM     17  C   LIG    1       22.679 -16.562   4.084  0.00  0.00    +0.027 C 
ATOM     18  C   LIG    1       23.450 -15.269   4.058  0.00  0.00    -0.026 C 
ENDBRANCH   1  12
BRANCH   1  20
ATOM     19  C   LIG    1       23.884 -11.630   3.436  0.00  0.00    +0.005 C 
ATOM     20  C   LIG    1       24.380 -12.528   4.568  0.00  0.00    +0.026 C 
ENDBRANCH   1  20
TORSDOF 2
ENDMDL
MODEL 4
REMARK VINA RESULT:      -1.5      1.521      2.712
REMARK  Name = *****
REMARK                            x       y       z     vdW  Elec       q    Type
REMARK                         _______ _______ _______ _____ _____    ______ ____
ROOT
ATOM      1  C   LIG    1       25.874 -14.176   3.580  0.00  0.00    +0.144 C 
ATOM      2  C   LIG    1       26.242 -13.693   4.986  0.00  0.00    +0.239 C 
ATOM      3  O   LIG    1       27.290 -14.001   5.555  0.00  0.00    -0.274 OA
ATOM      4  N   LIG    1       25.343 -12.889   5.630  0.00  0.00    -0.239 N 
ATOM      5  H   LIG    1       25.607 -12.573   6.553  0.00  0.00    +0.159 HD
ATOM      6  C   LIG    1       24.242 -12.306   5.087  0.00  0.00    +0.312 C 
ATOM      7  O   LIG    1       23.609 -11.448   5.688  0.00  0.00    -0.252 OA
ATOM      8  N   LIG    1       23.907 -12.689   3.828  0.00  0.00    -0.239 N 
ATOM      9  H   LIG    1       23.119 -12.214   3.413  0.00  0.00    +0.159 HD
ATOM     10  C   LIG    1       24.648 -13.475   2.990  0.00  0.00    +0.239 C 
ATOM     11  O   LIG    1       24.306 -13.582   1.812  0.00  0.00    -0.274 OA
ENDROOT
BRANCH   1  12
ATOM     12  C   LIG    1       25.542 -15.709   3.668  0.00  0.00    -0.050 C 
ATOM     13  C   LIG    1       24.053 -16.062   3.713  0.00  0.00    +0.032 C 
ATOM     14  C   LIG    1       23.673 -17.367   4.420  0.00  0.00    +0.004 C 
ATOM     15  C   LIG    1       23.898 -18.628   3.594  0.00  0.00    +0.001 C 
ATOM     16  C   LIG    1       25.223 -18.683   2.849  0.00  0.00    +0.004 C 
ATOM     17  C   LIG    1       26.400 -18.153   3.658  0.00  0.00    +0.027 C 
ATOM     18  C   LIG    1       26.512 -16.652   3.712  0.00  0.00    -0.026 C 
ENDBRANCH   1  12
BRANCH   1  20
ATOM     19  C   LIG    1       28.337 -13.346   3.364  0.00  0.00    +0.005 C 
ATOM     20  C   LIG    1       27.084 -13.846   2.649  0.00  0.00    +0.026 C 
ENDBRANCH   1  20
TORSDOF 2
ENDMDL
