MODEL 1
REMARK VINA RESULT:      -9.1      0.000      0.000
REMARK  Name = *****
REMARK                            x       y       z     vdW  Elec       q    Type
REMARK                         _______ _______ _______ _____ _____    ______ ____
ROOT
ATOM      1  C   LIG    1       24.379 -30.494   7.522  0.00  0.00    +0.064 A 
ATOM      2  C   LIG    1       24.667 -29.243   6.933  0.00  0.00    +0.105 A 
ATOM      3  C   LIG    1       25.251 -29.197   5.620  0.00  0.00    +0.021 A 
ATOM      4  C   LIG    1       25.418 -27.883   5.296  0.00  0.00    +0.123 A 
ATOM      5  N   LIG    1       24.940 -27.166   6.371  0.00  0.00    -0.239 N 
ATOM      6  C   LIG    1       25.591 -30.262   4.795  0.00  0.00    +0.012 A 
ATOM      7  C   LIG    1       25.289 -31.493   5.406  0.00  0.00    +0.002 A 
ATOM      8  N   LIG    1       24.495 -27.979   7.375  0.00  0.00    -0.166 NA
ATOM      9  C   LIG    1       24.712 -31.609   6.708  0.00  0.00    +0.015 A 
ENDROOT
BRANCH   5  10
ATOM     10  C   LIG    1       24.871 -25.748   6.490  0.00  0.00    +0.065 A 
ATOM     11  C   LIG    1       23.639 -25.089   6.429  0.00  0.00    +0.028 A 
ATOM     12  C   LIG    1       23.575 -23.700   6.563  0.00  0.00    +0.006 A 
ATOM     13  C   LIG    1       24.730 -22.931   6.748  0.00  0.00    -0.043 A 
ATOM     14  C   LIG    1       25.962 -23.602   6.817  0.00  0.00    +0.006 A 
ATOM     15  C   LIG    1       26.036 -24.996   6.685  0.00  0.00    +0.028 A 
BRANCH  13  16
ATOM     16  C   LIG    1       24.691 -21.409   6.869  0.00  0.00    +0.033 C 
ATOM     17  C   LIG    1       25.770 -20.660   6.050  0.00  0.00    +0.089 C 
ATOM     18  N   LIG    1       25.477 -20.556   4.615  0.00  0.00    -0.315 NA
ATOM     19  H   LIG    1       26.212 -20.018   4.157  0.00  0.00    +0.122 HD
ATOM     20  C   LIG    1       24.181 -19.929   4.369  0.00  0.00    +0.081 C 
ATOM     21  C   LIG    1       23.040 -20.664   5.072  0.00  0.00    +0.016 C 
ATOM     22  C   LIG    1       23.299 -20.828   6.569  0.00  0.00    +0.010 C 
ENDBRANCH  13  16
ENDBRANCH   5  10
BRANCH   1  26
ATOM     23  N   LIG    1       24.410 -30.082   9.909  0.00  0.00    -0.325 N 
ATOM     24  H   LIG    1       25.252 -29.527   9.774  0.00  0.00    +0.145 HD
ATOM     25  H   LIG    1       24.015 -30.176  10.833  0.00  0.00    +0.145 HD
ATOM     26  C   LIG    1       23.782 -30.674   8.854  0.00  0.00    +0.244 C 
ATOM     27  O   LIG    1       22.758 -31.332   9.009  0.00  0.00    -0.270 OA
ENDBRANCH   1  26
TORSDOF 3
ENDMDL
MODEL 2
REMARK VINA RESULT:      -8.6      1.809      2.178
REMARK  Name = *****
REMARK                            x       y       z     vdW  Elec       q    Type
REMARK                         _______ _______ _______ _____ _____    ______ ____
ROOT
ATOM      1  C   LIG    1       25.999 -30.141   8.659  0.00  0.00    +0.064 A 
ATOM      2  C   LIG    1       25.581 -29.118   7.779  0.00  0.00    +0.105 A 
ATOM      3  C   LIG    1       24.717 -29.442   6.676  0.00  0.00    +0.021 A 
ATOM      4  C   LIG    1       24.470 -28.283   6.000  0.00  0.00    +0.123 A 
ATOM      5  N   LIG    1       25.151 -27.298   6.681  0.00  0.00    -0.239 N 
ATOM      6  C   LIG    1       24.200 -30.683   6.329  0.00  0.00    +0.012 A 
ATOM      7  C   LIG    1       24.629 -31.680   7.224  0.00  0.00    +0.002 A 
ATOM      8  N   LIG    1       25.839 -27.793   7.752  0.00  0.00    -0.166 NA
ATOM      9  C   LIG    1       25.489 -31.426   8.337  0.00  0.00    +0.015 A 
ENDROOT
BRANCH   5  10
ATOM     10  C   LIG    1       25.173 -25.906   6.375  0.00  0.00    +0.065 A 
ATOM     11  C   LIG    1       25.680 -24.984   7.295  0.00  0.00    +0.028 A 
ATOM     12  C   LIG    1       25.714 -23.623   6.985  0.00  0.00    +0.006 A 
ATOM     13  C   LIG    1       25.235 -23.142   5.761  0.00  0.00    -0.043 A 
ATOM     14  C   LIG    1       24.734 -24.076   4.839  0.00  0.00    +0.006 A 
ATOM     15  C   LIG    1       24.697 -25.444   5.142  0.00  0.00    +0.028 A 
BRANCH  13  16
ATOM     16  C   LIG    1       25.233 -21.657   5.408  0.00  0.00    +0.033 C 
ATOM     17  C   LIG    1       24.298 -21.262   4.239  0.00  0.00    +0.089 C 
ATOM     18  N   LIG    1       22.877 -21.179   4.603  0.00  0.00    -0.315 NA
ATOM     19  H   LIG    1       22.337 -20.878   3.793  0.00  0.00    +0.122 HD
ATOM     20  C   LIG    1       22.654 -20.259   5.714  0.00  0.00    +0.081 C 
ATOM     21  C   LIG    1       23.477 -20.631   6.947  0.00  0.00    +0.016 C 
ATOM     22  C   LIG    1       24.965 -20.759   6.628  0.00  0.00    +0.010 C 
ENDBRANCH  13  16
ENDBRANCH   5  10
BRANCH   1  26
ATOM     23  N   LIG    1       26.929 -28.688  10.359  0.00  0.00    -0.325 N 
ATOM     24  H   LIG    1       26.369 -27.929   9.977  0.00  0.00    +0.145 HD
ATOM     25  H   LIG    1       27.512 -28.524  11.166  0.00  0.00    +0.145 HD
ATOM     26  C   LIG    1       26.878 -29.939   9.820  0.00  0.00    +0.244 C 
ATOM     27  O   LIG    1       27.538 -30.862  10.286  0.00  0.00    -0.270 OA
ENDBRANCH   1  26
TORSDOF 3
ENDMDL
MODEL 3
REMARK VINA RESULT:      -8.5      2.813      8.436
REMARK  Name = *****
REMARK                            x       y       z     vdW  Elec       q    Type
REMARK                         _______ _______ _______ _____ _____    ______ ____
ROOT
ATOM      1  C   LIG    1       26.048 -21.804   7.378  0.00  0.00    +0.064 A 
ATOM      2  C   LIG    1       25.375 -23.013   7.090  0.00  0.00    +0.105 A 
ATOM      3  C   LIG    1       23.954 -22.996   6.869  0.00  0.00    +0.021 A 
ATOM      4  C   LIG    1       23.569 -24.278   6.611  0.00  0.00    +0.123 A 
ATOM      5  N   LIG    1       24.718 -25.035   6.662  0.00  0.00    -0.239 N 
ATOM      6  C   LIG    1       23.096 -21.904   6.895  0.00  0.00    +0.012 A 
ATOM      7  C   LIG    1       23.794 -20.716   7.180  0.00  0.00    +0.002 A 
ATOM      8  N   LIG    1       25.817 -24.282   6.966  0.00  0.00    -0.166 NA
ATOM      9  C   LIG    1       25.203 -20.664   7.413  0.00  0.00    +0.015 A 
ENDROOT
BRANCH   5  10
ATOM     10  C   LIG    1       24.832 -26.435   6.426  0.00  0.00    +0.065 A 
ATOM     11  C   LIG    1       25.501 -27.258   7.337  0.00  0.00    +0.028 A 
ATOM     12  C   LIG    1       25.596 -28.633   7.108  0.00  0.00    +0.006 A 
ATOM     13  C   LIG    1       25.041 -29.223   5.967  0.00  0.00    -0.043 A 
ATOM     14  C   LIG    1       24.363 -28.390   5.061  0.00  0.00    +0.006 A 
ATOM     15  C   LIG    1       24.263 -27.009   5.282  0.00  0.00    +0.028 A 
BRANCH  13  16
ATOM     16  C   LIG    1       25.155 -30.718   5.678  0.00  0.00    +0.033 C 
ATOM     17  C   LIG    1       26.452 -31.387   6.193  0.00  0.00    +0.089 C 
ATOM     18  N   LIG    1       26.459 -31.663   7.636  0.00  0.00    -0.315 NA
ATOM     19  H   LIG    1       27.326 -32.136   7.886  0.00  0.00    +0.122 HD
ATOM     20  C   LIG    1       25.317 -32.479   8.039  0.00  0.00    +0.081 C 
ATOM     21  C   LIG    1       23.984 -31.842   7.646  0.00  0.00    +0.016 C 
ATOM     22  C   LIG    1       23.924 -31.507   6.157  0.00  0.00    +0.010 C 
ENDBRANCH  13  16
ENDBRANCH   5  10
BRANCH   1  26
ATOM     23  N   LIG    1       28.293 -21.429   6.550  0.00  0.00    -0.325 N 
ATOM     24  H   LIG    1       27.899 -21.306   5.619  0.00  0.00    +0.145 HD
ATOM     25  H   LIG    1       29.287 -21.330   6.690  0.00  0.00    +0.145 HD
ATOM     26  C   LIG    1       27.494 -21.690   7.622  0.00  0.00    +0.244 C 
ATOM     27  O   LIG    1       27.961 -21.823   8.749  0.00  0.00    -0.270 OA
ENDBRANCH   1  26
TORSDOF 3
ENDMDL
MODEL 4
REMARK VINA RESULT:      -8.2      2.925      8.318
REMARK  Name = *****
REMARK                            x       y       z     vdW  Elec       q    Type
REMARK                         _______ _______ _______ _____ _____    ______ ____
ROOT
ATOM      1  C   LIG    1       26.232 -21.765   6.857  0.00  0.00    +0.064 A 
ATOM      2  C   LIG    1       25.718 -23.027   6.484  0.00  0.00    +0.105 A 
ATOM      3  C   LIG    1       24.836 -23.126   5.352  0.00  0.00    +0.021 A 
ATOM      4  C   LIG    1       24.497 -24.440   5.216  0.00  0.00    +0.123 A 
ATOM      5  N   LIG    1       25.161 -25.107   6.221  0.00  0.00    -0.239 N 
ATOM      6  C   LIG    1       24.392 -22.106   4.521  0.00  0.00    +0.012 A 
ATOM      7  C   LIG    1       24.923 -20.864   4.913  0.00  0.00    +0.002 A 
ATOM      8  N   LIG    1       25.893 -24.260   7.005  0.00  0.00    -0.166 NA
ATOM      9  C   LIG    1       25.801 -20.696   6.028  0.00  0.00    +0.015 A 
ENDROOT
BRANCH   5  10
ATOM     10  C   LIG    1       25.149 -26.510   6.471  0.00  0.00    +0.065 A 
ATOM     11  C   LIG    1       24.366 -27.364   5.688  0.00  0.00    +0.028 A 
ATOM     12  C   LIG    1       24.369 -28.740   5.927  0.00  0.00    +0.006 A 
ATOM     13  C   LIG    1       25.138 -29.301   6.952  0.00  0.00    -0.043 A 
ATOM     14  C   LIG    1       25.928 -28.437   7.728  0.00  0.00    +0.006 A 
ATOM     15  C   LIG    1       25.932 -27.054   7.496  0.00  0.00    +0.028 A 
BRANCH  13  16
ATOM     16  C   LIG    1       25.138 -30.798   7.252  0.00  0.00    +0.033 C 
ATOM     17  C   LIG    1       23.765 -31.497   7.101  0.00  0.00    +0.089 C 
ATOM     18  N   LIG    1       23.377 -31.773   5.711  0.00  0.00    -0.315 NA
ATOM     19  H   LIG    1       22.485 -32.266   5.699  0.00  0.00    +0.122 HD
ATOM     20  C   LIG    1       24.386 -32.564   5.012  0.00  0.00    +0.081 C 
ATOM     21  C   LIG    1       25.762 -31.898   5.036  0.00  0.00    +0.016 C 
ATOM     22  C   LIG    1       26.212 -31.560   6.457  0.00  0.00    +0.010 C 
ENDBRANCH  13  16
ENDBRANCH   5  10
BRANCH   1  26
ATOM     23  N   LIG    1       28.474 -21.453   7.720  0.00  0.00    -0.325 N 
ATOM     24  H   LIG    1       28.822 -21.537   6.768  0.00  0.00    +0.145 HD
ATOM     25  H   LIG    1       29.119 -21.279   8.476  0.00  0.00    +0.145 HD
ATOM     26  C   LIG    1       27.140 -21.534   7.990  0.00  0.00    +0.244 C 
ATOM     27  O   LIG    1       26.713 -21.417   9.134  0.00  0.00    -0.270 OA
ENDBRANCH   1  26
TORSDOF 3
ENDMDL
MODEL 5
REMARK VINA RESULT:      -8.0      2.990      8.294
REMARK  Name = *****
REMARK                            x       y       z     vdW  Elec       q    Type
REMARK                         _______ _______ _______ _____ _____    ______ ____
ROOT
ATOM      1  C   LIG    1       26.196 -21.376   6.873  0.00  0.00    +0.064 A 
ATOM      2  C   LIG    1       25.726 -22.660   6.519  0.00  0.00    +0.105 A 
ATOM      3  C   LIG    1       24.911 -22.816   5.344  0.00  0.00    +0.021 A 
ATOM      4  C   LIG    1       24.604 -24.140   5.237  0.00  0.00    +0.123 A 
ATOM      5  N   LIG    1       25.223 -24.759   6.301  0.00  0.00    -0.239 N 
ATOM      6  C   LIG    1       24.495 -21.835   4.453  0.00  0.00    +0.012 A 
ATOM      7  C   LIG    1       24.981 -20.570   4.829  0.00  0.00    +0.002 A 
ATOM      8  N   LIG    1       25.894 -23.871   7.093  0.00  0.00    -0.166 NA
ATOM      9  C   LIG    1       25.792 -20.346   5.984  0.00  0.00    +0.015 A 
ENDROOT
BRANCH   5  10
ATOM     10  C   LIG    1       25.222 -26.152   6.599  0.00  0.00    +0.065 A 
ATOM     11  C   LIG    1       24.340 -27.018   5.946  0.00  0.00    +0.028 A 
ATOM     12  C   LIG    1       24.353 -28.386   6.231  0.00  0.00    +0.006 A 
ATOM     13  C   LIG    1       25.232 -28.925   7.177  0.00  0.00    -0.043 A 
ATOM     14  C   LIG    1       26.121 -28.049   7.822  0.00  0.00    +0.006 A 
ATOM     15  C   LIG    1       26.115 -26.675   7.543  0.00  0.00    +0.028 A 
BRANCH  13  16
ATOM     16  C   LIG    1       25.248 -30.411   7.528  0.00  0.00    +0.033 C 
ATOM     17  C   LIG    1       26.298 -30.822   8.589  0.00  0.00    +0.089 C 
ATOM     18  N   LIG    1       25.919 -30.497   9.971  0.00  0.00    -0.315 NA
ATOM     19  H   LIG    1       26.641 -30.833  10.608  0.00  0.00    +0.122 HD
ATOM     20  C   LIG    1       24.631 -31.081  10.334  0.00  0.00    +0.081 C 
ATOM     21  C   LIG    1       23.513 -30.652   9.383  0.00  0.00    +0.016 C 
ATOM     22  C   LIG    1       23.859 -30.940   7.923  0.00  0.00    +0.010 C 
ENDBRANCH  13  16
ENDBRANCH   5  10
BRANCH   1  26
ATOM     23  N   LIG    1       28.333 -21.499   8.007  0.00  0.00    -0.325 N 
ATOM     24  H   LIG    1       28.707 -21.978   7.190  0.00  0.00    +0.145 HD
ATOM     25  H   LIG    1       28.936 -21.301   8.791  0.00  0.00    +0.145 HD
ATOM     26  C   LIG    1       27.035 -21.087   8.046  0.00  0.00    +0.244 C 
ATOM     27  O   LIG    1       26.582 -20.496   9.022  0.00  0.00    -0.270 OA
ENDBRANCH   1  26
TORSDOF 3
ENDMDL
MODEL 6
REMARK VINA RESULT:      -7.9      1.620      2.251
REMARK  Name = *****
REMARK                            x       y       z     vdW  Elec       q    Type
REMARK                         _______ _______ _______ _____ _____    ______ ____
ROOT
ATOM      1  C   LIG    1       25.668 -30.849   7.998  0.00  0.00    +0.064 A 
ATOM      2  C   LIG    1       25.464 -29.659   7.266  0.00  0.00    +0.105 A 
ATOM      3  C   LIG    1       25.257 -29.729   5.844  0.00  0.00    +0.021 A 
ATOM      4  C   LIG    1       25.084 -28.453   5.396  0.00  0.00    +0.123 A 
ATOM      5  N   LIG    1       25.171 -27.647   6.510  0.00  0.00    -0.239 N 
ATOM      6  C   LIG    1       25.224 -30.860   5.038  0.00  0.00    +0.012 A 
ATOM      7  C   LIG    1       25.426 -32.028   5.795  0.00  0.00    +0.002 A 
ATOM      8  N   LIG    1       25.415 -28.364   7.647  0.00  0.00    -0.166 NA
ATOM      9  C   LIG    1       25.640 -32.028   7.208  0.00  0.00    +0.015 A 
ENDROOT
BRANCH   5  10
ATOM     10  C   LIG    1       25.022 -26.231   6.555  0.00  0.00    +0.065 A 
ATOM     11  C   LIG    1       26.114 -25.410   6.855  0.00  0.00    +0.028 A 
ATOM     12  C   LIG    1       25.966 -24.022   6.883  0.00  0.00    +0.006 A 
ATOM     13  C   LIG    1       24.732 -23.414   6.625  0.00  0.00    -0.043 A 
ATOM     14  C   LIG    1       23.643 -24.245   6.315  0.00  0.00    +0.006 A 
ATOM     15  C   LIG    1       23.781 -25.640   6.285  0.00  0.00    +0.028 A 
BRANCH  13  16
ATOM     16  C   LIG    1       24.536 -21.901   6.676  0.00  0.00    +0.033 C 
ATOM     17  C   LIG    1       24.377 -21.308   8.098  0.00  0.00    +0.089 C 
ATOM     18  N   LIG    1       25.638 -21.173   8.841  0.00  0.00    -0.315 NA
ATOM     19  H   LIG    1       25.453 -20.742   9.746  0.00  0.00    +0.122 HD
ATOM     20  C   LIG    1       26.618 -20.377   8.107  0.00  0.00    +0.081 C 
ATOM     21  C   LIG    1       26.903 -20.948   6.718  0.00  0.00    +0.016 C 
ATOM     22  C   LIG    1       25.625 -21.138   5.902  0.00  0.00    +0.010 C 
ENDBRANCH  13  16
ENDBRANCH   5  10
BRANCH   1  26
ATOM     23  N   LIG    1       25.466 -29.851  10.196  0.00  0.00    -0.325 N 
ATOM     24  H   LIG    1       25.004 -29.055   9.761  0.00  0.00    +0.145 HD
ATOM     25  H   LIG    1       25.591 -29.872  11.197  0.00  0.00    +0.145 HD
ATOM     26  C   LIG    1       25.889 -30.911   9.451  0.00  0.00    +0.244 C 
ATOM     27  O   LIG    1       26.433 -31.880   9.971  0.00  0.00    -0.270 OA
ENDBRANCH   1  26
TORSDOF 3
ENDMDL
MODEL 7
REMARK VINA RESULT:      -7.8      2.347      3.366
REMARK  Name = *****
REMARK                            x       y       z     vdW  Elec       q    Type
REMARK                         _______ _______ _______ _____ _____    ______ ____
ROOT
ATOM      1  C   LIG    1       25.321 -32.333   5.569  0.00  0.00    +0.064 A 
ATOM      2  C   LIG    1       25.065 -31.039   6.075  0.00  0.00    +0.105 A 
ATOM      3  C   LIG    1       24.400 -30.894   7.342  0.00  0.00    +0.021 A 
ATOM      4  C   LIG    1       24.284 -29.559   7.589  0.00  0.00    +0.123 A 
ATOM      5  N   LIG    1       24.869 -28.924   6.515  0.00  0.00    -0.239 N 
ATOM      6  C   LIG    1       23.951 -31.896   8.193  0.00  0.00    +0.012 A 
ATOM      7  C   LIG    1       24.224 -33.171   7.666  0.00  0.00    +0.002 A 
ATOM      8  N   LIG    1       25.332 -29.811   5.584  0.00  0.00    -0.166 NA
ATOM      9  C   LIG    1       24.877 -33.384   6.412  0.00  0.00    +0.015 A 
ENDROOT
BRANCH   5  10
ATOM     10  C   LIG    1       25.022 -27.520   6.330  0.00  0.00    +0.065 A 
ATOM     11  C   LIG    1       24.290 -26.848   5.347  0.00  0.00    +0.028 A 
ATOM     12  C   LIG    1       24.432 -25.469   5.180  0.00  0.00    +0.006 A 
ATOM     13  C   LIG    1       25.311 -24.725   5.975  0.00  0.00    -0.043 A 
ATOM     14  C   LIG    1       26.036 -25.406   6.966  0.00  0.00    +0.006 A 
ATOM     15  C   LIG    1       25.900 -26.790   7.141  0.00  0.00    +0.028 A 
BRANCH  13  16
ATOM     16  C   LIG    1       25.507 -23.221   5.795  0.00  0.00    +0.033 C 
ATOM     17  C   LIG    1       24.353 -22.493   5.064  0.00  0.00    +0.089 C 
ATOM     18  N   LIG    1       23.171 -22.242   5.901  0.00  0.00    -0.315 NA
ATOM     19  H   LIG    1       22.477 -21.728   5.360  0.00  0.00    +0.122 HD
ATOM     20  C   LIG    1       23.509 -21.493   7.108  0.00  0.00    +0.081 C 
ATOM     21  C   LIG    1       24.584 -22.193   7.940  0.00  0.00    +0.016 C 
ATOM     22  C   LIG    1       25.833 -22.506   7.117  0.00  0.00    +0.010 C 
ENDBRANCH  13  16
ENDBRANCH   5  10
BRANCH   1  26
ATOM     23  N   LIG    1       25.340 -32.256   3.147  0.00  0.00    -0.325 N 
ATOM     24  H   LIG    1       24.430 -31.801   3.183  0.00  0.00    +0.145 HD
ATOM     25  H   LIG    1       25.782 -32.422   2.256  0.00  0.00    +0.145 HD
ATOM     26  C   LIG    1       25.992 -32.613   4.290  0.00  0.00    +0.244 C 
ATOM     27  O   LIG    1       27.096 -33.147   4.254  0.00  0.00    -0.270 OA
ENDBRANCH   1  26
TORSDOF 3
ENDMDL
MODEL 8
REMARK VINA RESULT:      -7.8      1.914      2.518
REMARK  Name = *****
REMARK                            x       y       z     vdW  Elec       q    Type
REMARK                         _______ _______ _______ _____ _____    ______ ____
ROOT
ATOM      1  C   LIG    1       25.139 -30.693   6.971  0.00  0.00    +0.064 A 
ATOM      2  C   LIG    1       25.396 -29.320   7.181  0.00  0.00    +0.105 A 
ATOM      3  C   LIG    1       26.133 -28.908   8.346  0.00  0.00    +0.021 A 
ATOM      4  C   LIG    1       26.239 -27.550   8.300  0.00  0.00    +0.123 A 
ATOM      5  N   LIG    1       25.601 -27.161   7.143  0.00  0.00    -0.239 N 
ATOM      6  C   LIG    1       26.663 -29.708   9.351  0.00  0.00    +0.012 A 
ATOM      7  C   LIG    1       26.395 -31.068   9.112  0.00  0.00    +0.002 A 
ATOM      8  N   LIG    1       25.073 -28.223   6.464  0.00  0.00    -0.166 NA
ATOM      9  C   LIG    1       25.666 -31.543   7.978  0.00  0.00    +0.015 A 
ENDROOT
BRANCH   5  10
ATOM     10  C   LIG    1       25.475 -25.834   6.640  0.00  0.00    +0.065 A 
ATOM     11  C   LIG    1       24.943 -25.603   5.368  0.00  0.00    +0.028 A 
ATOM     12  C   LIG    1       24.807 -24.299   4.886  0.00  0.00    +0.006 A 
ATOM     13  C   LIG    1       25.206 -23.194   5.647  0.00  0.00    -0.043 A 
ATOM     14  C   LIG    1       25.732 -23.435   6.927  0.00  0.00    +0.006 A 
ATOM     15  C   LIG    1       25.872 -24.740   7.420  0.00  0.00    +0.028 A 
BRANCH  13  16
ATOM     16  C   LIG    1       25.096 -21.761   5.133  0.00  0.00    +0.033 C 
ATOM     17  C   LIG    1       23.998 -21.531   4.066  0.00  0.00    +0.089 C 
ATOM     18  N   LIG    1       22.636 -21.444   4.608  0.00  0.00    -0.315 NA
ATOM     19  H   LIG    1       21.981 -21.254   3.851  0.00  0.00    +0.122 HD
ATOM     20  C   LIG    1       22.523 -20.407   5.630  0.00  0.00    +0.081 C 
ATOM     21  C   LIG    1       23.516 -20.611   6.773  0.00  0.00    +0.016 C 
ATOM     22  C   LIG    1       24.954 -20.735   6.270  0.00  0.00    +0.010 C 
ENDBRANCH  13  16
ENDBRANCH   5  10
BRANCH   1  26
ATOM     23  N   LIG    1       25.084 -31.401   4.655  0.00  0.00    -0.325 N 
ATOM     24  H   LIG    1       26.071 -31.164   4.588  0.00  0.00    +0.145 HD
ATOM     25  H   LIG    1       24.606 -31.787   3.854  0.00  0.00    +0.145 HD
ATOM     26  C   LIG    1       24.400 -31.239   5.822  0.00  0.00    +0.244 C 
ATOM     27  O   LIG    1       23.213 -31.537   5.913  0.00  0.00    -0.270 OA
ENDBRANCH   1  26
TORSDOF 3
ENDMDL
MODEL 9
REMARK VINA RESULT:      -7.6      6.042      8.561
REMARK  Name = *****
REMARK                            x       y       z     vdW  Elec       q    Type
REMARK                         _______ _______ _______ _____ _____    ______ ____
ROOT
ATOM      1  C   LIG    1       22.676 -20.414   4.953  0.00  0.00    +0.064 A 
ATOM      2  C   LIG    1       23.827 -20.837   5.654  0.00  0.00    +0.105 A 
ATOM      3  C   LIG    1       23.802 -22.085   6.368  0.00  0.00    +0.021 A 
ATOM      4  C   LIG    1       25.028 -22.247   6.943  0.00  0.00    +0.123 A 
ATOM      5  N   LIG    1       25.766 -21.143   6.577  0.00  0.00    -0.239 N 
ATOM      6  C   LIG    1       22.754 -22.990   6.475  0.00  0.00    +0.012 A 
ATOM      7  C   LIG    1       21.625 -22.545   5.764  0.00  0.00    +0.002 A 
ATOM      8  N   LIG    1       25.045 -20.274   5.807  0.00  0.00    -0.166 NA
ATOM      9  C   LIG    1       21.582 -21.315   5.037  0.00  0.00    +0.015 A 
ENDROOT
BRANCH   5  10
ATOM     10  C   LIG    1       27.125 -20.875   6.908  0.00  0.00    +0.065 A 
ATOM     11  C   LIG    1       27.851 -19.911   6.202  0.00  0.00    +0.028 A 
ATOM     12  C   LIG    1       29.179 -19.640   6.541  0.00  0.00    +0.006 A 
ATOM     13  C   LIG    1       29.822 -20.326   7.578  0.00  0.00    -0.043 A 
ATOM     14  C   LIG    1       29.082 -21.287   8.287  0.00  0.00    +0.006 A 
ATOM     15  C   LIG    1       27.749 -21.565   7.954  0.00  0.00    +0.028 A 
BRANCH  13  16
ATOM     16  C   LIG    1       31.280 -20.070   7.950  0.00  0.00    +0.033 C 
ATOM     17  C   LIG    1       31.882 -18.763   7.380  0.00  0.00    +0.089 C 
ATOM     18  N   LIG    1       31.482 -17.548   8.103  0.00  0.00    -0.315 NA
ATOM     19  H   LIG    1       31.949 -16.740   7.692  0.00  0.00    +0.122 HD
ATOM     20  C   LIG    1       31.802 -17.631   9.525  0.00  0.00    +0.081 C 
ATOM     21  C   LIG    1       31.167 -18.853  10.189  0.00  0.00    +0.016 C 
ATOM     22  C   LIG    1       31.525 -20.150   9.467  0.00  0.00    +0.010 C 
ENDBRANCH  13  16
ENDBRANCH   5  10
BRANCH   1  26
ATOM     23  N   LIG    1       23.681 -18.757   3.499  0.00  0.00    -0.325 N 
ATOM     24  H   LIG    1       24.536 -19.308   3.509  0.00  0.00    +0.145 HD
ATOM     25  H   LIG    1       23.636 -17.910   2.952  0.00  0.00    +0.145 HD
ATOM     26  C   LIG    1       22.576 -19.163   4.186  0.00  0.00    +0.244 C 
ATOM     27  O   LIG    1       21.536 -18.511   4.165  0.00  0.00    -0.270 OA
ENDBRANCH   1  26
TORSDOF 3
ENDMDL
