MODEL 1
REMARK VINA RESULT:      -7.6      0.000      0.000
REMARK  Name = *****
REMARK                            x       y       z     vdW  Elec       q    Type
REMARK                         _______ _______ _______ _____ _____    ______ ____
ROOT
ATOM      1  C   LIG    1       31.183 -19.429   8.633  0.00  0.00    +0.165 C 
ATOM      2  O   LIG    1       31.903 -20.230   9.218  0.00  0.00    -0.294 OA
ENDROOT
BRANCH   1   3
ATOM      3  C   LIG    1       30.372 -18.456   9.398  0.00  0.00    +0.223 C 
ATOM      4  C   LIG    1       30.914 -17.273  10.169  0.00  0.00    +0.240 C 
ATOM      5  O   LIG    1       30.593 -18.520  10.816  0.00  0.00    -0.350 OA
BRANCH   4   6
ATOM      6  C   LIG    1       32.335 -16.867  10.234  0.00  0.00    +0.242 C 
ATOM      7  O   LIG    1       33.019 -17.122  11.229  0.00  0.00    -0.273 OA
ATOM      8  N   LIG    1       32.815 -16.139   9.198  0.00  0.00    -0.327 N 
ATOM      9  H   LIG    1       32.272 -15.946   8.351  0.00  0.00    +0.145 HD
ATOM     10  H   LIG    1       33.786 -15.860   9.191  0.00  0.00    +0.145 HD
ENDBRANCH   4   6
ENDBRANCH   1   3
BRANCH   1  11
ATOM     11  C   LIG    1       31.121 -19.306   7.129  0.00  0.00    +0.081 C 
BRANCH  11  12
ATOM     12  C   LIG    1       29.672 -19.266   6.645  0.00  0.00    +0.034 C 
BRANCH  12  14
ATOM     13  C   LIG    1       28.001 -21.096   7.285  0.00  0.00    -0.027 C 
ATOM     14  C   LIG    1       29.072 -20.646   6.609  0.00  0.00    -0.030 C 
BRANCH  13  15
ATOM     15  C   LIG    1       27.121 -20.321   8.229  0.00  0.00    +0.053 C 
BRANCH  15  18
ATOM     16  C   LIG    1       23.490 -21.429   7.268  0.00  0.00    +0.035 C 
ATOM     17  C   LIG    1       24.865 -20.843   7.251  0.00  0.00    -0.034 C 
ATOM     18  C   LIG    1       25.727 -20.889   8.279  0.00  0.00    -0.027 C 
ENDBRANCH  15  18
ENDBRANCH  13  15
ENDBRANCH  12  14
ENDBRANCH  11  12
ENDBRANCH   1  11
TORSDOF 7
ENDMDL
MODEL 2
REMARK VINA RESULT:      -7.5      2.026      3.559
REMARK  Name = *****
REMARK                            x       y       z     vdW  Elec       q    Type
REMARK                         _______ _______ _______ _____ _____    ______ ____
ROOT
ATOM      1  C   LIG    1       28.697 -20.650   7.583  0.00  0.00    +0.165 C 
ATOM      2  O   LIG    1       29.021 -21.444   8.458  0.00  0.00    -0.294 OA
ENDROOT
BRANCH   1   3
ATOM      3  C   LIG    1       29.727 -19.997   6.746  0.00  0.00    +0.223 C 
ATOM      4  C   LIG    1       30.908 -19.206   7.262  0.00  0.00    +0.240 C 
ATOM      5  O   LIG    1       29.696 -18.563   6.819  0.00  0.00    -0.350 OA
BRANCH   4   6
ATOM      6  C   LIG    1       31.253 -19.007   8.687  0.00  0.00    +0.242 C 
ATOM      7  O   LIG    1       32.058 -19.754   9.251  0.00  0.00    -0.273 OA
ATOM      8  N   LIG    1       30.586 -18.034   9.351  0.00  0.00    -0.327 N 
ATOM      9  H   LIG    1       29.939 -17.386   8.892  0.00  0.00    +0.145 HD
ATOM     10  H   LIG    1       30.806 -17.850  10.320  0.00  0.00    +0.145 HD
ENDBRANCH   4   6
ENDBRANCH   1   3
BRANCH   1  11
ATOM     11  C   LIG    1       27.261 -20.337   7.231  0.00  0.00    +0.081 C 
BRANCH  11  12
ATOM     12  C   LIG    1       26.313 -20.833   8.323  0.00  0.00    +0.034 C 
BRANCH  12  14
ATOM     13  C   LIG    1       24.352 -22.238   7.469  0.00  0.00    -0.027 C 
ATOM     14  C   LIG    1       25.616 -22.100   7.903  0.00  0.00    -0.030 C 
BRANCH  13  15
ATOM     15  C   LIG    1       23.326 -21.155   7.275  0.00  0.00    +0.053 C 
BRANCH  15  18
ATOM     16  C   LIG    1       22.781 -18.871   4.140  0.00  0.00    +0.035 C 
ATOM     17  C   LIG    1       22.602 -19.613   5.425  0.00  0.00    -0.034 C 
ATOM     18  C   LIG    1       23.512 -20.443   5.961  0.00  0.00    -0.027 C 
ENDBRANCH  15  18
ENDBRANCH  13  15
ENDBRANCH  12  14
ENDBRANCH  11  12
ENDBRANCH   1  11
TORSDOF 7
ENDMDL
MODEL 3
REMARK VINA RESULT:      -7.5      1.908      2.908
REMARK  Name = *****
REMARK                            x       y       z     vdW  Elec       q    Type
REMARK                         _______ _______ _______ _____ _____    ______ ____
ROOT
ATOM      1  C   LIG    1       29.583 -19.317   6.332  0.00  0.00    +0.165 C 
ATOM      2  O   LIG    1       30.029 -18.339   5.742  0.00  0.00    -0.294 OA
ENDROOT
BRANCH   1   3
ATOM      3  C   LIG    1       30.412 -20.032   7.327  0.00  0.00    +0.223 C 
ATOM      4  C   LIG    1       31.140 -19.394   8.488  0.00  0.00    +0.240 C 
ATOM      5  O   LIG    1       31.808 -19.703   7.249  0.00  0.00    -0.350 OA
BRANCH   4   6
ATOM      6  C   LIG    1       31.093 -17.960   8.848  0.00  0.00    +0.242 C 
ATOM      7  O   LIG    1       31.986 -17.188   8.486  0.00  0.00    -0.273 OA
ATOM      8  N   LIG    1       30.080 -17.560   9.653  0.00  0.00    -0.327 N 
ATOM      9  H   LIG    1       29.314 -18.178   9.937  0.00  0.00    +0.145 HD
ATOM     10  H   LIG    1       29.998 -16.585   9.906  0.00  0.00    +0.145 HD
ENDBRANCH   4   6
ENDBRANCH   1   3
BRANCH   1  11
ATOM     11  C   LIG    1       28.166 -19.814   6.168  0.00  0.00    +0.081 C 
BRANCH  11  12
ATOM     12  C   LIG    1       27.857 -20.920   7.176  0.00  0.00    +0.034 C 
BRANCH  12  14
ATOM     13  C   LIG    1       25.668 -20.735   8.489  0.00  0.00    -0.027 C 
ATOM     14  C   LIG    1       26.956 -20.419   8.273  0.00  0.00    -0.030 C 
BRANCH  13  15
ATOM     15  C   LIG    1       24.814 -21.688   7.698  0.00  0.00    +0.053 C 
BRANCH  15  18
ATOM     16  C   LIG    1       22.542 -19.713   5.192  0.00  0.00    +0.035 C 
ATOM     17  C   LIG    1       23.698 -20.387   5.858  0.00  0.00    -0.034 C 
ATOM     18  C   LIG    1       23.644 -20.986   7.059  0.00  0.00    -0.027 C 
ENDBRANCH  15  18
ENDBRANCH  13  15
ENDBRANCH  12  14
ENDBRANCH  11  12
ENDBRANCH   1  11
TORSDOF 7
ENDMDL
MODEL 4
REMARK VINA RESULT:      -7.3      7.752      9.394
REMARK  Name = *****
REMARK                            x       y       z     vdW  Elec       q    Type
REMARK                         _______ _______ _______ _____ _____    ______ ____
ROOT
ATOM      1  C   LIG    1       24.789 -25.035   6.281  0.00  0.00    +0.165 C 
ATOM      2  O   LIG    1       23.580 -25.156   6.447  0.00  0.00    -0.294 OA
ENDROOT
BRANCH   1   3
ATOM      3  C   LIG    1       25.459 -25.709   5.148  0.00  0.00    +0.223 C 
ATOM      4  C   LIG    1       25.493 -27.201   4.906  0.00  0.00    +0.240 C 
ATOM      5  O   LIG    1       26.584 -26.509   5.545  0.00  0.00    -0.350 OA
BRANCH   4   6
ATOM      6  C   LIG    1       24.812 -28.221   5.734  0.00  0.00    +0.242 C 
ATOM      7  O   LIG    1       25.302 -28.597   6.803  0.00  0.00    -0.273 OA
ATOM      8  N   LIG    1       23.685 -28.774   5.226  0.00  0.00    -0.327 N 
ATOM      9  H   LIG    1       23.247 -28.452   4.357  0.00  0.00    +0.145 HD
ATOM     10  H   LIG    1       23.176 -29.458   5.768  0.00  0.00    +0.145 HD
ENDBRANCH   4   6
ENDBRANCH   1   3
BRANCH   1  11
ATOM     11  C   LIG    1       25.663 -24.149   7.138  0.00  0.00    +0.081 C 
BRANCH  11  12
ATOM     12  C   LIG    1       25.664 -22.714   6.613  0.00  0.00    +0.034 C 
BRANCH  12  14
ATOM     13  C   LIG    1       23.512 -21.484   7.249  0.00  0.00    -0.027 C 
ATOM     14  C   LIG    1       24.794 -21.824   7.461  0.00  0.00    -0.030 C 
BRANCH  13  15
ATOM     15  C   LIG    1       22.620 -21.926   6.121  0.00  0.00    +0.053 C 
BRANCH  15  18
ATOM     16  C   LIG    1       22.379 -18.425   4.383  0.00  0.00    +0.035 C 
ATOM     17  C   LIG    1       22.531 -19.524   5.385  0.00  0.00    -0.034 C 
ATOM     18  C   LIG    1       22.430 -20.833   5.102  0.00  0.00    -0.027 C 
ENDBRANCH  15  18
ENDBRANCH  13  15
ENDBRANCH  12  14
ENDBRANCH  11  12
ENDBRANCH   1  11
TORSDOF 7
ENDMDL
MODEL 5
REMARK VINA RESULT:      -7.1      2.712      3.802
REMARK  Name = *****
REMARK                            x       y       z     vdW  Elec       q    Type
REMARK                         _______ _______ _______ _____ _____    ______ ____
ROOT
ATOM      1  C   LIG    1       28.874 -20.606   7.519  0.00  0.00    +0.165 C 
ATOM      2  O   LIG    1       29.166 -21.499   8.307  0.00  0.00    -0.294 OA
ENDROOT
BRANCH   1   3
ATOM      3  C   LIG    1       29.935 -19.809   6.865  0.00  0.00    +0.223 C 
ATOM      4  C   LIG    1       31.171 -19.264   7.544  0.00  0.00    +0.240 C 
ATOM      5  O   LIG    1       29.999 -18.452   7.332  0.00  0.00    -0.350 OA
BRANCH   4   6
ATOM      6  C   LIG    1       31.545 -19.489   8.957  0.00  0.00    +0.242 C 
ATOM      7  O   LIG    1       32.219 -20.470   9.284  0.00  0.00    -0.273 OA
ATOM      8  N   LIG    1       31.045 -18.624   9.872  0.00  0.00    -0.327 N 
ATOM      9  H   LIG    1       30.511 -17.788   9.617  0.00  0.00    +0.145 HD
ATOM     10  H   LIG    1       31.293 -18.728  10.845  0.00  0.00    +0.145 HD
ENDBRANCH   4   6
ENDBRANCH   1   3
BRANCH   1  11
ATOM     11  C   LIG    1       27.457 -20.303   7.091  0.00  0.00    +0.081 C 
BRANCH  11  12
ATOM     12  C   LIG    1       26.486 -20.483   8.257  0.00  0.00    +0.034 C 
BRANCH  12  14
ATOM     13  C   LIG    1       24.841 -22.257   7.424  0.00  0.00    -0.027 C 
ATOM     14  C   LIG    1       25.155 -21.000   7.781  0.00  0.00    -0.030 C 
BRANCH  13  15
ATOM     15  C   LIG    1       25.739 -23.465   7.435  0.00  0.00    +0.053 C 
BRANCH  15  18
ATOM     16  C   LIG    1       25.656 -26.585   5.070  0.00  0.00    +0.035 C 
ATOM     17  C   LIG    1       26.036 -25.580   6.109  0.00  0.00    -0.034 C 
ATOM     18  C   LIG    1       25.357 -24.449   6.360  0.00  0.00    -0.027 C 
ENDBRANCH  15  18
ENDBRANCH  13  15
ENDBRANCH  12  14
ENDBRANCH  11  12
ENDBRANCH   1  11
TORSDOF 7
ENDMDL
MODEL 6
REMARK VINA RESULT:      -7.0      2.271      3.640
REMARK  Name = *****
REMARK                            x       y       z     vdW  Elec       q    Type
REMARK                         _______ _______ _______ _____ _____    ______ ____
ROOT
ATOM      1  C   LIG    1       28.690 -20.098   7.611  0.00  0.00    +0.165 C 
ATOM      2  O   LIG    1       28.568 -19.482   8.664  0.00  0.00    -0.294 OA
ENDROOT
BRANCH   1   3
ATOM      3  C   LIG    1       29.824 -19.813   6.705  0.00  0.00    +0.223 C 
ATOM      4  C   LIG    1       31.175 -19.280   7.127  0.00  0.00    +0.240 C 
ATOM      5  O   LIG    1       30.143 -18.416   6.612  0.00  0.00    -0.350 OA
BRANCH   4   6
ATOM      6  C   LIG    1       31.596 -19.012   8.519  0.00  0.00    +0.242 C 
ATOM      7  O   LIG    1       32.111 -19.900   9.205  0.00  0.00    -0.273 OA
ATOM      8  N   LIG    1       31.315 -17.787   9.023  0.00  0.00    -0.327 N 
ATOM      9  H   LIG    1       30.918 -17.029   8.460  0.00  0.00    +0.145 HD
ATOM     10  H   LIG    1       31.604 -17.554   9.962  0.00  0.00    +0.145 HD
ENDBRANCH   4   6
ENDBRANCH   1   3
BRANCH   1  11
ATOM     11  C   LIG    1       27.775 -21.226   7.194  0.00  0.00    +0.081 C 
BRANCH  11  12
ATOM     12  C   LIG    1       26.500 -20.683   6.552  0.00  0.00    +0.034 C 
BRANCH  12  14
ATOM     13  C   LIG    1       24.247 -21.394   7.536  0.00  0.00    -0.027 C 
ATOM     14  C   LIG    1       25.365 -20.648   7.541  0.00  0.00    -0.030 C 
BRANCH  13  15
ATOM     15  C   LIG    1       23.863 -22.465   6.551  0.00  0.00    +0.053 C 
BRANCH  15  18
ATOM     16  C   LIG    1       26.079 -25.678   6.234  0.00  0.00    +0.035 C 
ATOM     17  C   LIG    1       25.346 -24.406   5.956  0.00  0.00    -0.034 C 
ATOM     18  C   LIG    1       24.567 -23.764   6.842  0.00  0.00    -0.027 C 
ENDBRANCH  15  18
ENDBRANCH  13  15
ENDBRANCH  12  14
ENDBRANCH  11  12
ENDBRANCH   1  11
TORSDOF 7
ENDMDL
MODEL 7
REMARK VINA RESULT:      -6.9      3.173      5.375
REMARK  Name = *****
REMARK                            x       y       z     vdW  Elec       q    Type
REMARK                         _______ _______ _______ _____ _____    ______ ____
ROOT
ATOM      1  C   LIG    1       26.195 -20.824   8.288  0.00  0.00    +0.165 C 
ATOM      2  O   LIG    1       25.872 -20.486   9.421  0.00  0.00    -0.294 OA
ENDROOT
BRANCH   1   3
ATOM      3  C   LIG    1       27.402 -21.650   8.069  0.00  0.00    +0.223 C 
ATOM      4  C   LIG    1       28.795 -21.123   7.810  0.00  0.00    +0.240 C 
ATOM      5  O   LIG    1       27.931 -21.548   6.738  0.00  0.00    -0.350 OA
BRANCH   4   6
ATOM      6  C   LIG    1       29.184 -19.695   7.789  0.00  0.00    +0.242 C 
ATOM      7  O   LIG    1       29.317 -19.062   8.841  0.00  0.00    -0.273 OA
ATOM      8  N   LIG    1       29.300 -19.106   6.576  0.00  0.00    -0.327 N 
ATOM      9  H   LIG    1       29.224 -19.623   5.694  0.00  0.00    +0.145 HD
ATOM     10  H   LIG    1       29.584 -18.139   6.515  0.00  0.00    +0.145 HD
ENDBRANCH   4   6
ENDBRANCH   1   3
BRANCH   1  11
ATOM     11  C   LIG    1       25.374 -20.510   7.058  0.00  0.00    +0.081 C 
BRANCH  11  12
ATOM     12  C   LIG    1       23.905 -20.866   7.280  0.00  0.00    +0.034 C 
BRANCH  12  14
ATOM     13  C   LIG    1       22.584 -21.037   5.095  0.00  0.00    -0.027 C 
ATOM     14  C   LIG    1       23.329 -21.568   6.079  0.00  0.00    -0.030 C 
BRANCH  13  15
ATOM     15  C   LIG    1       22.158 -19.602   4.940  0.00  0.00    +0.053 C 
BRANCH  15  18
ATOM     16  C   LIG    1       25.456 -18.424   3.188  0.00  0.00    +0.035 C 
ATOM     17  C   LIG    1       24.358 -19.250   3.775  0.00  0.00    -0.034 C 
ATOM     18  C   LIG    1       23.270 -18.752   4.384  0.00  0.00    -0.027 C 
ENDBRANCH  15  18
ENDBRANCH  13  15
ENDBRANCH  12  14
ENDBRANCH  11  12
ENDBRANCH   1  11
TORSDOF 7
ENDMDL
MODEL 8
REMARK VINA RESULT:      -6.8      6.597      9.295
REMARK  Name = *****
REMARK                            x       y       z     vdW  Elec       q    Type
REMARK                         _______ _______ _______ _____ _____    ______ ____
ROOT
ATOM      1  C   LIG    1       24.701 -24.826   6.264  0.00  0.00    +0.165 C 
ATOM      2  O   LIG    1       23.506 -24.964   6.503  0.00  0.00    -0.294 OA
ENDROOT
BRANCH   1   3
ATOM      3  C   LIG    1       25.316 -25.517   5.109  0.00  0.00    +0.223 C 
ATOM      4  C   LIG    1       25.384 -27.014   4.913  0.00  0.00    +0.240 C 
ATOM      5  O   LIG    1       26.492 -26.266   5.454  0.00  0.00    -0.350 OA
BRANCH   4   6
ATOM      6  C   LIG    1       24.796 -28.027   5.818  0.00  0.00    +0.242 C 
ATOM      7  O   LIG    1       25.265 -28.216   6.944  0.00  0.00    -0.273 OA
ATOM      8  N   LIG    1       23.787 -28.782   5.323  0.00  0.00    -0.327 N 
ATOM      9  H   LIG    1       23.364 -28.618   4.404  0.00  0.00    +0.145 HD
ATOM     10  H   LIG    1       23.342 -29.470   5.914  0.00  0.00    +0.145 HD
ENDBRANCH   4   6
ENDBRANCH   1   3
BRANCH   1  11
ATOM     11  C   LIG    1       25.607 -23.904   7.046  0.00  0.00    +0.081 C 
BRANCH  11  12
ATOM     12  C   LIG    1       24.860 -22.642   7.475  0.00  0.00    +0.034 C 
BRANCH  12  14
ATOM     13  C   LIG    1       26.601 -20.783   7.720  0.00  0.00    -0.027 C 
ATOM     14  C   LIG    1       25.765 -21.705   8.228  0.00  0.00    -0.030 C 
BRANCH  13  15
ATOM     15  C   LIG    1       26.822 -20.446   6.271  0.00  0.00    +0.053 C 
BRANCH  15  18
ATOM     16  C   LIG    1       30.562 -19.367   6.696  0.00  0.00    +0.035 C 
ATOM     17  C   LIG    1       29.197 -19.935   6.916  0.00  0.00    -0.034 C 
ATOM     18  C   LIG    1       28.181 -19.837   6.044  0.00  0.00    -0.027 C 
ENDBRANCH  15  18
ENDBRANCH  13  15
ENDBRANCH  12  14
ENDBRANCH  11  12
ENDBRANCH   1  11
TORSDOF 7
ENDMDL
MODEL 9
REMARK VINA RESULT:      -6.8      8.342     10.060
REMARK  Name = *****
REMARK                            x       y       z     vdW  Elec       q    Type
REMARK                         _______ _______ _______ _____ _____    ______ ____
ROOT
ATOM      1  C   LIG    1       25.736 -26.795   5.683  0.00  0.00    +0.165 C 
ATOM      2  O   LIG    1       26.694 -26.930   4.931  0.00  0.00    -0.294 OA
ENDROOT
BRANCH   1   3
ATOM      3  C   LIG    1       24.503 -27.586   5.473  0.00  0.00    +0.223 C 
ATOM      4  C   LIG    1       24.193 -28.920   6.114  0.00  0.00    +0.240 C 
ATOM      5  O   LIG    1       24.731 -28.823   4.780  0.00  0.00    -0.350 OA
BRANCH   4   6
ATOM      6  C   LIG    1       25.048 -29.620   7.097  0.00  0.00    +0.242 C 
ATOM      7  O   LIG    1       24.951 -29.377   8.304  0.00  0.00    -0.273 OA
ATOM      8  N   LIG    1       25.986 -30.464   6.607  0.00  0.00    -0.327 N 
ATOM      9  H   LIG    1       26.060 -30.701   5.613  0.00  0.00    +0.145 HD
ATOM     10  H   LIG    1       26.577 -30.979   7.244  0.00  0.00    +0.145 HD
ENDBRANCH   4   6
ENDBRANCH   1   3
BRANCH   1  11
ATOM     11  C   LIG    1       25.753 -25.904   6.903  0.00  0.00    +0.081 C 
BRANCH  11  12
ATOM     12  C   LIG    1       25.460 -24.453   6.522  0.00  0.00    +0.034 C 
BRANCH  12  14
ATOM     13  C   LIG    1       23.279 -23.159   6.862  0.00  0.00    -0.027 C 
ATOM     14  C   LIG    1       23.979 -24.211   6.404  0.00  0.00    -0.030 C 
BRANCH  13  15
ATOM     15  C   LIG    1       23.808 -21.951   7.587  0.00  0.00    +0.053 C 
BRANCH  15  18
ATOM     16  C   LIG    1       22.480 -19.381   4.947  0.00  0.00    +0.035 C 
ATOM     17  C   LIG    1       22.804 -20.633   5.695  0.00  0.00    -0.034 C 
ATOM     18  C   LIG    1       23.522 -20.681   6.830  0.00  0.00    -0.027 C 
ENDBRANCH  15  18
ENDBRANCH  13  15
ENDBRANCH  12  14
ENDBRANCH  11  12
ENDBRANCH   1  11
TORSDOF 7
ENDMDL
