MODEL 1
REMARK VINA RESULT:      -5.5      0.000      0.000
REMARK  Name = *****
REMARK                            x       y       z     vdW  Elec       q    Type
REMARK                         _______ _______ _______ _____ _____    ______ ____
ROOT
ATOM      1  C   LIG    1       24.864 -18.069   3.528  0.00  0.00    +0.264 C 
ENDROOT
BRANCH   1   2
ATOM      2  O   LIG    1       25.045 -19.484   3.629  0.00  0.00    -0.486 OA
BRANCH   2   4
ATOM      3  C   LIG    1       25.548 -20.457   5.869  0.00  0.00    +0.162 A 
ATOM      4  C   LIG    1       24.693 -20.085   4.812  0.00  0.00    +0.162 A 
ATOM      5  C   LIG    1       23.331 -20.420   4.882  0.00  0.00    +0.049 A 
ATOM      6  C   LIG    1       22.803 -21.058   6.005  0.00  0.00    +0.004 A 
ATOM      7  C   LIG    1       23.641 -21.401   7.057  0.00  0.00    +0.004 A 
ATOM      8  C   LIG    1       25.005 -21.127   6.976  0.00  0.00    +0.049 A 
BRANCH   3  10
ATOM      9  C   LIG    1       27.642 -20.300   6.999  0.00  0.00    +0.277 C 
ATOM     10  O   LIG    1       26.901 -20.235   5.775  0.00  0.00    -0.491 OA
ENDBRANCH   3  10
ENDBRANCH   2   4
ENDBRANCH   1   2
BRANCH   1  11
ATOM     11  C   LIG    1       26.196 -17.381   3.210  0.00  0.00    +0.189 C 
BRANCH  11  12
ATOM     12  O   LIG    1       27.265 -17.911   4.012  0.00  0.00    -0.385 OA
ATOM     13  H   LIG    1       28.105 -17.795   3.523  0.00  0.00    +0.210 HD
ENDBRANCH  11  12
BRANCH  11  14
ATOM     14  C   LIG    1       26.111 -15.858   3.353  0.00  0.00    +0.268 C 
BRANCH  14  15
ATOM     15  O   LIG    1       27.421 -15.390   3.713  0.00  0.00    -0.448 OA
BRANCH  15  16
ATOM     16  C   LIG    1       27.460 -14.107   4.148  0.00  0.00    +0.398 C 
ATOM     17  O   LIG    1       26.956 -13.665   5.148  0.00  0.00    -0.227 OA
ATOM     18  N   LIG    1       28.201 -13.383   3.275  0.00  0.00    -0.295 N 
ATOM     19  H   LIG    1       28.221 -12.384   3.386  0.00  0.00    +0.148 HD
ATOM     20  H   LIG    1       28.572 -13.835   2.459  0.00  0.00    +0.148 HD
ENDBRANCH  15  16
ENDBRANCH  14  15
ENDBRANCH  11  14
ENDBRANCH   1  11
TORSDOF 8
ENDMDL
MODEL 2
REMARK VINA RESULT:      -5.5      1.149      1.164
REMARK  Name = *****
REMARK                            x       y       z     vdW  Elec       q    Type
REMARK                         _______ _______ _______ _____ _____    ______ ____
ROOT
ATOM      1  C   LIG    1       25.433 -17.625   3.405  0.00  0.00    +0.264 C 
ENDROOT
BRANCH   1   2
ATOM      2  O   LIG    1       25.451 -19.054   3.455  0.00  0.00    -0.486 OA
BRANCH   2   4
ATOM      3  C   LIG    1       25.440 -20.282   5.626  0.00  0.00    +0.162 A 
ATOM      4  C   LIG    1       24.828 -19.659   4.518  0.00  0.00    +0.162 A 
ATOM      5  C   LIG    1       23.430 -19.707   4.390  0.00  0.00    +0.049 A 
ATOM      6  C   LIG    1       22.638 -20.306   5.370  0.00  0.00    +0.004 A 
ATOM      7  C   LIG    1       23.239 -20.897   6.473  0.00  0.00    +0.004 A 
ATOM      8  C   LIG    1       24.628 -20.908   6.584  0.00  0.00    +0.049 A 
BRANCH   3  10
ATOM      9  C   LIG    1       27.355 -20.414   7.039  0.00  0.00    +0.277 C 
ATOM     10  O   LIG    1       26.809 -20.339   5.717  0.00  0.00    -0.491 OA
ENDBRANCH   3  10
ENDBRANCH   2   4
ENDBRANCH   1   2
BRANCH   1  11
ATOM     11  C   LIG    1       26.862 -17.073   3.354  0.00  0.00    +0.189 C 
BRANCH  11  12
ATOM     12  O   LIG    1       27.738 -17.804   4.229  0.00  0.00    -0.385 OA
ATOM     13  H   LIG    1       28.302 -18.389   3.684  0.00  0.00    +0.210 HD
ENDBRANCH  11  12
BRANCH  11  14
ATOM     14  C   LIG    1       26.916 -15.573   3.658  0.00  0.00    +0.268 C 
BRANCH  14  15
ATOM     15  O   LIG    1       26.513 -14.881   2.465  0.00  0.00    -0.448 OA
BRANCH  15  16
ATOM     16  C   LIG    1       26.544 -13.530   2.560  0.00  0.00    +0.398 C 
ATOM     17  O   LIG    1       25.640 -12.767   2.334  0.00  0.00    -0.227 OA
ATOM     18  N   LIG    1       27.775 -13.160   2.990  0.00  0.00    -0.295 N 
ATOM     19  H   LIG    1       28.001 -12.181   2.989  0.00  0.00    +0.148 HD
ATOM     20  H   LIG    1       28.470 -13.867   3.140  0.00  0.00    +0.148 HD
ENDBRANCH  15  16
ENDBRANCH  14  15
ENDBRANCH  11  14
ENDBRANCH   1  11
TORSDOF 8
ENDMDL
MODEL 3
REMARK VINA RESULT:      -5.4      1.000      1.149
REMARK  Name = *****
REMARK                            x       y       z     vdW  Elec       q    Type
REMARK                         _______ _______ _______ _____ _____    ______ ____
ROOT
ATOM      1  C   LIG    1       25.510 -17.788   3.340  0.00  0.00    +0.264 C 
ENDROOT
BRANCH   1   2
ATOM      2  O   LIG    1       25.791 -19.107   3.817  0.00  0.00    -0.486 OA
BRANCH   2   4
ATOM      3  C   LIG    1       25.022 -20.676   5.596  0.00  0.00    +0.162 A 
ATOM      4  C   LIG    1       24.826 -19.725   4.574  0.00  0.00    +0.162 A 
ATOM      5  C   LIG    1       23.517 -19.398   4.183  0.00  0.00    +0.049 A 
ATOM      6  C   LIG    1       22.413 -19.954   4.830  0.00  0.00    +0.004 A 
ATOM      7  C   LIG    1       22.606 -20.871   5.853  0.00  0.00    +0.004 A 
ATOM      8  C   LIG    1       23.898 -21.248   6.213  0.00  0.00    +0.049 A 
BRANCH   3  10
ATOM      9  C   LIG    1       26.890 -20.460   7.061  0.00  0.00    +0.277 C 
ATOM     10  O   LIG    1       26.291 -21.090   5.922  0.00  0.00    -0.491 OA
ENDBRANCH   3  10
ENDBRANCH   2   4
ENDBRANCH   1   2
BRANCH   1  11
ATOM     11  C   LIG    1       26.794 -16.954   3.286  0.00  0.00    +0.189 C 
BRANCH  11  12
ATOM     12  O   LIG    1       27.803 -17.486   4.162  0.00  0.00    -0.385 OA
ATOM     13  H   LIG    1       28.278 -18.200   3.690  0.00  0.00    +0.210 HD
ENDBRANCH  11  12
BRANCH  11  14
ATOM     14  C   LIG    1       26.539 -15.474   3.586  0.00  0.00    +0.268 C 
BRANCH  14  15
ATOM     15  O   LIG    1       27.787 -14.902   4.009  0.00  0.00    -0.448 OA
BRANCH  15  16
ATOM     16  C   LIG    1       27.997 -13.632   3.586  0.00  0.00    +0.398 C 
ATOM     17  O   LIG    1       28.839 -12.867   3.982  0.00  0.00    -0.227 OA
ATOM     18  N   LIG    1       27.111 -13.359   2.599  0.00  0.00    -0.295 N 
ATOM     19  H   LIG    1       27.051 -12.412   2.266  0.00  0.00    +0.148 HD
ATOM     20  H   LIG    1       26.436 -14.057   2.344  0.00  0.00    +0.148 HD
ENDBRANCH  15  16
ENDBRANCH  14  15
ENDBRANCH  11  14
ENDBRANCH   1  11
TORSDOF 8
ENDMDL
MODEL 4
REMARK VINA RESULT:      -5.1      1.162      2.398
REMARK  Name = *****
REMARK                            x       y       z     vdW  Elec       q    Type
REMARK                         _______ _______ _______ _____ _____    ______ ____
ROOT
ATOM      1  C   LIG    1       25.454 -17.909   3.411  0.00  0.00    +0.264 C 
ENDROOT
BRANCH   1   2
ATOM      2  O   LIG    1       25.754 -19.275   3.713  0.00  0.00    -0.486 OA
BRANCH   2   4
ATOM      3  C   LIG    1       23.670 -19.944   4.909  0.00  0.00    +0.162 A 
ATOM      4  C   LIG    1       25.069 -19.859   4.750  0.00  0.00    +0.162 A 
ATOM      5  C   LIG    1       25.906 -20.329   5.776  0.00  0.00    +0.049 A 
ATOM      6  C   LIG    1       25.376 -20.931   6.917  0.00  0.00    +0.004 A 
ATOM      7  C   LIG    1       24.000 -21.038   7.062  0.00  0.00    +0.004 A 
ATOM      8  C   LIG    1       23.156 -20.524   6.079  0.00  0.00    +0.049 A 
BRANCH   3  10
ATOM      9  C   LIG    1       21.983 -18.334   4.416  0.00  0.00    +0.277 C 
ATOM     10  O   LIG    1       22.833 -19.396   3.968  0.00  0.00    -0.491 OA
ENDBRANCH   3  10
ENDBRANCH   2   4
ENDBRANCH   1   2
BRANCH   1  11
ATOM     11  C   LIG    1       26.744 -17.088   3.310  0.00  0.00    +0.189 C 
BRANCH  11  12
ATOM     12  O   LIG    1       27.757 -17.590   4.199  0.00  0.00    -0.385 OA
ATOM     13  H   LIG    1       28.562 -17.045   4.089  0.00  0.00    +0.210 HD
ENDBRANCH  11  12
BRANCH  11  14
ATOM     14  C   LIG    1       26.502 -15.595   3.549  0.00  0.00    +0.268 C 
BRANCH  14  15
ATOM     15  O   LIG    1       27.746 -15.025   3.986  0.00  0.00    -0.448 OA
BRANCH  15  16
ATOM     16  C   LIG    1       27.972 -13.762   3.549  0.00  0.00    +0.398 C 
ATOM     17  O   LIG    1       28.793 -12.987   3.968  0.00  0.00    -0.227 OA
ATOM     18  N   LIG    1       27.129 -13.509   2.520  0.00  0.00    -0.295 N 
ATOM     19  H   LIG    1       27.081 -12.569   2.168  0.00  0.00    +0.148 HD
ATOM     20  H   LIG    1       26.467 -14.213   2.248  0.00  0.00    +0.148 HD
ENDBRANCH  15  16
ENDBRANCH  14  15
ENDBRANCH  11  14
ENDBRANCH   1  11
TORSDOF 8
ENDMDL
MODEL 5
REMARK VINA RESULT:      -5.1      1.411      2.518
REMARK  Name = *****
REMARK                            x       y       z     vdW  Elec       q    Type
REMARK                         _______ _______ _______ _____ _____    ______ ____
ROOT
ATOM      1  C   LIG    1       25.526 -17.830   3.456  0.00  0.00    +0.264 C 
ENDROOT
BRANCH   1   2
ATOM      2  O   LIG    1       25.713 -19.236   3.637  0.00  0.00    -0.486 OA
BRANCH   2   4
ATOM      3  C   LIG    1       23.666 -19.904   4.896  0.00  0.00    +0.162 A 
ATOM      4  C   LIG    1       25.058 -19.832   4.687  0.00  0.00    +0.162 A 
ATOM      5  C   LIG    1       25.926 -20.329   5.674  0.00  0.00    +0.049 A 
ATOM      6  C   LIG    1       25.431 -20.947   6.823  0.00  0.00    +0.004 A 
ATOM      7  C   LIG    1       24.060 -21.041   7.015  0.00  0.00    +0.004 A 
ATOM      8  C   LIG    1       23.188 -20.500   6.073  0.00  0.00    +0.049 A 
BRANCH   3  10
ATOM      9  C   LIG    1       22.048 -18.207   4.467  0.00  0.00    +0.277 C 
ATOM     10  O   LIG    1       22.801 -19.330   3.996  0.00  0.00    -0.491 OA
ENDBRANCH   3  10
ENDBRANCH   2   4
ENDBRANCH   1   2
BRANCH   1  11
ATOM     11  C   LIG    1       26.879 -17.118   3.366  0.00  0.00    +0.189 C 
BRANCH  11  12
ATOM     12  O   LIG    1       27.860 -17.746   4.210  0.00  0.00    -0.385 OA
ATOM     13  H   LIG    1       28.725 -17.316   4.052  0.00  0.00    +0.210 HD
ENDBRANCH  11  12
BRANCH  11  14
ATOM     14  C   LIG    1       26.771 -15.622   3.678  0.00  0.00    +0.268 C 
BRANCH  14  15
ATOM     15  O   LIG    1       26.516 -14.945   2.438  0.00  0.00    -0.448 OA
BRANCH  15  16
ATOM     16  C   LIG    1       26.515 -13.592   2.524  0.00  0.00    +0.398 C 
ATOM     17  O   LIG    1       25.600 -12.851   2.272  0.00  0.00    -0.227 OA
ATOM     18  N   LIG    1       27.727 -13.193   2.978  0.00  0.00    -0.295 N 
ATOM     19  H   LIG    1       27.932 -12.209   2.976  0.00  0.00    +0.148 HD
ATOM     20  H   LIG    1       28.435 -13.884   3.149  0.00  0.00    +0.148 HD
ENDBRANCH  15  16
ENDBRANCH  14  15
ENDBRANCH  11  14
ENDBRANCH   1  11
TORSDOF 8
ENDMDL
MODEL 6
REMARK VINA RESULT:      -5.0      1.911      2.423
REMARK  Name = *****
REMARK                            x       y       z     vdW  Elec       q    Type
REMARK                         _______ _______ _______ _____ _____    ______ ____
ROOT
ATOM      1  C   LIG    1       26.559 -17.167   3.654  0.00  0.00    +0.264 C 
ENDROOT
BRANCH   1   2
ATOM      2  O   LIG    1       25.539 -17.950   3.029  0.00  0.00    -0.486 OA
BRANCH   2   4
ATOM      3  C   LIG    1       25.064 -19.751   4.687  0.00  0.00    +0.162 A 
ATOM      4  C   LIG    1       24.709 -18.677   3.846  0.00  0.00    +0.162 A 
ATOM      5  C   LIG    1       23.355 -18.322   3.722  0.00  0.00    +0.049 A 
ATOM      6  C   LIG    1       22.369 -18.975   4.463  0.00  0.00    +0.004 A 
ATOM      7  C   LIG    1       22.722 -20.015   5.310  0.00  0.00    +0.004 A 
ATOM      8  C   LIG    1       24.054 -20.416   5.399  0.00  0.00    +0.049 A 
BRANCH   3  10
ATOM      9  C   LIG    1       26.919 -20.368   6.052  0.00  0.00    +0.277 C 
ATOM     10  O   LIG    1       26.367 -20.184   4.743  0.00  0.00    -0.491 OA
ENDBRANCH   3  10
ENDBRANCH   2   4
ENDBRANCH   1   2
BRANCH   1  11
ATOM     11  C   LIG    1       26.445 -15.700   3.228  0.00  0.00    +0.189 C 
BRANCH  11  12
ATOM     12  O   LIG    1       27.604 -14.946   3.624  0.00  0.00    -0.385 OA
ATOM     13  H   LIG    1       28.385 -15.535   3.582  0.00  0.00    +0.210 HD
ENDBRANCH  11  12
BRANCH  11  14
ATOM     14  C   LIG    1       25.164 -15.041   3.749  0.00  0.00    +0.268 C 
BRANCH  14  15
ATOM     15  O   LIG    1       25.454 -13.650   3.960  0.00  0.00    -0.448 OA
BRANCH  15  16
ATOM     16  C   LIG    1       24.383 -12.828   3.847  0.00  0.00    +0.398 C 
ATOM     17  O   LIG    1       23.961 -12.069   4.682  0.00  0.00    -0.227 OA
ATOM     18  N   LIG    1       23.863 -12.972   2.605  0.00  0.00    -0.295 N 
ATOM     19  H   LIG    1       22.985 -12.525   2.405  0.00  0.00    +0.148 HD
ATOM     20  H   LIG    1       24.275 -13.641   1.980  0.00  0.00    +0.148 HD
ENDBRANCH  15  16
ENDBRANCH  14  15
ENDBRANCH  11  14
ENDBRANCH   1  11
TORSDOF 8
ENDMDL
MODEL 7
REMARK VINA RESULT:      -4.9      3.023      6.259
REMARK  Name = *****
REMARK                            x       y       z     vdW  Elec       q    Type
REMARK                         _______ _______ _______ _____ _____    ______ ____
ROOT
ATOM      1  C   LIG    1       25.385 -18.050   3.175  0.00  0.00    +0.264 C 
ENDROOT
BRANCH   1   2
ATOM      2  O   LIG    1       26.309 -16.961   3.260  0.00  0.00    -0.486 OA
BRANCH   2   4
ATOM      3  C   LIG    1       26.528 -14.536   3.800  0.00  0.00    +0.162 A 
ATOM      4  C   LIG    1       25.803 -15.725   3.579  0.00  0.00    +0.162 A 
ATOM      5  C   LIG    1       24.412 -15.727   3.778  0.00  0.00    +0.049 A 
ATOM      6  C   LIG    1       23.734 -14.560   4.130  0.00  0.00    +0.004 A 
ATOM      7  C   LIG    1       24.445 -13.384   4.322  0.00  0.00    +0.004 A 
ATOM      8  C   LIG    1       25.832 -13.380   4.185  0.00  0.00    +0.049 A 
BRANCH   3  10
ATOM      9  C   LIG    1       28.539 -13.256   3.768  0.00  0.00    +0.277 C 
ATOM     10  O   LIG    1       27.899 -14.537   3.714  0.00  0.00    -0.491 OA
ENDBRANCH   3  10
ENDBRANCH   2   4
ENDBRANCH   1   2
BRANCH   1  11
ATOM     11  C   LIG    1       25.642 -19.058   4.300  0.00  0.00    +0.189 C 
BRANCH  11  12
ATOM     12  O   LIG    1       27.047 -19.316   4.463  0.00  0.00    -0.385 OA
ATOM     13  H   LIG    1       27.285 -19.155   5.398  0.00  0.00    +0.210 HD
ENDBRANCH  11  12
BRANCH  11  14
ATOM     14  C   LIG    1       24.868 -20.364   4.098  0.00  0.00    +0.268 C 
BRANCH  14  15
ATOM     15  O   LIG    1       24.076 -20.578   5.277  0.00  0.00    -0.448 OA
BRANCH  15  16
ATOM     16  C   LIG    1       22.776 -20.217   5.156  0.00  0.00    +0.398 C 
ATOM     17  O   LIG    1       22.331 -19.098   5.162  0.00  0.00    -0.227 OA
ATOM     18  N   LIG    1       22.035 -21.339   4.991  0.00  0.00    -0.295 N 
ATOM     19  H   LIG    1       21.034 -21.253   5.016  0.00  0.00    +0.148 HD
ATOM     20  H   LIG    1       22.493 -22.232   5.013  0.00  0.00    +0.148 HD
ENDBRANCH  15  16
ENDBRANCH  14  15
ENDBRANCH  11  14
ENDBRANCH   1  11
TORSDOF 8
ENDMDL
MODEL 8
REMARK VINA RESULT:      -4.8      3.074      6.665
REMARK  Name = *****
REMARK                            x       y       z     vdW  Elec       q    Type
REMARK                         _______ _______ _______ _____ _____    ______ ____
ROOT
ATOM      1  C   LIG    1       26.112 -17.952   3.386  0.00  0.00    +0.264 C 
ENDROOT
BRANCH   1   2
ATOM      2  O   LIG    1       25.470 -16.744   2.971  0.00  0.00    -0.486 OA
BRANCH   2   4
ATOM      3  C   LIG    1       25.045 -14.515   4.006  0.00  0.00    +0.162 A 
ATOM      4  C   LIG    1       25.867 -15.576   3.574  0.00  0.00    +0.162 A 
ATOM      5  C   LIG    1       27.263 -15.443   3.666  0.00  0.00    +0.049 A 
ATOM      6  C   LIG    1       27.842 -14.307   4.231  0.00  0.00    +0.004 A 
ATOM      7  C   LIG    1       27.032 -13.274   4.680  0.00  0.00    +0.004 A 
ATOM      8  C   LIG    1       25.648 -13.367   4.542  0.00  0.00    +0.049 A 
BRANCH   3  10
ATOM      9  C   LIG    1       22.955 -15.353   4.788  0.00  0.00    +0.277 C 
ATOM     10  O   LIG    1       23.684 -14.578   3.829  0.00  0.00    -0.491 OA
ENDBRANCH   3  10
ENDBRANCH   2   4
ENDBRANCH   1   2
BRANCH   1  11
ATOM     11  C   LIG    1       25.090 -19.087   3.506  0.00  0.00    +0.189 C 
BRANCH  11  12
ATOM     12  O   LIG    1       23.761 -18.578   3.711  0.00  0.00    -0.385 OA
ATOM     13  H   LIG    1       23.208 -19.296   4.079  0.00  0.00    +0.210 HD
ENDBRANCH  11  12
BRANCH  11  14
ATOM     14  C   LIG    1       25.463 -20.092   4.600  0.00  0.00    +0.268 C 
BRANCH  14  15
ATOM     15  O   LIG    1       24.600 -21.230   4.447  0.00  0.00    -0.448 OA
BRANCH  15  16
ATOM     16  C   LIG    1       23.691 -21.385   5.441  0.00  0.00    +0.398 C 
ATOM     17  O   LIG    1       23.920 -21.572   6.608  0.00  0.00    -0.227 OA
ATOM     18  N   LIG    1       22.452 -21.265   4.908  0.00  0.00    -0.295 N 
ATOM     19  H   LIG    1       21.663 -21.483   5.492  0.00  0.00    +0.148 HD
ATOM     20  H   LIG    1       22.359 -21.123   3.919  0.00  0.00    +0.148 HD
ENDBRANCH  15  16
ENDBRANCH  14  15
ENDBRANCH  11  14
ENDBRANCH   1  11
TORSDOF 8
ENDMDL
MODEL 9
REMARK VINA RESULT:      -4.8      1.530      2.278
REMARK  Name = *****
REMARK                            x       y       z     vdW  Elec       q    Type
REMARK                         _______ _______ _______ _____ _____    ______ ____
ROOT
ATOM      1  C   LIG    1       26.687 -16.370   3.690  0.00  0.00    +0.264 C 
ENDROOT
BRANCH   1   2
ATOM      2  O   LIG    1       26.093 -17.463   2.984  0.00  0.00    -0.486 OA
BRANCH   2   4
ATOM      3  C   LIG    1       26.143 -19.388   4.569  0.00  0.00    +0.162 A 
ATOM      4  C   LIG    1       25.503 -18.453   3.730  0.00  0.00    +0.162 A 
ATOM      5  C   LIG    1       24.116 -18.550   3.528  0.00  0.00    +0.049 A 
ATOM      6  C   LIG    1       23.359 -19.517   4.190  0.00  0.00    +0.004 A 
ATOM      7  C   LIG    1       23.986 -20.421   5.035  0.00  0.00    +0.004 A 
ATOM      8  C   LIG    1       25.369 -20.373   5.200  0.00  0.00    +0.049 A 
BRANCH   3  10
ATOM      9  C   LIG    1       28.041 -19.983   5.882  0.00  0.00    +0.277 C 
ATOM     10  O   LIG    1       27.511 -19.378   4.698  0.00  0.00    -0.491 OA
ENDBRANCH   3  10
ENDBRANCH   2   4
ENDBRANCH   1   2
BRANCH   1  11
ATOM     11  C   LIG    1       26.053 -15.045   3.254  0.00  0.00    +0.189 C 
BRANCH  11  12
ATOM     12  O   LIG    1       26.608 -14.581   2.011  0.00  0.00    -0.385 OA
ATOM     13  H   LIG    1       27.152 -13.787   2.192  0.00  0.00    +0.210 HD
ENDBRANCH  11  12
BRANCH  11  14
ATOM     14  C   LIG    1       26.162 -13.965   4.335  0.00  0.00    +0.268 C 
BRANCH  14  15
ATOM     15  O   LIG    1       27.483 -14.052   4.894  0.00  0.00    -0.448 OA
BRANCH  15  16
ATOM     16  C   LIG    1       28.345 -13.105   4.450  0.00  0.00    +0.398 C 
ATOM     17  O   LIG    1       28.821 -13.019   3.347  0.00  0.00    -0.227 OA
ATOM     18  N   LIG    1       28.572 -12.229   5.458  0.00  0.00    -0.295 N 
ATOM     19  H   LIG    1       29.292 -11.539   5.331  0.00  0.00    +0.148 HD
ATOM     20  H   LIG    1       28.141 -12.390   6.350  0.00  0.00    +0.148 HD
ENDBRANCH  15  16
ENDBRANCH  14  15
ENDBRANCH  11  14
ENDBRANCH   1  11
TORSDOF 8
ENDMDL
