MODEL 1
REMARK VINA RESULT:      -5.0      0.000      0.000
REMARK  Name = *****
REMARK                            x       y       z     vdW  Elec       q    Type
REMARK                         _______ _______ _______ _____ _____    ______ ____
ROOT
ATOM      1  C   LIG    1       25.587 -19.288   4.155  0.00  0.00    +0.213 C 
ENDROOT
BRANCH   1   2
ATOM      2  C   LIG    1       24.562 -20.117   4.944  0.00  0.00    -0.001 A 
ATOM      3  C   LIG    1       24.826 -20.477   6.280  0.00  0.00    +0.007 A 
ATOM      4  C   LIG    1       23.891 -21.192   7.029  0.00  0.00    +0.000 A 
ATOM      5  C   LIG    1       22.682 -21.572   6.453  0.00  0.00    +0.000 A 
ATOM      6  C   LIG    1       22.401 -21.227   5.133  0.00  0.00    +0.000 A 
ATOM      7  C   LIG    1       23.330 -20.501   4.385  0.00  0.00    +0.007 A 
ENDBRANCH   1   2
BRANCH   1   8
ATOM      8  C   LIG    1       26.956 -19.239   4.860  0.00  0.00    -0.001 A 
ATOM      9  C   LIG    1       27.290 -20.199   5.839  0.00  0.00    +0.007 A 
ATOM     10  C   LIG    1       28.538 -20.190   6.469  0.00  0.00    +0.000 A 
ATOM     11  C   LIG    1       29.470 -19.207   6.155  0.00  0.00    +0.000 A 
ATOM     12  C   LIG    1       29.146 -18.222   5.226  0.00  0.00    +0.000 A 
ATOM     13  C   LIG    1       27.900 -18.233   4.591  0.00  0.00    +0.007 A 
ENDBRANCH   1   8
BRANCH   1  14
ATOM     14  C   LIG    1       24.997 -17.886   3.777  0.00  0.00    +0.349 C 
ATOM     15  O   LIG    1       23.829 -17.646   3.470  0.00  0.00    -0.247 OA
BRANCH  14  16
ATOM     16  O   LIG    1       25.927 -16.887   3.960  0.00  0.00    -0.453 OA
BRANCH  16  20
ATOM     17  C   LIG    1       28.477 -13.022   3.840  0.00  0.00    +0.192 C 
ATOM     18  N   LIG    1       27.112 -13.679   3.721  0.00  0.00    +0.244 N 
ATOM     19  C   LIG    1       27.255 -15.071   3.056  0.00  0.00    +0.178 C 
ATOM     20  C   LIG    1       25.884 -15.784   3.038  0.00  0.00    +0.225 C 
ATOM     21  C   LIG    1       24.796 -14.802   3.519  0.00  0.00    +0.045 C 
ATOM     22  C   LIG    1       24.855 -13.536   2.661  0.00  0.00    +0.058 C 
ATOM     23  C   LIG    1       25.081 -14.404   4.978  0.00  0.00    +0.058 C 
ATOM     24  C   LIG    1       26.183 -12.806   2.864  0.00  0.00    +0.133 C 
ATOM     25  C   LIG    1       26.501 -13.856   5.120  0.00  0.00    +0.133 C 
ENDBRANCH  16  20
ENDBRANCH  14  16
ENDBRANCH   1  14
BRANCH   1  26
ATOM     26  O   LIG    1       25.776 -19.891   2.845  0.00  0.00    -0.370 OA
ATOM     27  H   LIG    1       24.903 -20.224   2.564  0.00  0.00    +0.212 HD
ENDBRANCH   1  26
TORSDOF 6
ENDMDL
MODEL 2
REMARK VINA RESULT:      -4.5      1.185      1.950
REMARK  Name = *****
REMARK                            x       y       z     vdW  Elec       q    Type
REMARK                         _______ _______ _______ _____ _____    ______ ____
ROOT
ATOM      1  C   LIG    1       25.720 -18.901   3.901  0.00  0.00    +0.213 C 
ENDROOT
BRANCH   1   2
ATOM      2  C   LIG    1       24.193 -18.892   4.068  0.00  0.00    -0.001 A 
ATOM      3  C   LIG    1       23.483 -20.107   4.124  0.00  0.00    +0.007 A 
ATOM      4  C   LIG    1       22.102 -20.124   4.319  0.00  0.00    +0.000 A 
ATOM      5  C   LIG    1       21.403 -18.927   4.448  0.00  0.00    +0.000 A 
ATOM      6  C   LIG    1       22.084 -17.714   4.394  0.00  0.00    +0.000 A 
ATOM      7  C   LIG    1       23.469 -17.695   4.211  0.00  0.00    +0.007 A 
ENDBRANCH   1   2
BRANCH   1   8
ATOM      8  C   LIG    1       26.419 -19.697   5.018  0.00  0.00    -0.001 A 
ATOM      9  C   LIG    1       25.664 -20.490   5.910  0.00  0.00    +0.007 A 
ATOM     10  C   LIG    1       26.282 -21.244   6.911  0.00  0.00    +0.000 A 
ATOM     11  C   LIG    1       27.664 -21.204   7.062  0.00  0.00    +0.000 A 
ATOM     12  C   LIG    1       28.425 -20.396   6.223  0.00  0.00    +0.000 A 
ATOM     13  C   LIG    1       27.810 -19.644   5.217  0.00  0.00    +0.007 A 
ENDBRANCH   1   8
BRANCH   1  14
ATOM     14  C   LIG    1       26.267 -17.445   3.698  0.00  0.00    +0.349 C 
ATOM     15  O   LIG    1       27.437 -17.131   3.476  0.00  0.00    -0.247 OA
BRANCH  14  16
ATOM     16  O   LIG    1       25.242 -16.528   3.659  0.00  0.00    -0.453 OA
BRANCH  16  20
ATOM     17  C   LIG    1       28.386 -13.132   3.867  0.00  0.00    +0.192 C 
ATOM     18  N   LIG    1       26.941 -13.549   3.654  0.00  0.00    +0.244 N 
ATOM     19  C   LIG    1       26.889 -14.911   2.917  0.00  0.00    +0.178 C 
ATOM     20  C   LIG    1       25.424 -15.387   2.802  0.00  0.00    +0.225 C 
ATOM     21  C   LIG    1       24.486 -14.265   3.294  0.00  0.00    +0.045 C 
ATOM     22  C   LIG    1       24.792 -12.985   2.513  0.00  0.00    +0.058 C 
ATOM     23  C   LIG    1       24.759 -13.994   4.784  0.00  0.00    +0.058 C 
ATOM     24  C   LIG    1       26.208 -12.494   2.812  0.00  0.00    +0.133 C 
ATOM     25  C   LIG    1       26.240 -13.694   5.015  0.00  0.00    +0.133 C 
ENDBRANCH  16  20
ENDBRANCH  14  16
ENDBRANCH   1  14
BRANCH   1  26
ATOM     26  O   LIG    1       26.053 -19.520   2.628  0.00  0.00    -0.370 OA
ATOM     27  H   LIG    1       26.900 -19.986   2.759  0.00  0.00    +0.212 HD
ENDBRANCH   1  26
TORSDOF 6
ENDMDL
MODEL 3
REMARK VINA RESULT:      -4.4      0.763      1.698
REMARK  Name = *****
REMARK                            x       y       z     vdW  Elec       q    Type
REMARK                         _______ _______ _______ _____ _____    ______ ____
ROOT
ATOM      1  C   LIG    1       25.582 -19.152   4.006  0.00  0.00    +0.213 C 
ENDROOT
BRANCH   1   2
ATOM      2  C   LIG    1       24.585 -20.029   4.781  0.00  0.00    -0.001 A 
ATOM      3  C   LIG    1       24.855 -20.389   6.116  0.00  0.00    +0.007 A 
ATOM      4  C   LIG    1       23.945 -21.147   6.852  0.00  0.00    +0.000 A 
ATOM      5  C   LIG    1       22.756 -21.572   6.265  0.00  0.00    +0.000 A 
ATOM      6  C   LIG    1       22.470 -21.229   4.946  0.00  0.00    +0.000 A 
ATOM      7  C   LIG    1       23.375 -20.459   4.211  0.00  0.00    +0.007 A 
ENDBRANCH   1   2
BRANCH   1   8
ATOM      8  C   LIG    1       26.951 -19.077   4.706  0.00  0.00    -0.001 A 
ATOM      9  C   LIG    1       27.320 -20.049   5.660  0.00  0.00    +0.007 A 
ATOM     10  C   LIG    1       28.571 -20.016   6.284  0.00  0.00    +0.000 A 
ATOM     11  C   LIG    1       29.470 -18.997   5.990  0.00  0.00    +0.000 A 
ATOM     12  C   LIG    1       29.111 -18.002   5.086  0.00  0.00    +0.000 A 
ATOM     13  C   LIG    1       27.862 -18.036   4.456  0.00  0.00    +0.007 A 
ENDBRANCH   1   8
BRANCH   1  14
ATOM     14  C   LIG    1       24.948 -17.760   3.662  0.00  0.00    +0.349 C 
ATOM     15  O   LIG    1       23.754 -17.465   3.738  0.00  0.00    -0.247 OA
BRANCH  14  16
ATOM     16  O   LIG    1       25.918 -16.825   3.382  0.00  0.00    -0.453 OA
BRANCH  16  20
ATOM     17  C   LIG    1       23.883 -12.668   3.196  0.00  0.00    +0.192 C 
ATOM     18  N   LIG    1       25.137 -13.487   3.451  0.00  0.00    +0.244 N 
ATOM     19  C   LIG    1       24.760 -14.830   4.127  0.00  0.00    +0.178 C 
ATOM     20  C   LIG    1       26.021 -15.708   4.282  0.00  0.00    +0.225 C 
ATOM     21  C   LIG    1       27.264 -14.886   3.883  0.00  0.00    +0.045 C 
ATOM     22  C   LIG    1       27.293 -13.598   4.707  0.00  0.00    +0.058 C 
ATOM     23  C   LIG    1       27.160 -14.501   2.396  0.00  0.00    +0.058 C 
ATOM     24  C   LIG    1       26.092 -12.712   4.371  0.00  0.00    +0.133 C 
ATOM     25  C   LIG    1       25.840 -13.783   2.116  0.00  0.00    +0.133 C 
ENDBRANCH  16  20
ENDBRANCH  14  16
ENDBRANCH   1  14
BRANCH   1  26
ATOM     26  O   LIG    1       25.782 -19.720   2.682  0.00  0.00    -0.370 OA
ATOM     27  H   LIG    1       26.722 -19.974   2.628  0.00  0.00    +0.212 HD
ENDBRANCH   1  26
TORSDOF 6
ENDMDL
