MODEL 1
REMARK VINA RESULT:       1.1      0.000      0.000
REMARK  Name = *****
REMARK                            x       y       z     vdW  Elec       q    Type
REMARK                         _______ _______ _______ _____ _____    ______ ____
ROOT
ATOM      1  C   LIG    1       22.573 -15.104   5.673  0.00  0.00    +0.008 C 
ATOM      2  C   LIG    1       23.047 -15.267   4.224  0.00  0.00    -0.008 C 
ATOM      3  C   LIG    1       24.556 -14.970   3.980  0.00  0.00    +0.032 C 
ATOM      4  C   LIG    1       25.623 -16.137   3.680  0.00  0.00    +0.161 C 
ATOM      5  C   LIG    1       27.038 -16.251   4.397  0.00  0.00    +0.292 C 
ATOM      6  O   LIG    1       27.957 -15.185   4.124  0.00  0.00    -0.314 OA
ATOM      7  C   LIG    1       27.299 -14.033   3.653  0.00  0.00    +0.203 C 
ATOM      8  O   LIG    1       26.530 -14.282   2.456  0.00  0.00    -0.199 OA
ATOM      9  C   LIG    1       26.506 -13.519   4.863  0.00  0.00    +0.068 C 
ATOM     10  C   LIG    1       28.324 -12.952   3.306  0.00  0.00    +0.077 C 
ATOM     11  O   LIG    1       27.818 -17.370   3.959  0.00  0.00    -0.320 OA
ATOM     12  C   LIG    1       27.233 -18.639   3.991  0.00  0.00    +0.253 C 
ATOM     13  C   LIG    1       25.784 -18.636   4.437  0.00  0.00    +0.048 C 
ATOM     14  C   LIG    1       25.237 -20.075   4.396  0.00  0.00    +0.013 C 
ATOM     15  C   LIG    1       24.970 -17.586   3.613  0.00  0.00    +0.037 C 
ATOM     16  C   LIG    1       23.524 -17.686   4.132  0.00  0.00    +0.007 C 
ATOM     17  O   LIG    1       26.132 -15.742   2.356  0.00  0.00    -0.220 OA
ATOM     18  C   LIG    1       25.030 -13.802   4.850  0.00  0.00    +0.012 C 
ATOM     19  C   LIG    1       22.623 -16.593   3.632  0.00  0.00    +0.004 C 
ENDROOT
BRANCH  12  20
ATOM     20  O   LIG    1       28.009 -19.431   4.883  0.00  0.00    -0.367 OA
ATOM     21  H   LIG    1       28.728 -18.865   5.149  0.00  0.00    +0.212 HD
ENDBRANCH  12  20
TORSDOF 1
ENDMDL
MODEL 2
REMARK VINA RESULT:       1.9      1.272      2.088
REMARK  Name = *****
REMARK                            x       y       z     vdW  Elec       q    Type
REMARK                         _______ _______ _______ _____ _____    ______ ____
ROOT
ATOM      1  C   LIG    1       22.590 -18.137   4.942  0.00  0.00    +0.008 C 
ATOM      2  C   LIG    1       23.456 -18.180   3.677  0.00  0.00    -0.008 C 
ATOM      3  C   LIG    1       24.518 -17.047   3.558  0.00  0.00    +0.032 C 
ATOM      4  C   LIG    1       26.091 -17.320   3.753  0.00  0.00    +0.161 C 
ATOM      5  C   LIG    1       27.044 -16.417   4.651  0.00  0.00    +0.292 C 
ATOM      6  O   LIG    1       27.218 -15.067   4.204  0.00  0.00    -0.314 OA
ATOM      7  C   LIG    1       26.185 -14.664   3.336  0.00  0.00    +0.203 C 
ATOM      8  O   LIG    1       26.073 -15.513   2.173  0.00  0.00    -0.199 OA
ATOM      9  C   LIG    1       24.939 -14.585   4.230  0.00  0.00    +0.068 C 
ATOM     10  C   LIG    1       26.453 -13.246   2.828  0.00  0.00    +0.077 C 
ATOM     11  O   LIG    1       28.409 -16.854   4.663  0.00  0.00    -0.320 OA
ATOM     12  C   LIG    1       28.676 -18.188   4.985  0.00  0.00    +0.253 C 
ATOM     13  C   LIG    1       27.432 -19.023   5.216  0.00  0.00    +0.048 C 
ATOM     14  C   LIG    1       27.847 -20.475   5.523  0.00  0.00    +0.013 C 
ATOM     15  C   LIG    1       26.437 -18.849   4.023  0.00  0.00    +0.037 C 
ATOM     16  C   LIG    1       25.234 -19.751   4.355  0.00  0.00    +0.007 C 
ATOM     17  O   LIG    1       26.631 -16.895   2.449  0.00  0.00    -0.220 OA
ATOM     18  C   LIG    1       23.968 -15.726   4.106  0.00  0.00    +0.012 C 
ATOM     19  C   LIG    1       24.056 -19.550   3.445  0.00  0.00    +0.004 C 
ENDROOT
BRANCH  12  20
ATOM     20  O   LIG    1       29.475 -18.178   6.162  0.00  0.00    -0.367 OA
ATOM     21  H   LIG    1       28.850 -18.164   6.881  0.00  0.00    +0.212 HD
ENDBRANCH  12  20
TORSDOF 1
ENDMDL
MODEL 3
REMARK VINA RESULT:       2.8      2.990      6.119
REMARK  Name = *****
REMARK                            x       y       z     vdW  Elec       q    Type
REMARK                         _______ _______ _______ _____ _____    ______ ____
ROOT
ATOM      1  C   LIG    1       27.584 -19.514   5.454  0.00  0.00    +0.008 C 
ATOM      2  C   LIG    1       26.750 -19.595   4.170  0.00  0.00    -0.008 C 
ATOM      3  C   LIG    1       25.221 -19.800   4.381  0.00  0.00    +0.032 C 
ATOM      4  C   LIG    1       24.154 -18.624   4.120  0.00  0.00    +0.161 C 
ATOM      5  C   LIG    1       22.982 -18.249   5.129  0.00  0.00    +0.292 C 
ATOM      6  O   LIG    1       21.988 -19.263   5.326  0.00  0.00    -0.314 OA
ATOM      7  C   LIG    1       22.459 -20.538   4.958  0.00  0.00    +0.203 C 
ATOM      8  O   LIG    1       22.892 -20.595   3.581  0.00  0.00    -0.199 OA
ATOM      9  C   LIG    1       23.525 -20.875   6.010  0.00  0.00    +0.068 C 
ATOM     10  C   LIG    1       21.342 -21.572   5.115  0.00  0.00    +0.077 C 
ATOM     11  O   LIG    1       22.153 -17.172   4.675  0.00  0.00    -0.320 OA
ATOM     12  C   LIG    1       22.769 -15.978   4.291  0.00  0.00    +0.253 C 
ATOM     13  C   LIG    1       24.283 -16.022   4.349  0.00  0.00    +0.048 C 
ATOM     14  C   LIG    1       24.849 -14.672   3.870  0.00  0.00    +0.013 C 
ATOM     15  C   LIG    1       24.815 -17.279   3.587  0.00  0.00    +0.037 C 
ATOM     16  C   LIG    1       26.349 -17.208   3.694  0.00  0.00    +0.007 C 
ATOM     17  O   LIG    1       23.300 -19.223   3.080  0.00  0.00    -0.220 OA
ATOM     18  C   LIG    1       24.954 -20.731   5.567  0.00  0.00    +0.012 C 
ATOM     19  C   LIG    1       27.048 -18.452   3.225  0.00  0.00    +0.004 C 
ENDROOT
BRANCH  12  20
ATOM     20  O   LIG    1       22.284 -14.963   5.162  0.00  0.00    -0.367 OA
ATOM     21  H   LIG    1       21.979 -15.429   5.935  0.00  0.00    +0.212 HD
ENDBRANCH  12  20
TORSDOF 1
ENDMDL
MODEL 4
REMARK VINA RESULT:       3.7      2.731      6.097
REMARK  Name = *****
REMARK                            x       y       z     vdW  Elec       q    Type
REMARK                         _______ _______ _______ _____ _____    ______ ____
ROOT
ATOM      1  C   LIG    1       27.599 -20.071   7.062  0.00  0.00    +0.008 C 
ATOM      2  C   LIG    1       27.260 -20.441   5.613  0.00  0.00    -0.008 C 
ATOM      3  C   LIG    1       25.743 -20.425   5.259  0.00  0.00    +0.032 C 
ATOM      4  C   LIG    1       25.088 -19.278   4.340  0.00  0.00    +0.161 C 
ATOM      5  C   LIG    1       23.740 -18.514   4.702  0.00  0.00    +0.292 C 
ATOM      6  O   LIG    1       22.559 -19.326   4.731  0.00  0.00    -0.314 OA
ATOM      7  C   LIG    1       22.864 -20.692   4.881  0.00  0.00    +0.203 C 
ATOM      8  O   LIG    1       23.724 -21.187   3.832  0.00  0.00    -0.199 OA
ATOM      9  C   LIG    1       23.412 -20.811   6.310  0.00  0.00    +0.068 C 
ATOM     10  C   LIG    1       21.579 -21.521   4.832  0.00  0.00    +0.077 C 
ATOM     11  O   LIG    1       23.350 -17.540   3.727  0.00  0.00    -0.320 OA
ATOM     12  C   LIG    1       24.285 -16.575   3.343  0.00  0.00    +0.253 C 
ATOM     13  C   LIG    1       25.645 -16.747   3.989  0.00  0.00    +0.048 C 
ATOM     14  C   LIG    1       26.598 -15.656   3.465  0.00  0.00    +0.013 C 
ATOM     15  C   LIG    1       26.146 -18.217   3.806  0.00  0.00    +0.037 C 
ATOM     16  C   LIG    1       27.530 -18.267   4.477  0.00  0.00    +0.007 C 
ATOM     17  O   LIG    1       24.544 -20.067   3.222  0.00  0.00    -0.220 OA
ATOM     18  C   LIG    1       24.905 -20.941   6.432  0.00  0.00    +0.012 C 
ATOM     19  C   LIG    1       28.086 -19.655   4.617  0.00  0.00    +0.004 C 
ENDROOT
BRANCH  12  20
ATOM     20  O   LIG    1       23.741 -15.308   3.697  0.00  0.00    -0.367 OA
ATOM     21  H   LIG    1       23.617 -14.855   2.868  0.00  0.00    +0.212 HD
ENDBRANCH  12  20
TORSDOF 1
ENDMDL
