MODEL 1
REMARK VINA RESULT:      -5.2      0.000      0.000
REMARK  Name = *****
REMARK                            x       y       z     vdW  Elec       q    Type
REMARK                         _______ _______ _______ _____ _____    ______ ____
ROOT
ATOM      1  C   LIG    1       24.055 -14.817   3.977  0.00  0.00    +0.032 A 
ATOM      2  C   LIG    1       25.439 -14.878   4.173  0.00  0.00    +0.100 A 
ATOM      3  C   LIG    1       26.253 -13.898   3.584  0.00  0.00    +0.318 A 
ATOM      4  C   LIG    1       25.719 -12.883   2.799  0.00  0.00    +0.237 A 
ATOM      5  C   LIG    1       24.341 -12.843   2.601  0.00  0.00    +0.166 A 
ATOM      6  C   LIG    1       23.507 -13.799   3.175  0.00  0.00    +0.061 A 
ENDROOT
BRANCH   3   7
ATOM      7  N   LIG    1       27.682 -13.981   3.792  0.00  0.00    +0.084 N 
ATOM      8  O   LIG    1       28.138 -15.099   4.070  0.00  0.00    -0.576 OA
ATOM      9  O   LIG    1       28.324 -12.923   3.771  0.00  0.00    +0.042 OA
ENDBRANCH   3   7
BRANCH   1  10
ATOM     10  C   LIG    1       23.128 -15.847   4.518  0.00  0.00    +0.194 C 
ATOM     11  O   LIG    1       22.145 -15.465   5.153  0.00  0.00    -0.287 OA
BRANCH  10  16
ATOM     12  C   LIG    1       23.827 -21.572   3.922  0.00  0.00    +0.044 C 
ATOM     13  C   LIG    1       23.648 -20.085   4.038  0.00  0.00    -0.050 A 
ATOM     14  C   LIG    1       22.519 -19.562   4.680  0.00  0.00    +0.004 A 
ATOM     15  C   LIG    1       22.362 -18.181   4.820  0.00  0.00    +0.012 A 
ATOM     16  C   LIG    1       23.331 -17.305   4.318  0.00  0.00    +0.022 A 
ATOM     17  C   LIG    1       24.479 -17.823   3.709  0.00  0.00    +0.012 A 
ATOM     18  C   LIG    1       24.631 -19.207   3.566  0.00  0.00    +0.004 A 
ENDBRANCH  10  16
ENDBRANCH   1  10
BRANCH   4  19
ATOM     19  O   LIG    1       26.499 -11.947   2.185  0.00  0.00    -0.499 OA
ATOM     20  H   LIG    1       26.616 -11.227   2.839  0.00  0.00    +0.292 HD
ENDBRANCH   4  19
BRANCH   5  21
ATOM     21  O   LIG    1       23.847 -11.839   1.812  0.00  0.00    -0.503 OA
ATOM     22  H   LIG    1       24.508 -11.124   1.763  0.00  0.00    +0.292 HD
ENDBRANCH   5  21
TORSDOF 5
ENDMDL
MODEL 2
REMARK VINA RESULT:      -5.0      3.228      7.094
REMARK  Name = *****
REMARK                            x       y       z     vdW  Elec       q    Type
REMARK                         _______ _______ _______ _____ _____    ______ ____
ROOT
ATOM      1  C   LIG    1       25.216 -18.097   3.940  0.00  0.00    +0.032 A 
ATOM      2  C   LIG    1       23.820 -18.117   3.842  0.00  0.00    +0.100 A 
ATOM      3  C   LIG    1       23.130 -19.282   4.211  0.00  0.00    +0.318 A 
ATOM      4  C   LIG    1       23.800 -20.417   4.652  0.00  0.00    +0.237 A 
ATOM      5  C   LIG    1       25.190 -20.388   4.731  0.00  0.00    +0.166 A 
ATOM      6  C   LIG    1       25.903 -19.245   4.376  0.00  0.00    +0.061 A 
ENDROOT
BRANCH   3   7
ATOM      7  N   LIG    1       21.688 -19.287   4.097  0.00  0.00    +0.084 N 
ATOM      8  O   LIG    1       21.156 -18.224   3.748  0.00  0.00    -0.576 OA
ATOM      9  O   LIG    1       21.092 -20.314   4.446  0.00  0.00    +0.042 OA
ENDBRANCH   3   7
BRANCH   1  10
ATOM     10  C   LIG    1       26.027 -16.924   3.517  0.00  0.00    +0.194 C 
ATOM     11  O   LIG    1       27.221 -17.101   3.278  0.00  0.00    -0.287 OA
BRANCH  10  16
ATOM     12  C   LIG    1       24.006 -11.525   2.896  0.00  0.00    +0.044 C 
ATOM     13  C   LIG    1       24.496 -12.937   3.043  0.00  0.00    -0.050 A 
ATOM     14  C   LIG    1       25.670 -13.343   2.398  0.00  0.00    +0.004 A 
ATOM     15  C   LIG    1       26.149 -14.646   2.556  0.00  0.00    +0.012 A 
ATOM     16  C   LIG    1       25.458 -15.560   3.361  0.00  0.00    +0.022 A 
ATOM     17  C   LIG    1       24.306 -15.149   4.038  0.00  0.00    +0.012 A 
ATOM     18  C   LIG    1       23.826 -13.844   3.873  0.00  0.00    +0.004 A 
ENDBRANCH  10  16
ENDBRANCH   1  10
BRANCH   4  19
ATOM     19  O   LIG    1       23.148 -21.571   4.975  0.00  0.00    -0.499 OA
ATOM     20  H   LIG    1       22.403 -21.643   4.343  0.00  0.00    +0.292 HD
ENDBRANCH   4  19
BRANCH   5  21
ATOM     21  O   LIG    1       25.821 -21.525   5.156  0.00  0.00    -0.503 OA
ATOM     22  H   LIG    1       26.784 -21.395   5.087  0.00  0.00    +0.292 HD
ENDBRANCH   5  21
TORSDOF 5
ENDMDL
MODEL 3
REMARK VINA RESULT:      -4.8      2.135      3.536
REMARK  Name = *****
REMARK                            x       y       z     vdW  Elec       q    Type
REMARK                         _______ _______ _______ _____ _____    ______ ____
ROOT
ATOM      1  C   LIG    1       25.844 -16.656   3.418  0.00  0.00    +0.032 A 
ATOM      2  C   LIG    1       24.812 -15.711   3.454  0.00  0.00    +0.100 A 
ATOM      3  C   LIG    1       25.129 -14.368   3.709  0.00  0.00    +0.318 A 
ATOM      4  C   LIG    1       26.436 -13.959   3.944  0.00  0.00    +0.237 A 
ATOM      5  C   LIG    1       27.452 -14.912   3.919  0.00  0.00    +0.166 A 
ATOM      6  C   LIG    1       27.169 -16.253   3.665  0.00  0.00    +0.061 A 
ENDROOT
BRANCH   3   7
ATOM      7  N   LIG    1       24.048 -13.407   3.748  0.00  0.00    +0.084 N 
ATOM      8  O   LIG    1       23.481 -13.166   2.674  0.00  0.00    -0.576 OA
ATOM      9  O   LIG    1       23.837 -12.830   4.823  0.00  0.00    +0.042 OA
ENDBRANCH   3   7
BRANCH   1  10
ATOM     10  C   LIG    1       25.589 -18.106   3.210  0.00  0.00    +0.194 C 
ATOM     11  O   LIG    1       25.990 -18.621   2.168  0.00  0.00    -0.287 OA
BRANCH  10  16
ATOM     12  C   LIG    1       22.985 -21.572   7.061  0.00  0.00    +0.044 C 
ATOM     13  C   LIG    1       23.645 -20.644   6.082  0.00  0.00    -0.050 A 
ATOM     14  C   LIG    1       25.033 -20.678   5.908  0.00  0.00    +0.004 A 
ATOM     15  C   LIG    1       25.650 -19.840   4.977  0.00  0.00    +0.012 A 
ATOM     16  C   LIG    1       24.885 -18.955   4.206  0.00  0.00    +0.022 A 
ATOM     17  C   LIG    1       23.494 -18.943   4.349  0.00  0.00    +0.012 A 
ATOM     18  C   LIG    1       22.880 -19.781   5.287  0.00  0.00    +0.004 A 
ENDBRANCH  10  16
ENDBRANCH   1  10
BRANCH   4  19
ATOM     19  O   LIG    1       26.757 -12.665   4.234  0.00  0.00    -0.499 OA
ATOM     20  H   LIG    1       26.909 -12.639   5.202  0.00  0.00    +0.292 HD
ENDBRANCH   4  19
BRANCH   5  21
ATOM     21  O   LIG    1       28.726 -14.481   4.167  0.00  0.00    -0.503 OA
ATOM     22  H   LIG    1       28.969 -14.726   5.079  0.00  0.00    +0.292 HD
ENDBRANCH   5  21
TORSDOF 5
ENDMDL
MODEL 4
REMARK VINA RESULT:      -4.3      3.352      6.635
REMARK  Name = *****
REMARK                            x       y       z     vdW  Elec       q    Type
REMARK                         _______ _______ _______ _____ _____    ______ ____
ROOT
ATOM      1  C   LIG    1       24.872 -18.102   3.874  0.00  0.00    +0.032 A 
ATOM      2  C   LIG    1       25.346 -19.156   4.663  0.00  0.00    +0.100 A 
ATOM      3  C   LIG    1       24.434 -20.105   5.148  0.00  0.00    +0.318 A 
ATOM      4  C   LIG    1       23.073 -20.012   4.880  0.00  0.00    +0.237 A 
ATOM      5  C   LIG    1       22.613 -18.950   4.105  0.00  0.00    +0.166 A 
ATOM      6  C   LIG    1       23.495 -17.994   3.605  0.00  0.00    +0.061 A 
ENDROOT
BRANCH   3   7
ATOM      7  N   LIG    1       24.941 -21.184   5.967  0.00  0.00    +0.084 N 
ATOM      8  O   LIG    1       24.209 -21.572   6.889  0.00  0.00    -0.576 OA
ATOM      9  O   LIG    1       26.096 -21.572   5.749  0.00  0.00    +0.042 OA
ENDBRANCH   3   7
BRANCH   1  10
ATOM     10  C   LIG    1       25.763 -17.023   3.367  0.00  0.00    +0.194 C 
ATOM     11  O   LIG    1       26.874 -17.341   2.945  0.00  0.00    -0.287 OA
BRANCH  10  16
ATOM     12  C   LIG    1       24.011 -11.497   3.275  0.00  0.00    +0.044 C 
ATOM     13  C   LIG    1       24.499 -12.917   3.313  0.00  0.00    -0.050 A 
ATOM     14  C   LIG    1       23.800 -13.879   4.050  0.00  0.00    +0.004 A 
ATOM     15  C   LIG    1       24.231 -15.208   4.064  0.00  0.00    +0.012 A 
ATOM     16  C   LIG    1       25.366 -15.592   3.341  0.00  0.00    +0.022 A 
ATOM     17  C   LIG    1       26.046 -14.642   2.572  0.00  0.00    +0.012 A 
ATOM     18  C   LIG    1       25.615 -13.310   2.564  0.00  0.00    +0.004 A 
ENDBRANCH  10  16
ENDBRANCH   1  10
BRANCH   4  19
ATOM     19  O   LIG    1       22.167 -20.902   5.378  0.00  0.00    -0.499 OA
ATOM     20  H   LIG    1       22.686 -21.685   5.654  0.00  0.00    +0.292 HD
ENDBRANCH   4  19
BRANCH   5  21
ATOM     21  O   LIG    1       21.268 -18.878   3.869  0.00  0.00    -0.503 OA
ATOM     22  H   LIG    1       21.014 -19.606   3.272  0.00  0.00    +0.292 HD
ENDBRANCH   5  21
TORSDOF 5
ENDMDL
MODEL 5
REMARK VINA RESULT:      -4.3      3.427      6.602
REMARK  Name = *****
REMARK                            x       y       z     vdW  Elec       q    Type
REMARK                         _______ _______ _______ _____ _____    ______ ____
ROOT
ATOM      1  C   LIG    1       26.706 -17.501   4.051  0.00  0.00    +0.032 A 
ATOM      2  C   LIG    1       27.346 -18.411   4.900  0.00  0.00    +0.100 A 
ATOM      3  C   LIG    1       26.804 -19.697   5.050  0.00  0.00    +0.318 A 
ATOM      4  C   LIG    1       25.642 -20.079   4.392  0.00  0.00    +0.237 A 
ATOM      5  C   LIG    1       25.008 -19.159   3.561  0.00  0.00    +0.166 A 
ATOM      6  C   LIG    1       25.523 -17.876   3.388  0.00  0.00    +0.061 A 
ENDROOT
BRANCH   3   7
ATOM      7  N   LIG    1       27.476 -20.622   5.937  0.00  0.00    +0.084 N 
ATOM      8  O   LIG    1       26.754 -21.305   6.675  0.00  0.00    -0.576 OA
ATOM      9  O   LIG    1       28.713 -20.594   5.960  0.00  0.00    +0.042 OA
ENDBRANCH   3   7
BRANCH   1  10
ATOM     10  C   LIG    1       27.182 -16.102   3.879  0.00  0.00    +0.194 C 
ATOM     11  O   LIG    1       28.376 -15.870   4.062  0.00  0.00    -0.287 OA
BRANCH  10  16
ATOM     12  C   LIG    1       23.850 -11.613   2.341  0.00  0.00    +0.044 C 
ATOM     13  C   LIG    1       24.685 -12.799   2.727  0.00  0.00    -0.050 A 
ATOM     14  C   LIG    1       25.966 -12.962   2.187  0.00  0.00    +0.004 A 
ATOM     15  C   LIG    1       26.761 -14.046   2.566  0.00  0.00    +0.012 A 
ATOM     16  C   LIG    1       26.284 -14.984   3.490  0.00  0.00    +0.022 A 
ATOM     17  C   LIG    1       25.021 -14.806   4.062  0.00  0.00    +0.012 A 
ATOM     18  C   LIG    1       24.224 -13.721   3.676  0.00  0.00    +0.004 A 
ENDBRANCH  10  16
ENDBRANCH   1  10
BRANCH   4  19
ATOM     19  O   LIG    1       25.078 -21.311   4.558  0.00  0.00    -0.499 OA
ATOM     20  H   LIG    1       24.672 -21.300   5.450  0.00  0.00    +0.292 HD
ENDBRANCH   4  19
BRANCH   5  21
ATOM     21  O   LIG    1       23.858 -19.561   2.937  0.00  0.00    -0.503 OA
ATOM     22  H   LIG    1       23.875 -19.248   2.014  0.00  0.00    +0.292 HD
ENDBRANCH   5  21
TORSDOF 5
ENDMDL
MODEL 6
REMARK VINA RESULT:      -4.3      1.570      2.475
REMARK  Name = *****
REMARK                            x       y       z     vdW  Elec       q    Type
REMARK                         _______ _______ _______ _____ _____    ______ ____
ROOT
ATOM      1  C   LIG    1       25.695 -16.198   3.689  0.00  0.00    +0.032 A 
ATOM      2  C   LIG    1       26.899 -15.491   3.791  0.00  0.00    +0.100 A 
ATOM      3  C   LIG    1       26.861 -14.130   4.128  0.00  0.00    +0.318 A 
ATOM      4  C   LIG    1       25.660 -13.465   4.344  0.00  0.00    +0.237 A 
ATOM      5  C   LIG    1       24.468 -14.177   4.225  0.00  0.00    +0.166 A 
ATOM      6  C   LIG    1       24.473 -15.531   3.895  0.00  0.00    +0.061 A 
ENDROOT
BRANCH   3   7
ATOM      7  N   LIG    1       28.115 -13.414   4.223  0.00  0.00    +0.084 N 
ATOM      8  O   LIG    1       28.241 -12.641   5.183  0.00  0.00    -0.576 OA
ATOM      9  O   LIG    1       28.923 -13.554   3.296  0.00  0.00    +0.042 OA
ENDBRANCH   3   7
BRANCH   1  10
ATOM     10  C   LIG    1       25.643 -17.628   3.282  0.00  0.00    +0.194 C 
ATOM     11  O   LIG    1       26.460 -18.023   2.452  0.00  0.00    -0.287 OA
BRANCH  10  16
ATOM     12  C   LIG    1       21.906 -21.550   5.348  0.00  0.00    +0.044 C 
ATOM     13  C   LIG    1       22.866 -20.512   4.843  0.00  0.00    -0.050 A 
ATOM     14  C   LIG    1       24.203 -20.850   4.603  0.00  0.00    +0.004 A 
ATOM     15  C   LIG    1       25.095 -19.897   4.104  0.00  0.00    +0.012 A 
ATOM     16  C   LIG    1       24.660 -18.593   3.839  0.00  0.00    +0.022 A 
ATOM     17  C   LIG    1       23.317 -18.260   4.040  0.00  0.00    +0.012 A 
ATOM     18  C   LIG    1       22.428 -19.216   4.546  0.00  0.00    +0.004 A 
ENDBRANCH  10  16
ENDBRANCH   1  10
BRANCH   4  19
ATOM     19  O   LIG    1       25.602 -12.133   4.631  0.00  0.00    -0.499 OA
ATOM     20  H   LIG    1       25.203 -11.707   3.844  0.00  0.00    +0.292 HD
ENDBRANCH   4  19
BRANCH   5  21
ATOM     21  O   LIG    1       23.302 -13.492   4.430  0.00  0.00    -0.503 OA
ATOM     22  H   LIG    1       22.995 -13.132   3.578  0.00  0.00    +0.292 HD
ENDBRANCH   5  21
TORSDOF 5
ENDMDL
MODEL 7
REMARK VINA RESULT:      -4.1      3.243      6.741
REMARK  Name = *****
REMARK                            x       y       z     vdW  Elec       q    Type
REMARK                         _______ _______ _______ _____ _____    ______ ____
ROOT
ATOM      1  C   LIG    1       24.009 -16.990   3.991  0.00  0.00    +0.032 A 
ATOM      2  C   LIG    1       22.788 -17.649   4.175  0.00  0.00    +0.100 A 
ATOM      3  C   LIG    1       22.754 -19.050   4.095  0.00  0.00    +0.318 A 
ATOM      4  C   LIG    1       23.896 -19.793   3.821  0.00  0.00    +0.237 A 
ATOM      5  C   LIG    1       25.102 -19.122   3.626  0.00  0.00    +0.166 A 
ATOM      6  C   LIG    1       25.169 -17.733   3.703  0.00  0.00    +0.061 A 
ENDROOT
BRANCH   3   7
ATOM      7  N   LIG    1       21.483 -19.714   4.282  0.00  0.00    +0.084 N 
ATOM      8  O   LIG    1       21.507 -20.803   4.872  0.00  0.00    -0.576 OA
ATOM      9  O   LIG    1       20.487 -19.197   3.759  0.00  0.00    +0.042 OA
ENDBRANCH   3   7
BRANCH   1  10
ATOM     10  C   LIG    1       24.122 -15.507   4.003  0.00  0.00    +0.194 C 
ATOM     11  O   LIG    1       23.087 -14.848   4.090  0.00  0.00    -0.287 OA
BRANCH  10  16
ATOM     12  C   LIG    1       29.120 -12.571   3.824  0.00  0.00    +0.044 C 
ATOM     13  C   LIG    1       27.845 -13.364   3.863  0.00  0.00    -0.050 A 
ATOM     14  C   LIG    1       27.046 -13.353   5.012  0.00  0.00    +0.004 A 
ATOM     15  C   LIG    1       25.843 -14.062   5.043  0.00  0.00    +0.012 A 
ATOM     16  C   LIG    1       25.424 -14.794   3.925  0.00  0.00    +0.022 A 
ATOM     17  C   LIG    1       26.199 -14.777   2.762  0.00  0.00    +0.012 A 
ATOM     18  C   LIG    1       27.407 -14.070   2.735  0.00  0.00    +0.004 A 
ENDBRANCH  10  16
ENDBRANCH   1  10
BRANCH   4  19
ATOM     19  O   LIG    1       23.874 -21.152   3.699  0.00  0.00    -0.499 OA
ATOM     20  H   LIG    1       24.655 -21.383   3.155  0.00  0.00    +0.292 HD
ENDBRANCH   4  19
BRANCH   5  21
ATOM     21  O   LIG    1       26.206 -19.880   3.345  0.00  0.00    -0.503 OA
ATOM     22  H   LIG    1       26.384 -20.469   4.101  0.00  0.00    +0.292 HD
ENDBRANCH   5  21
TORSDOF 5
ENDMDL
MODEL 8
REMARK VINA RESULT:      -4.1      3.248      6.908
REMARK  Name = *****
REMARK                            x       y       z     vdW  Elec       q    Type
REMARK                         _______ _______ _______ _____ _____    ______ ____
ROOT
ATOM      1  C   LIG    1       26.649 -17.337   4.056  0.00  0.00    +0.032 A 
ATOM      2  C   LIG    1       25.390 -17.777   3.631  0.00  0.00    +0.100 A 
ATOM      3  C   LIG    1       25.032 -19.117   3.840  0.00  0.00    +0.318 A 
ATOM      4  C   LIG    1       25.903 -20.019   4.439  0.00  0.00    +0.237 A 
ATOM      5  C   LIG    1       27.158 -19.572   4.844  0.00  0.00    +0.166 A 
ATOM      6  C   LIG    1       27.541 -18.246   4.654  0.00  0.00    +0.061 A 
ENDROOT
BRANCH   3   7
ATOM      7  N   LIG    1       23.729 -19.555   3.389  0.00  0.00    +0.084 N 
ATOM      8  O   LIG    1       22.762 -18.863   3.733  0.00  0.00    -0.576 OA
ATOM      9  O   LIG    1       23.669 -20.631   2.779  0.00  0.00    +0.042 OA
ENDBRANCH   3   7
BRANCH   1  10
ATOM     10  C   LIG    1       27.128 -15.948   3.822  0.00  0.00    +0.194 C 
ATOM     11  O   LIG    1       28.335 -15.729   3.917  0.00  0.00    -0.287 OA
BRANCH  10  16
ATOM     12  C   LIG    1       23.750 -11.453   2.408  0.00  0.00    +0.044 C 
ATOM     13  C   LIG    1       24.595 -12.641   2.768  0.00  0.00    -0.050 A 
ATOM     14  C   LIG    1       25.788 -12.888   2.079  0.00  0.00    +0.004 A 
ATOM     15  C   LIG    1       26.595 -13.973   2.429  0.00  0.00    +0.012 A 
ATOM     16  C   LIG    1       26.219 -14.827   3.473  0.00  0.00    +0.022 A 
ATOM     17  C   LIG    1       25.048 -14.562   4.190  0.00  0.00    +0.012 A 
ATOM     18  C   LIG    1       24.238 -13.477   3.833  0.00  0.00    +0.004 A 
ENDBRANCH  10  16
ENDBRANCH   1  10
BRANCH   4  19
ATOM     19  O   LIG    1       25.588 -21.336   4.612  0.00  0.00    -0.499 OA
ATOM     20  H   LIG    1       24.645 -21.419   4.360  0.00  0.00    +0.292 HD
ENDBRANCH   4  19
BRANCH   5  21
ATOM     21  O   LIG    1       27.998 -20.487   5.418  0.00  0.00    -0.503 OA
ATOM     22  H   LIG    1       28.095 -21.247   4.816  0.00  0.00    +0.292 HD
ENDBRANCH   5  21
TORSDOF 5
ENDMDL
MODEL 9
REMARK VINA RESULT:      -3.6      2.876      3.484
REMARK  Name = *****
REMARK                            x       y       z     vdW  Elec       q    Type
REMARK                         _______ _______ _______ _____ _____    ______ ____
ROOT
ATOM      1  C   LIG    1       26.204 -16.106   3.619  0.00  0.00    +0.032 A 
ATOM      2  C   LIG    1       27.345 -15.322   3.822  0.00  0.00    +0.100 A 
ATOM      3  C   LIG    1       27.204 -13.930   3.928  0.00  0.00    +0.318 A 
ATOM      4  C   LIG    1       25.963 -13.313   3.816  0.00  0.00    +0.237 A 
ATOM      5  C   LIG    1       24.838 -14.104   3.599  0.00  0.00    +0.166 A 
ATOM      6  C   LIG    1       24.945 -15.489   3.494  0.00  0.00    +0.061 A 
ENDROOT
BRANCH   3   7
ATOM      7  N   LIG    1       28.395 -13.135   4.132  0.00  0.00    +0.084 N 
ATOM      8  O   LIG    1       28.345 -12.282   5.028  0.00  0.00    -0.576 OA
ATOM      9  O   LIG    1       29.333 -13.300   3.341  0.00  0.00    +0.042 OA
ENDBRANCH   3   7
BRANCH   1  10
ATOM     10  C   LIG    1       26.272 -17.581   3.440  0.00  0.00    +0.194 C 
ATOM     11  O   LIG    1       25.662 -18.078   2.495  0.00  0.00    -0.287 OA
BRANCH  10  16
ATOM     12  C   LIG    1       29.122 -21.101   7.061  0.00  0.00    +0.044 C 
ATOM     13  C   LIG    1       28.412 -20.194   6.097  0.00  0.00    -0.050 A 
ATOM     14  C   LIG    1       27.106 -20.488   5.688  0.00  0.00    +0.004 A 
ATOM     15  C   LIG    1       26.429 -19.633   4.816  0.00  0.00    +0.012 A 
ATOM     16  C   LIG    1       27.049 -18.470   4.342  0.00  0.00    +0.022 A 
ATOM     17  C   LIG    1       28.339 -18.152   4.778  0.00  0.00    +0.012 A 
ATOM     18  C   LIG    1       29.017 -19.014   5.647  0.00  0.00    +0.004 A 
ENDBRANCH  10  16
ENDBRANCH   1  10
BRANCH   4  19
ATOM     19  O   LIG    1       25.812 -11.958   3.874  0.00  0.00    -0.499 OA
ATOM     20  H   LIG    1       26.644 -11.614   4.262  0.00  0.00    +0.292 HD
ENDBRANCH   4  19
BRANCH   5  21
ATOM     21  O   LIG    1       23.633 -13.466   3.480  0.00  0.00    -0.503 OA
ATOM     22  H   LIG    1       23.083 -13.686   4.254  0.00  0.00    +0.292 HD
ENDBRANCH   5  21
TORSDOF 5
ENDMDL
