MODEL 1
REMARK VINA RESULT:      -5.6      0.000      0.000
REMARK  Name = *****
REMARK                            x       y       z     vdW  Elec       q    Type
REMARK                         _______ _______ _______ _____ _____    ______ ____
ROOT
ATOM      1  O   LIG    1       27.728 -17.428   4.064  0.00  0.00    -0.274 OA
ATOM      2  C   LIG    1       26.629 -17.315   3.519  0.00  0.00    +0.233 C 
ATOM      3  N   LIG    1       25.771 -18.373   3.314  0.00  0.00    -0.310 N 
ATOM      4  H   LIG    1       24.806 -18.188   3.071  0.00  0.00    +0.149 HD
ENDROOT
BRANCH   3   5
ATOM      5  C   LIG    1       26.053 -19.680   3.872  0.00  0.00    +0.139 C 
BRANCH   5   6
ATOM      6  C   LIG    1       25.011 -20.074   4.888  0.00  0.00    -0.030 A 
ATOM      7  C   LIG    1       25.391 -20.673   6.098  0.00  0.00    +0.005 A 
ATOM      8  C   LIG    1       24.431 -21.024   7.051  0.00  0.00    +0.000 A 
ATOM      9  C   LIG    1       23.082 -20.781   6.806  0.00  0.00    +0.000 A 
ATOM     10  C   LIG    1       22.689 -20.195   5.604  0.00  0.00    +0.000 A 
ATOM     11  C   LIG    1       23.646 -19.846   4.648  0.00  0.00    +0.005 A 
ENDBRANCH   5   6
ENDBRANCH   3   5
BRANCH   2  12
ATOM     12  C   LIG    1       26.111 -15.998   2.978  0.00  0.00    +0.224 C 
BRANCH  12  13
ATOM     13  N   LIG    1       26.288 -14.872   3.884  0.00  0.00    -0.263 N 
ATOM     14  C   LIG    1       25.368 -13.960   4.341  0.00  0.00    +0.451 A 
ATOM     15  N   LIG    1       25.938 -12.998   5.043  0.00  0.00    -0.172 NA
ATOM     16  C   LIG    1       27.270 -13.309   5.070  0.00  0.00    +0.137 A 
ATOM     17  C   LIG    1       27.515 -14.460   4.357  0.00  0.00    +0.114 A 
BRANCH  14  18
ATOM     18  N   LIG    1       23.951 -13.990   4.072  0.00  0.00    +0.119 N 
ATOM     19  O   LIG    1       23.517 -13.214   3.211  0.00  0.00    -0.574 OA
ATOM     20  O   LIG    1       23.268 -14.818   4.690  0.00  0.00    +0.045 OA
ENDBRANCH  14  18
ENDBRANCH  12  13
ENDBRANCH   2  12
TORSDOF 5
ENDMDL
MODEL 2
REMARK VINA RESULT:      -5.3      1.993      3.415
REMARK  Name = *****
REMARK                            x       y       z     vdW  Elec       q    Type
REMARK                         _______ _______ _______ _____ _____    ______ ____
ROOT
ATOM      1  O   LIG    1       21.974 -15.570   5.566  0.00  0.00    -0.274 OA
ATOM      2  C   LIG    1       23.011 -15.537   4.902  0.00  0.00    +0.233 C 
ATOM      3  N   LIG    1       23.407 -16.555   4.062  0.00  0.00    -0.310 N 
ATOM      4  H   LIG    1       24.137 -16.380   3.383  0.00  0.00    +0.149 HD
ENDROOT
BRANCH   3   5
ATOM      5  C   LIG    1       22.536 -17.681   3.793  0.00  0.00    +0.139 C 
BRANCH   5   6
ATOM      6  C   LIG    1       23.169 -18.975   4.237  0.00  0.00    -0.030 A 
ATOM      7  C   LIG    1       22.547 -19.773   5.209  0.00  0.00    +0.005 A 
ATOM      8  C   LIG    1       23.119 -20.983   5.610  0.00  0.00    +0.000 A 
ATOM      9  C   LIG    1       24.319 -21.410   5.046  0.00  0.00    +0.000 A 
ATOM     10  C   LIG    1       24.952 -20.623   4.086  0.00  0.00    +0.000 A 
ATOM     11  C   LIG    1       24.384 -19.412   3.685  0.00  0.00    +0.005 A 
ENDBRANCH   5   6
ENDBRANCH   3   5
BRANCH   2  12
ATOM     12  C   LIG    1       23.989 -14.382   4.962  0.00  0.00    +0.224 C 
BRANCH  12  13
ATOM     13  N   LIG    1       24.481 -13.950   3.661  0.00  0.00    -0.263 N 
ATOM     14  C   LIG    1       25.649 -14.271   3.013  0.00  0.00    +0.451 A 
ATOM     15  N   LIG    1       25.803 -13.570   1.905  0.00  0.00    -0.172 NA
ATOM     16  C   LIG    1       24.685 -12.788   1.812  0.00  0.00    +0.137 A 
ATOM     17  C   LIG    1       23.852 -12.999   2.887  0.00  0.00    +0.114 A 
BRANCH  14  18
ATOM     18  N   LIG    1       26.632 -15.219   3.476  0.00  0.00    +0.119 N 
ATOM     19  O   LIG    1       27.635 -14.769   4.046  0.00  0.00    -0.574 OA
ATOM     20  O   LIG    1       26.392 -16.423   3.309  0.00  0.00    +0.045 OA
ENDBRANCH  14  18
ENDBRANCH  12  13
ENDBRANCH   2  12
TORSDOF 5
ENDMDL
MODEL 3
REMARK VINA RESULT:      -5.1      1.832      3.242
REMARK  Name = *****
REMARK                            x       y       z     vdW  Elec       q    Type
REMARK                         _______ _______ _______ _____ _____    ______ ____
ROOT
ATOM      1  O   LIG    1       22.470 -15.041   5.761  0.00  0.00    -0.274 OA
ATOM      2  C   LIG    1       23.013 -15.237   4.673  0.00  0.00    +0.233 C 
ATOM      3  N   LIG    1       23.015 -16.459   4.035  0.00  0.00    -0.310 N 
ATOM      4  H   LIG    1       23.275 -16.506   3.058  0.00  0.00    +0.149 HD
ENDROOT
BRANCH   3   5
ATOM      5  C   LIG    1       22.236 -17.567   4.547  0.00  0.00    +0.139 C 
BRANCH   5   6
ATOM      6  C   LIG    1       23.033 -18.847   4.528  0.00  0.00    -0.030 A 
ATOM      7  C   LIG    1       24.153 -18.973   3.694  0.00  0.00    +0.005 A 
ATOM      8  C   LIG    1       24.907 -20.149   3.685  0.00  0.00    +0.000 A 
ATOM      9  C   LIG    1       24.550 -21.214   4.510  0.00  0.00    +0.000 A 
ATOM     10  C   LIG    1       23.434 -21.106   5.337  0.00  0.00    +0.000 A 
ATOM     11  C   LIG    1       22.677 -19.933   5.345  0.00  0.00    +0.005 A 
ENDBRANCH   5   6
ENDBRANCH   3   5
BRANCH   2  12
ATOM     12  C   LIG    1       23.774 -14.161   3.927  0.00  0.00    +0.224 C 
BRANCH  12  13
ATOM     13  N   LIG    1       25.097 -13.884   4.469  0.00  0.00    -0.263 N 
ATOM     14  C   LIG    1       26.329 -14.318   4.043  0.00  0.00    +0.451 A 
ATOM     15  N   LIG    1       27.289 -13.964   4.877  0.00  0.00    -0.172 NA
ATOM     16  C   LIG    1       26.667 -13.250   5.864  0.00  0.00    +0.137 A 
ATOM     17  C   LIG    1       25.311 -13.188   5.639  0.00  0.00    +0.114 A 
BRANCH  14  18
ATOM     18  N   LIG    1       26.579 -15.104   2.860  0.00  0.00    +0.119 N 
ATOM     19  O   LIG    1       26.477 -16.333   2.959  0.00  0.00    -0.574 OA
ATOM     20  O   LIG    1       26.839 -14.496   1.812  0.00  0.00    +0.045 OA
ENDBRANCH  14  18
ENDBRANCH  12  13
ENDBRANCH   2  12
TORSDOF 5
ENDMDL
MODEL 4
REMARK VINA RESULT:      -5.1      2.764      6.445
REMARK  Name = *****
REMARK                            x       y       z     vdW  Elec       q    Type
REMARK                         _______ _______ _______ _____ _____    ______ ____
ROOT
ATOM      1  O   LIG    1       23.759 -18.205   3.833  0.00  0.00    -0.274 OA
ATOM      2  C   LIG    1       24.968 -18.252   3.606  0.00  0.00    +0.233 C 
ATOM      3  N   LIG    1       25.724 -17.145   3.286  0.00  0.00    -0.310 N 
ATOM      4  H   LIG    1       26.734 -17.205   3.331  0.00  0.00    +0.149 HD
ENDROOT
BRANCH   3   5
ATOM      5  C   LIG    1       25.157 -15.813   3.345  0.00  0.00    +0.139 C 
BRANCH   5   6
ATOM      6  C   LIG    1       26.185 -14.803   3.788  0.00  0.00    -0.030 A 
ATOM      7  C   LIG    1       26.039 -14.131   5.011  0.00  0.00    +0.005 A 
ATOM      8  C   LIG    1       26.998 -13.208   5.435  0.00  0.00    +0.000 A 
ATOM      9  C   LIG    1       28.113 -12.945   4.643  0.00  0.00    +0.000 A 
ATOM     10  C   LIG    1       28.266 -13.598   3.422  0.00  0.00    +0.000 A 
ATOM     11  C   LIG    1       27.308 -14.518   2.994  0.00  0.00    +0.005 A 
ENDBRANCH   5   6
ENDBRANCH   3   5
BRANCH   2  12
ATOM     12  C   LIG    1       25.758 -19.544   3.618  0.00  0.00    +0.224 C 
BRANCH  12  13
ATOM     13  N   LIG    1       26.111 -20.014   4.950  0.00  0.00    -0.263 N 
ATOM     14  C   LIG    1       25.314 -20.546   5.934  0.00  0.00    +0.451 A 
ATOM     15  N   LIG    1       25.978 -20.726   7.061  0.00  0.00    -0.172 NA
ATOM     16  C   LIG    1       27.259 -20.325   6.794  0.00  0.00    +0.137 A 
ATOM     17  C   LIG    1       27.368 -19.876   5.498  0.00  0.00    +0.114 A 
BRANCH  14  18
ATOM     18  N   LIG    1       23.908 -20.845   5.805  0.00  0.00    +0.119 N 
ATOM     19  O   LIG    1       23.138 -20.328   6.624  0.00  0.00    -0.574 OA
ATOM     20  O   LIG    1       23.560 -21.567   4.861  0.00  0.00    +0.045 OA
ENDBRANCH  14  18
ENDBRANCH  12  13
ENDBRANCH   2  12
TORSDOF 5
ENDMDL
MODEL 5
REMARK VINA RESULT:      -5.0      2.354      6.700
REMARK  Name = *****
REMARK                            x       y       z     vdW  Elec       q    Type
REMARK                         _______ _______ _______ _____ _____    ______ ____
ROOT
ATOM      1  O   LIG    1       23.830 -18.249   3.615  0.00  0.00    -0.274 OA
ATOM      2  C   LIG    1       25.059 -18.296   3.556  0.00  0.00    +0.233 C 
ATOM      3  N   LIG    1       25.848 -17.197   3.293  0.00  0.00    -0.310 N 
ATOM      4  H   LIG    1       26.842 -17.246   3.478  0.00  0.00    +0.149 HD
ENDROOT
BRANCH   3   5
ATOM      5  C   LIG    1       25.274 -15.869   3.217  0.00  0.00    +0.139 C 
BRANCH   5   6
ATOM      6  C   LIG    1       26.227 -14.833   3.756  0.00  0.00    -0.030 A 
ATOM      7  C   LIG    1       25.953 -14.177   4.966  0.00  0.00    +0.005 A 
ATOM      8  C   LIG    1       26.841 -13.229   5.480  0.00  0.00    +0.000 A 
ATOM      9  C   LIG    1       28.014 -12.925   4.792  0.00  0.00    +0.000 A 
ATOM     10  C   LIG    1       28.295 -13.562   3.584  0.00  0.00    +0.000 A 
ATOM     11  C   LIG    1       27.407 -14.507   3.067  0.00  0.00    +0.005 A 
ENDBRANCH   5   6
ENDBRANCH   3   5
BRANCH   2  12
ATOM     12  C   LIG    1       25.843 -19.580   3.731  0.00  0.00    +0.224 C 
BRANCH  12  13
ATOM     13  N   LIG    1       25.806 -20.120   5.083  0.00  0.00    -0.263 N 
ATOM     14  C   LIG    1       26.827 -20.306   5.983  0.00  0.00    +0.451 A 
ATOM     15  N   LIG    1       26.420 -20.952   7.060  0.00  0.00    -0.172 NA
ATOM     16  C   LIG    1       25.083 -21.169   6.869  0.00  0.00    +0.137 A 
ATOM     17  C   LIG    1       24.678 -20.669   5.653  0.00  0.00    +0.114 A 
BRANCH  14  18
ATOM     18  N   LIG    1       28.198 -19.899   5.793  0.00  0.00    +0.119 N 
ATOM     19  O   LIG    1       28.398 -18.808   5.243  0.00  0.00    -0.574 OA
ATOM     20  O   LIG    1       29.084 -20.648   6.226  0.00  0.00    +0.045 OA
ENDBRANCH  14  18
ENDBRANCH  12  13
ENDBRANCH   2  12
TORSDOF 5
ENDMDL
MODEL 6
REMARK VINA RESULT:      -4.9      1.764      2.573
REMARK  Name = *****
REMARK                            x       y       z     vdW  Elec       q    Type
REMARK                         _______ _______ _______ _____ _____    ______ ____
ROOT
ATOM      1  O   LIG    1       24.173 -17.255   3.648  0.00  0.00    -0.274 OA
ATOM      2  C   LIG    1       25.390 -17.338   3.478  0.00  0.00    +0.233 C 
ATOM      3  N   LIG    1       26.060 -18.536   3.352  0.00  0.00    -0.310 N 
ATOM      4  H   LIG    1       27.007 -18.538   2.995  0.00  0.00    +0.149 HD
ENDROOT
BRANCH   3   5
ATOM      5  C   LIG    1       25.336 -19.787   3.260  0.00  0.00    +0.139 C 
BRANCH   5   6
ATOM      6  C   LIG    1       24.744 -20.172   4.592  0.00  0.00    -0.030 A 
ATOM      7  C   LIG    1       23.352 -20.236   4.760  0.00  0.00    +0.005 A 
ATOM      8  C   LIG    1       22.799 -20.610   5.986  0.00  0.00    +0.000 A 
ATOM      9  C   LIG    1       23.628 -20.924   7.060  0.00  0.00    +0.000 A 
ATOM     10  C   LIG    1       25.012 -20.856   6.912  0.00  0.00    +0.000 A 
ATOM     11  C   LIG    1       25.568 -20.479   5.687  0.00  0.00    +0.005 A 
ENDBRANCH   5   6
ENDBRANCH   3   5
BRANCH   2  12
ATOM     12  C   LIG    1       26.297 -16.126   3.427  0.00  0.00    +0.224 C 
BRANCH  12  13
ATOM     13  N   LIG    1       25.636 -14.873   3.762  0.00  0.00    -0.263 N 
ATOM     14  C   LIG    1       26.172 -13.691   4.214  0.00  0.00    +0.451 A 
ATOM     15  N   LIG    1       25.234 -12.820   4.539  0.00  0.00    -0.172 NA
ATOM     16  C   LIG    1       24.048 -13.444   4.262  0.00  0.00    +0.137 A 
ATOM     17  C   LIG    1       24.268 -14.716   3.784  0.00  0.00    +0.114 A 
BRANCH  14  18
ATOM     18  N   LIG    1       27.578 -13.412   4.371  0.00  0.00    +0.119 N 
ATOM     19  O   LIG    1       28.312 -13.616   3.395  0.00  0.00    -0.574 OA
ATOM     20  O   LIG    1       27.954 -12.950   5.457  0.00  0.00    +0.045 OA
ENDBRANCH  14  18
ENDBRANCH  12  13
ENDBRANCH   2  12
TORSDOF 5
ENDMDL
MODEL 7
REMARK VINA RESULT:      -4.9      2.582      6.824
REMARK  Name = *****
REMARK                            x       y       z     vdW  Elec       q    Type
REMARK                         _______ _______ _______ _____ _____    ______ ____
ROOT
ATOM      1  O   LIG    1       21.630 -18.038   4.259  0.00  0.00    -0.274 OA
ATOM      2  C   LIG    1       22.840 -18.214   4.121  0.00  0.00    +0.233 C 
ATOM      3  N   LIG    1       23.758 -17.186   4.086  0.00  0.00    -0.310 N 
ATOM      4  H   LIG    1       24.742 -17.397   4.197  0.00  0.00    +0.149 HD
ENDROOT
BRANCH   3   5
ATOM      5  C   LIG    1       23.358 -15.821   4.364  0.00  0.00    +0.139 C 
BRANCH   5   6
ATOM      6  C   LIG    1       24.318 -14.837   3.745  0.00  0.00    -0.030 A 
ATOM      7  C   LIG    1       25.667 -15.178   3.565  0.00  0.00    +0.005 A 
ATOM      8  C   LIG    1       26.556 -14.277   2.975  0.00  0.00    +0.000 A 
ATOM      9  C   LIG    1       26.109 -13.025   2.559  0.00  0.00    +0.000 A 
ATOM     10  C   LIG    1       24.774 -12.669   2.739  0.00  0.00    +0.000 A 
ATOM     11  C   LIG    1       23.884 -13.567   3.332  0.00  0.00    +0.005 A 
ENDBRANCH   5   6
ENDBRANCH   3   5
BRANCH   2  12
ATOM     12  C   LIG    1       23.456 -19.585   3.937  0.00  0.00    +0.224 C 
BRANCH  12  13
ATOM     13  N   LIG    1       23.718 -20.292   5.183  0.00  0.00    -0.263 N 
ATOM     14  C   LIG    1       24.912 -20.569   5.802  0.00  0.00    +0.451 A 
ATOM     15  N   LIG    1       24.751 -21.354   6.851  0.00  0.00    -0.172 NA
ATOM     16  C   LIG    1       23.403 -21.572   6.937  0.00  0.00    +0.137 A 
ATOM     17  C   LIG    1       22.741 -20.931   5.916  0.00  0.00    +0.114 A 
BRANCH  14  18
ATOM     18  N   LIG    1       26.209 -20.113   5.365  0.00  0.00    +0.119 N 
ATOM     19  O   LIG    1       26.249 -19.366   4.379  0.00  0.00    -0.574 OA
ATOM     20  O   LIG    1       27.195 -20.467   6.027  0.00  0.00    +0.045 OA
ENDBRANCH  14  18
ENDBRANCH  12  13
ENDBRANCH   2  12
TORSDOF 5
ENDMDL
MODEL 8
REMARK VINA RESULT:      -4.6      2.075      6.556
REMARK  Name = *****
REMARK                            x       y       z     vdW  Elec       q    Type
REMARK                         _______ _______ _______ _____ _____    ______ ____
ROOT
ATOM      1  O   LIG    1       21.904 -16.131   5.701  0.00  0.00    -0.274 OA
ATOM      2  C   LIG    1       22.492 -16.513   4.690  0.00  0.00    +0.233 C 
ATOM      3  N   LIG    1       23.374 -15.725   3.982  0.00  0.00    -0.310 N 
ATOM      4  H   LIG    1       23.989 -16.157   3.304  0.00  0.00    +0.149 HD
ENDROOT
BRANCH   3   5
ATOM      5  C   LIG    1       23.781 -14.428   4.482  0.00  0.00    +0.139 C 
BRANCH   5   6
ATOM      6  C   LIG    1       25.234 -14.160   4.181  0.00  0.00    -0.030 A 
ATOM      7  C   LIG    1       25.756 -14.426   2.907  0.00  0.00    +0.005 A 
ATOM      8  C   LIG    1       27.096 -14.163   2.617  0.00  0.00    +0.000 A 
ATOM      9  C   LIG    1       27.932 -13.631   3.597  0.00  0.00    +0.000 A 
ATOM     10  C   LIG    1       27.430 -13.371   4.870  0.00  0.00    +0.000 A 
ATOM     11  C   LIG    1       26.090 -13.636   5.163  0.00  0.00    +0.005 A 
ENDBRANCH   5   6
ENDBRANCH   3   5
BRANCH   2  12
ATOM     12  C   LIG    1       22.284 -17.886   4.086  0.00  0.00    +0.224 C 
BRANCH  12  13
ATOM     13  N   LIG    1       23.022 -18.948   4.756  0.00  0.00    -0.263 N 
ATOM     14  C   LIG    1       24.234 -19.512   4.437  0.00  0.00    +0.451 A 
ATOM     15  N   LIG    1       24.510 -20.549   5.206  0.00  0.00    -0.172 NA
ATOM     16  C   LIG    1       23.458 -20.645   6.076  0.00  0.00    +0.137 A 
ATOM     17  C   LIG    1       22.522 -19.671   5.817  0.00  0.00    +0.114 A 
BRANCH  14  18
ATOM     18  N   LIG    1       25.105 -19.082   3.370  0.00  0.00    +0.119 N 
ATOM     19  O   LIG    1       25.325 -19.885   2.454  0.00  0.00    -0.574 OA
ATOM     20  O   LIG    1       25.543 -17.925   3.420  0.00  0.00    +0.045 OA
ENDBRANCH  14  18
ENDBRANCH  12  13
ENDBRANCH   2  12
TORSDOF 5
ENDMDL
MODEL 9
REMARK VINA RESULT:      -4.6      3.162      6.721
REMARK  Name = *****
REMARK                            x       y       z     vdW  Elec       q    Type
REMARK                         _______ _______ _______ _____ _____    ______ ____
ROOT
ATOM      1  O   LIG    1       22.151 -18.033   4.466  0.00  0.00    -0.274 OA
ATOM      2  C   LIG    1       23.290 -18.057   4.001  0.00  0.00    +0.233 C 
ATOM      3  N   LIG    1       24.067 -16.930   3.837  0.00  0.00    -0.310 N 
ATOM      4  H   LIG    1       25.060 -17.034   3.665  0.00  0.00    +0.149 HD
ENDROOT
BRANCH   3   5
ATOM      5  C   LIG    1       23.636 -15.647   4.353  0.00  0.00    +0.139 C 
BRANCH   5   6
ATOM      6  C   LIG    1       24.391 -14.517   3.700  0.00  0.00    -0.030 A 
ATOM      7  C   LIG    1       25.773 -14.620   3.479  0.00  0.00    +0.005 A 
ATOM      8  C   LIG    1       26.474 -13.584   2.858  0.00  0.00    +0.000 A 
ATOM      9  C   LIG    1       25.804 -12.433   2.450  0.00  0.00    +0.000 A 
ATOM     10  C   LIG    1       24.434 -12.313   2.670  0.00  0.00    +0.000 A 
ATOM     11  C   LIG    1       23.731 -13.346   3.295  0.00  0.00    +0.005 A 
ENDBRANCH   5   6
ENDBRANCH   3   5
BRANCH   2  12
ATOM     12  C   LIG    1       23.956 -19.329   3.518  0.00  0.00    +0.224 C 
BRANCH  12  13
ATOM     13  N   LIG    1       24.776 -19.990   4.523  0.00  0.00    -0.263 N 
ATOM     14  C   LIG    1       24.399 -20.769   5.591  0.00  0.00    +0.451 A 
ATOM     15  N   LIG    1       25.427 -21.078   6.360  0.00  0.00    -0.172 NA
ATOM     16  C   LIG    1       26.515 -20.507   5.757  0.00  0.00    +0.137 A 
ATOM     17  C   LIG    1       26.140 -19.825   4.622  0.00  0.00    +0.114 A 
BRANCH  14  18
ATOM     18  N   LIG    1       23.051 -21.181   5.894  0.00  0.00    +0.119 N 
ATOM     19  O   LIG    1       22.229 -21.171   4.969  0.00  0.00    -0.574 OA
ATOM     20  O   LIG    1       22.812 -21.557   7.050  0.00  0.00    +0.045 OA
ENDBRANCH  14  18
ENDBRANCH  12  13
ENDBRANCH   2  12
TORSDOF 5
ENDMDL
