MODEL 1
REMARK VINA RESULT:      74.0      0.000      0.000
REMARK  Name = *****
REMARK                            x       y       z     vdW  Elec       q    Type
REMARK                         _______ _______ _______ _____ _____    ______ ____
ROOT
ATOM      1  C   LIG    1       27.109 -15.096   2.427  0.00  0.00    +0.007 C 
ENDROOT
BRANCH   1   2
ATOM      2  C   LIG    1       28.418 -14.509   1.831  0.00  0.00    +0.041 C 
BRANCH   2   3
ATOM      3  C   LIG    1       29.174 -13.734   2.828  0.00  0.00    +0.232 C 
BRANCH   3   4
ATOM      4  O   LIG    1       28.213 -14.083   4.178  0.00  0.00    -0.465 OA
BRANCH   4   5
ATOM      5  C   LIG    1       27.401 -14.645   5.417  0.00  0.00    +0.312 C 
ATOM      6  O   LIG    1       28.173 -15.168   6.188  0.00  0.00    -0.251 OA
BRANCH   5   7
ATOM      7  C   LIG    1       25.552 -14.397   5.953  0.00  0.00    +0.171 C 
BRANCH   7   8
ATOM      8  C   LIG    1       23.804 -14.353   4.850  0.00  0.00    +0.145 C 
BRANCH   8   9
ATOM      9  N   LIG    1       23.234 -13.794   3.525  0.00  0.00    +0.247 N 
ATOM     10  C   LIG    1       22.384 -14.699   2.727  0.00  0.00    +0.193 C 
ATOM     11  C   LIG    1       24.483 -13.351   2.577  0.00  0.00    +0.102 C 
ATOM     12  C   LIG    1       25.394 -12.389   3.326  0.00  0.00    +0.008 A 
ATOM     13  C   LIG    1       24.987 -11.751   4.472  0.00  0.00    -0.030 A 
ATOM     14  C   LIG    1       25.963 -11.465   5.468  0.00  0.00    +0.053 A 
ATOM     15  C   LIG    1       27.373 -11.605   5.269  0.00  0.00    +0.162 A 
ATOM     16  C   LIG    1       27.729 -11.844   3.943  0.00  0.00    +0.162 A 
ATOM     17  C   LIG    1       23.500 -11.517   4.486  0.00  0.00    +0.086 C 
ATOM     18  C   LIG    1       26.708 -12.246   3.024  0.00  0.00    +0.059 A 
ATOM     19  C   LIG    1       22.574 -12.699   4.321  0.00  0.00    +0.138 C 
BRANCH  15  20
ATOM     20  O   LIG    1       28.116 -11.447   6.414  0.00  0.00    -0.491 OA
ATOM     21  C   LIG    1       29.475 -11.865   6.661  0.00  0.00    +0.277 C 
ENDBRANCH  15  20
BRANCH  16  22
ATOM     22  O   LIG    1       29.016 -11.750   3.447  0.00  0.00    -0.491 OA
ATOM     23  C   LIG    1       29.423 -13.040   2.954  0.00  0.00    +0.277 C 
ENDBRANCH  16  22
BRANCH  11  24
ATOM     24  C   LIG    1       25.289 -14.616   1.819  0.00  0.00    +0.095 C 
BRANCH  24  25
ATOM     25  C   LIG    1       26.067 -15.750   2.551  0.00  0.00    -0.038 A 
ATOM     26  C   LIG    1       26.992 -15.561   3.629  0.00  0.00    +0.053 A 
ATOM     27  C   LIG    1       27.681 -16.555   4.411  0.00  0.00    +0.162 A 
ATOM     28  C   LIG    1       27.430 -17.832   4.018  0.00  0.00    +0.162 A 
ATOM     29  C   LIG    1       26.632 -18.056   2.851  0.00  0.00    +0.050 A 
ATOM     30  C   LIG    1       25.989 -17.057   2.103  0.00  0.00    +0.007 A 
BRANCH  28  31
ATOM     31  O   LIG    1       28.190 -18.820   4.581  0.00  0.00    -0.491 OA
ATOM     32  C   LIG    1       29.346 -18.173   5.098  0.00  0.00    +0.277 C 
ENDBRANCH  28  31
BRANCH  27  33
ATOM     33  O   LIG    1       28.684 -16.167   5.277  0.00  0.00    -0.491 OA
ATOM     34  C   LIG    1       29.410 -16.899   6.336  0.00  0.00    +0.277 C 
ENDBRANCH  27  33
ENDBRANCH  24  25
ENDBRANCH  11  24
ENDBRANCH   8   9
ENDBRANCH   7   8
ENDBRANCH   5   7
ENDBRANCH   4   5
ENDBRANCH   3   4
ENDBRANCH   2   3
ENDBRANCH   1   2
BRANCH   1  35
ATOM     35  C   LIG    1       27.182 -16.551   3.043  0.00  0.00    +0.041 C 
BRANCH  35  36
ATOM     36  C   LIG    1       26.118 -17.783   3.160  0.00  0.00    +0.232 C 
BRANCH  36  37
ATOM     37  O   LIG    1       24.791 -18.203   3.754  0.00  0.00    -0.465 OA
BRANCH  37  38
ATOM     38  C   LIG    1       23.958 -17.669   4.687  0.00  0.00    +0.312 C 
ATOM     39  O   LIG    1       24.292 -16.952   5.625  0.00  0.00    -0.251 OA
BRANCH  38  40
ATOM     40  C   LIG    1       22.448 -17.829   4.309  0.00  0.00    +0.171 C 
BRANCH  40  41
ATOM     41  C   LIG    1       21.810 -18.982   3.441  0.00  0.00    +0.145 C 
BRANCH  41  43
ATOM     42  C   LIG    1       22.044 -20.709   5.538  0.00  0.00    +0.102 C 
ATOM     43  N   LIG    1       21.499 -20.455   3.946  0.00  0.00    +0.247 N 
ATOM     44  C   LIG    1       20.007 -20.804   3.849  0.00  0.00    +0.193 C 
ATOM     45  C   LIG    1       21.956 -21.570   3.025  0.00  0.00    +0.138 C 
ATOM     46  C   LIG    1       23.351 -21.479   2.804  0.00  0.00    +0.086 C 
ATOM     47  C   LIG    1       23.885 -21.559   4.175  0.00  0.00    -0.030 A 
ATOM     48  C   LIG    1       25.098 -21.564   4.334  0.00  0.00    +0.053 A 
ATOM     49  C   LIG    1       26.448 -21.374   5.509  0.00  0.00    +0.162 A 
ATOM     50  C   LIG    1       26.441 -21.529   6.706  0.00  0.00    +0.162 A 
ATOM     51  C   LIG    1       24.686 -21.350   6.553  0.00  0.00    +0.059 A 
ATOM     52  C   LIG    1       23.522 -21.269   5.410  0.00  0.00    +0.008 A 
BRANCH  50  53
ATOM     53  O   LIG    1       27.460 -20.178   7.006  0.00  0.00    -0.491 OA
ATOM     54  C   LIG    1       28.829 -19.774   7.052  0.00  0.00    +0.277 C 
ENDBRANCH  50  53
BRANCH  49  55
ATOM     55  O   LIG    1       27.998 -20.578   4.713  0.00  0.00    -0.491 OA
ATOM     56  C   LIG    1       29.183 -21.141   4.455  0.00  0.00    +0.277 C 
ENDBRANCH  49  55
BRANCH  42  57
ATOM     57  C   LIG    1       21.332 -19.560   6.483  0.00  0.00    +0.095 C 
BRANCH  57  61
ATOM     58  C   LIG    1       20.411 -15.279   5.598  0.00  0.00    +0.162 A 
ATOM     59  C   LIG    1       21.510 -15.643   6.380  0.00  0.00    +0.162 A 
ATOM     60  C   LIG    1       21.835 -17.024   6.603  0.00  0.00    +0.053 A 
ATOM     61  C   LIG    1       21.077 -18.080   6.090  0.00  0.00    -0.038 A 
ATOM     62  C   LIG    1       19.993 -17.663   5.276  0.00  0.00    +0.007 A 
ATOM     63  C   LIG    1       19.737 -16.310   4.945  0.00  0.00    +0.050 A 
BRANCH  58  65
ATOM     64  C   LIG    1       19.370 -13.311   6.519  0.00  0.00    +0.277 C 
ATOM     65  O   LIG    1       19.919 -14.012   5.386  0.00  0.00    -0.491 OA
ENDBRANCH  58  65
BRANCH  59  66
ATOM     66  O   LIG    1       22.331 -14.778   7.054  0.00  0.00    -0.491 OA
ATOM     67  C   LIG    1       22.353 -13.408   6.665  0.00  0.00    +0.277 C 
ENDBRANCH  59  66
ENDBRANCH  57  61
ENDBRANCH  42  57
ENDBRANCH  41  43
ENDBRANCH  40  41
ENDBRANCH  38  40
ENDBRANCH  37  38
ENDBRANCH  36  37
ENDBRANCH  35  36
ENDBRANCH   1  35
TORSDOF 26
ENDMDL
MODEL 2
REMARK VINA RESULT:      76.7      0.945      2.105
REMARK  Name = *****
REMARK                            x       y       z     vdW  Elec       q    Type
REMARK                         _______ _______ _______ _____ _____    ______ ____
ROOT
ATOM      1  C   LIG    1       27.075 -15.060   2.320  0.00  0.00    +0.007 C 
ENDROOT
BRANCH   1   2
ATOM      2  C   LIG    1       28.413 -14.455   1.816  0.00  0.00    +0.041 C 
BRANCH   2   3
ATOM      3  C   LIG    1       28.943 -13.445   2.746  0.00  0.00    +0.232 C 
BRANCH   3   4
ATOM      4  O   LIG    1       28.063 -13.902   4.118  0.00  0.00    -0.465 OA
BRANCH   4   5
ATOM      5  C   LIG    1       27.355 -14.552   5.379  0.00  0.00    +0.312 C 
ATOM      6  O   LIG    1       28.203 -14.883   6.177  0.00  0.00    -0.251 OA
BRANCH   5   7
ATOM      7  C   LIG    1       25.486 -14.637   5.894  0.00  0.00    +0.171 C 
BRANCH   7   8
ATOM      8  C   LIG    1       23.754 -14.334   4.806  0.00  0.00    +0.145 C 
BRANCH   8   9
ATOM      9  N   LIG    1       23.248 -13.627   3.528  0.00  0.00    +0.247 N 
ATOM     10  C   LIG    1       22.422 -14.427   2.601  0.00  0.00    +0.193 C 
ATOM     11  C   LIG    1       24.541 -13.104   2.686  0.00  0.00    +0.102 C 
ATOM     12  C   LIG    1       25.429 -12.242   3.571  0.00  0.00    +0.008 A 
ATOM     13  C   LIG    1       24.981 -11.725   4.762  0.00  0.00    -0.030 A 
ATOM     14  C   LIG    1       25.916 -11.563   5.823  0.00  0.00    +0.053 A 
ATOM     15  C   LIG    1       27.332 -11.704   5.668  0.00  0.00    +0.162 A 
ATOM     16  C   LIG    1       27.742 -11.804   4.340  0.00  0.00    +0.162 A 
ATOM     17  C   LIG    1       23.498 -11.470   4.739  0.00  0.00    +0.086 C 
ATOM     18  C   LIG    1       26.757 -12.089   3.341  0.00  0.00    +0.059 A 
ATOM     19  C   LIG    1       22.566 -12.613   4.409  0.00  0.00    +0.138 C 
BRANCH  15  20
ATOM     20  O   LIG    1       28.027 -11.681   6.853  0.00  0.00    -0.491 OA
ATOM     21  C   LIG    1       29.455 -11.740   7.051  0.00  0.00    +0.277 C 
ENDBRANCH  15  20
BRANCH  16  22
ATOM     22  O   LIG    1       29.050 -11.677   3.910  0.00  0.00    -0.491 OA
ATOM     23  C   LIG    1       29.254 -12.535   2.773  0.00  0.00    +0.277 C 
ENDBRANCH  16  22
BRANCH  11  24
ATOM     24  C   LIG    1       25.365 -14.292   1.829  0.00  0.00    +0.095 C 
BRANCH  24  25
ATOM     25  C   LIG    1       25.262 -15.824   2.096  0.00  0.00    -0.038 A 
ATOM     26  C   LIG    1       24.053 -16.592   2.068  0.00  0.00    +0.053 A 
ATOM     27  C   LIG    1       23.885 -18.015   2.216  0.00  0.00    +0.162 A 
ATOM     28  C   LIG    1       25.045 -18.682   2.457  0.00  0.00    +0.162 A 
ATOM     29  C   LIG    1       26.250 -17.933   2.642  0.00  0.00    +0.050 A 
ATOM     30  C   LIG    1       26.372 -16.541   2.507  0.00  0.00    +0.007 A 
BRANCH  28  31
ATOM     31  O   LIG    1       24.947 -20.002   2.799  0.00  0.00    -0.491 OA
ATOM     32  C   LIG    1       26.052 -20.648   2.177  0.00  0.00    +0.277 C 
ENDBRANCH  28  31
BRANCH  27  33
ATOM     33  O   LIG    1       22.616 -18.541   2.357  0.00  0.00    -0.491 OA
ATOM     34  C   LIG    1       21.990 -19.764   1.813  0.00  0.00    +0.277 C 
ENDBRANCH  27  33
ENDBRANCH  24  25
ENDBRANCH  11  24
ENDBRANCH   8   9
ENDBRANCH   7   8
ENDBRANCH   5   7
ENDBRANCH   4   5
ENDBRANCH   3   4
ENDBRANCH   2   3
ENDBRANCH   1   2
BRANCH   1  35
ATOM     35  C   LIG    1       27.143 -16.463   3.049  0.00  0.00    +0.041 C 
BRANCH  35  36
ATOM     36  C   LIG    1       26.038 -17.615   3.387  0.00  0.00    +0.232 C 
BRANCH  36  37
ATOM     37  O   LIG    1       24.627 -17.853   3.878  0.00  0.00    -0.465 OA
BRANCH  37  38
ATOM     38  C   LIG    1       23.853 -17.292   4.846  0.00  0.00    +0.312 C 
ATOM     39  O   LIG    1       24.186 -16.382   5.598  0.00  0.00    -0.251 OA
BRANCH  38  40
ATOM     40  C   LIG    1       22.355 -17.734   4.751  0.00  0.00    +0.171 C 
BRANCH  40  41
ATOM     41  C   LIG    1       21.786 -18.980   3.966  0.00  0.00    +0.145 C 
BRANCH  41  43
ATOM     42  C   LIG    1       22.311 -20.592   6.102  0.00  0.00    +0.102 C 
ATOM     43  N   LIG    1       21.615 -20.444   4.556  0.00  0.00    +0.247 N 
ATOM     44  C   LIG    1       20.144 -20.885   4.609  0.00  0.00    +0.193 C 
ATOM     45  C   LIG    1       22.058 -21.571   3.644  0.00  0.00    +0.138 C 
ATOM     46  C   LIG    1       23.421 -21.408   3.296  0.00  0.00    +0.086 C 
ATOM     47  C   LIG    1       24.076 -21.394   4.615  0.00  0.00    -0.030 A 
ATOM     48  C   LIG    1       25.296 -21.319   4.664  0.00  0.00    +0.053 A 
ATOM     49  C   LIG    1       26.729 -20.996   5.705  0.00  0.00    +0.162 A 
ATOM     50  C   LIG    1       26.836 -21.096   6.903  0.00  0.00    +0.162 A 
ATOM     51  C   LIG    1       25.067 -21.028   6.900  0.00  0.00    +0.059 A 
ATOM     52  C   LIG    1       23.804 -21.069   5.864  0.00  0.00    +0.008 A 
BRANCH  50  53
ATOM     53  O   LIG    1       27.791 -19.675   7.054  0.00  0.00    -0.491 OA
ATOM     54  C   LIG    1       28.433 -18.650   6.295  0.00  0.00    +0.277 C 
ENDBRANCH  50  53
BRANCH  49  55
ATOM     55  O   LIG    1       28.151 -20.148   4.741  0.00  0.00    -0.491 OA
ATOM     56  C   LIG    1       29.112 -19.346   5.210  0.00  0.00    +0.277 C 
ENDBRANCH  49  55
BRANCH  42  57
ATOM     57  C   LIG    1       21.614 -19.445   7.060  0.00  0.00    +0.095 C 
BRANCH  57  61
ATOM     58  C   LIG    1       22.229 -15.059   6.467  0.00  0.00    +0.162 A 
ATOM     59  C   LIG    1       20.957 -15.597   6.674  0.00  0.00    +0.162 A 
ATOM     60  C   LIG    1       20.778 -16.999   6.930  0.00  0.00    +0.053 A 
ATOM     61  C   LIG    1       21.835 -17.911   6.962  0.00  0.00    -0.038 A 
ATOM     62  C   LIG    1       23.110 -17.316   6.780  0.00  0.00    +0.007 A 
ATOM     63  C   LIG    1       23.311 -15.920   6.654  0.00  0.00    +0.050 A 
BRANCH  58  65
ATOM     64  C   LIG    1       21.994 -12.702   6.907  0.00  0.00    +0.277 C 
ATOM     65  O   LIG    1       22.545 -13.770   6.110  0.00  0.00    -0.491 OA
ENDBRANCH  58  65
BRANCH  59  66
ATOM     66  O   LIG    1       19.776 -14.907   6.594  0.00  0.00    -0.491 OA
ATOM     67  C   LIG    1       19.815 -13.484   6.547  0.00  0.00    +0.277 C 
ENDBRANCH  59  66
ENDBRANCH  57  61
ENDBRANCH  42  57
ENDBRANCH  41  43
ENDBRANCH  40  41
ENDBRANCH  38  40
ENDBRANCH  37  38
ENDBRANCH  36  37
ENDBRANCH  35  36
ENDBRANCH   1  35
TORSDOF 26
ENDMDL
