MODEL 1
REMARK VINA RESULT:       0.7      0.000      0.000
REMARK  Name = *****
REMARK                            x       y       z     vdW  Elec       q    Type
REMARK                         _______ _______ _______ _____ _____    ______ ____
ROOT
ATOM      1  N   LIG    1       26.867 -18.159   3.927  0.00  0.00    -0.290 NA
ATOM      2  C   LIG    1       25.564 -18.618   4.486  0.00  0.00    +0.100 C 
ATOM      3  C   LIG    1       24.348 -18.101   3.678  0.00  0.00    +0.100 C 
ATOM      4  N   LIG    1       23.124 -17.923   4.520  0.00  0.00    -0.290 NA
ATOM      5  C   LIG    1       22.489 -16.615   4.149  0.00  0.00    +0.100 C 
ATOM      6  C   LIG    1       23.192 -15.384   4.797  0.00  0.00    +0.100 C 
ATOM      7  N   LIG    1       24.111 -14.602   3.927  0.00  0.00    -0.290 NA
ATOM      8  C   LIG    1       25.026 -13.812   4.777  0.00  0.00    +0.100 C 
ATOM      9  C   LIG    1       26.393 -13.441   4.144  0.00  0.00    +0.100 C 
ATOM     10  N   LIG    1       27.484 -14.416   4.401  0.00  0.00    -0.290 NA
ATOM     11  C   LIG    1       27.220 -15.685   3.649  0.00  0.00    +0.100 C 
ATOM     12  C   LIG    1       27.270 -16.894   4.608  0.00  0.00    +0.100 C 
ENDROOT
BRANCH   1  13
ATOM     13  C   LIG    1       27.867 -19.247   4.089  0.00  0.00    +0.205 C 
BRANCH  13  15
ATOM     14  O   LIG    1       29.004 -19.184   6.239  0.00  0.00    -0.250 OA
ATOM     15  C   LIG    1       28.114 -19.665   5.535  0.00  0.00    +0.319 C 
BRANCH  15  16
ATOM     16  O   LIG    1       27.276 -20.610   6.014  0.00  0.00    -0.480 OA
ATOM     17  H   LIG    1       26.568 -20.255   6.588  0.00  0.00    +0.295 HD
ENDBRANCH  15  16
ENDBRANCH  13  15
ENDBRANCH   1  13
BRANCH   4  18
ATOM     18  C   LIG    1       22.114 -18.999   4.260  0.00  0.00    +0.205 C 
BRANCH  18  19
ATOM     19  C   LIG    1       22.286 -20.211   5.171  0.00  0.00    +0.319 C 
ATOM     20  O   LIG    1       23.070 -20.266   6.103  0.00  0.00    -0.250 OA
BRANCH  19  21
ATOM     21  O   LIG    1       21.524 -21.265   4.786  0.00  0.00    -0.480 OA
ATOM     22  H   LIG    1       22.122 -22.015   4.576  0.00  0.00    +0.295 HD
ENDBRANCH  19  21
ENDBRANCH  18  19
ENDBRANCH   4  18
BRANCH   7  23
ATOM     23  C   LIG    1       23.367 -13.764   2.945  0.00  0.00    +0.205 C 
BRANCH  23  24
ATOM     24  C   LIG    1       23.930 -12.354   2.763  0.00  0.00    +0.319 C 
ATOM     25  O   LIG    1       24.683 -12.016   1.853  0.00  0.00    -0.250 OA
BRANCH  24  26
ATOM     26  O   LIG    1       23.560 -11.479   3.734  0.00  0.00    -0.480 OA
ATOM     27  H   LIG    1       24.204 -10.772   3.924  0.00  0.00    +0.295 HD
ENDBRANCH  24  26
ENDBRANCH  23  24
ENDBRANCH   7  23
BRANCH  10  28
ATOM     28  C   LIG    1       28.781 -13.843   3.918  0.00  0.00    +0.205 C 
BRANCH  28  29
ATOM     29  C   LIG    1       28.937 -12.354   4.271  0.00  0.00    +0.319 C 
ATOM     30  O   LIG    1       29.042 -11.470   3.455  0.00  0.00    -0.250 OA
BRANCH  29  31
ATOM     31  O   LIG    1       28.952 -12.113   5.612  0.00  0.00    -0.480 OA
ATOM     32  H   LIG    1       28.255 -11.461   5.833  0.00  0.00    +0.295 HD
ENDBRANCH  29  31
ENDBRANCH  28  29
ENDBRANCH  10  28
TORSDOF 12
ENDMDL
MODEL 2
REMARK VINA RESULT:       2.6      1.030      6.019
REMARK  Name = *****
REMARK                            x       y       z     vdW  Elec       q    Type
REMARK                         _______ _______ _______ _____ _____    ______ ____
ROOT
ATOM      1  N   LIG    1       26.536 -18.262   4.318  0.00  0.00    -0.290 NA
ATOM      2  C   LIG    1       27.340 -17.198   3.652  0.00  0.00    +0.100 C 
ATOM      3  C   LIG    1       27.258 -15.835   4.384  0.00  0.00    +0.100 C 
ATOM      4  N   LIG    1       27.417 -14.669   3.460  0.00  0.00    -0.290 NA
ATOM      5  C   LIG    1       26.384 -13.643   3.823  0.00  0.00    +0.100 C 
ATOM      6  C   LIG    1       24.966 -13.973   3.265  0.00  0.00    +0.100 C 
ATOM      7  N   LIG    1       23.987 -14.554   4.223  0.00  0.00    -0.290 NA
ATOM      8  C   LIG    1       22.915 -15.233   3.466  0.00  0.00    +0.100 C 
ATOM      9  C   LIG    1       22.180 -16.380   4.209  0.00  0.00    +0.100 C 
ATOM     10  N   LIG    1       22.763 -17.730   4.003  0.00  0.00    -0.290 NA
ATOM     11  C   LIG    1       24.089 -17.822   4.695  0.00  0.00    +0.100 C 
ATOM     12  C   LIG    1       25.175 -18.298   3.707  0.00  0.00    +0.100 C 
ENDROOT
BRANCH   1  13
ATOM     13  C   LIG    1       27.260 -19.554   4.197  0.00  0.00    +0.205 C 
BRANCH  13  15
ATOM     14  O   LIG    1       28.224 -20.499   6.221  0.00  0.00    -0.250 OA
ATOM     15  C   LIG    1       27.256 -20.400   5.466  0.00  0.00    +0.319 C 
BRANCH  15  16
ATOM     16  O   LIG    1       26.097 -21.043   5.726  0.00  0.00    -0.480 OA
ATOM     17  H   LIG    1       25.303 -20.480   5.633  0.00  0.00    +0.295 HD
ENDBRANCH  15  16
ENDBRANCH  13  15
ENDBRANCH   1  13
BRANCH   4  18
ATOM     18  C   LIG    1       28.760 -14.023   3.613  0.00  0.00    +0.205 C 
BRANCH  18  19
ATOM     19  C   LIG    1       28.674 -12.574   4.086  0.00  0.00    +0.319 C 
ATOM     20  O   LIG    1       28.772 -12.223   5.249  0.00  0.00    -0.250 OA
BRANCH  19  21
ATOM     21  O   LIG    1       28.398 -11.711   3.077  0.00  0.00    -0.480 OA
ATOM     22  H   LIG    1       28.399 -12.215   2.234  0.00  0.00    +0.295 HD
ENDBRANCH  19  21
ENDBRANCH  18  19
ENDBRANCH   4  18
BRANCH   7  23
ATOM     23  C   LIG    1       23.466 -13.531   5.173  0.00  0.00    +0.205 C 
BRANCH  23  24
ATOM     24  C   LIG    1       23.837 -12.091   4.816  0.00  0.00    +0.319 C 
ATOM     25  O   LIG    1       23.563 -11.545   3.750  0.00  0.00    -0.250 OA
BRANCH  24  26
ATOM     26  O   LIG    1       24.550 -11.447   5.775  0.00  0.00    -0.480 OA
ATOM     27  H   LIG    1       24.397 -10.485   5.832  0.00  0.00    +0.295 HD
ENDBRANCH  24  26
ENDBRANCH  23  24
ENDBRANCH   7  23
BRANCH  10  28
ATOM     28  C   LIG    1       21.849 -18.758   4.597  0.00  0.00    +0.205 C 
BRANCH  28  29
ATOM     29  C   LIG    1       22.610 -19.965   5.169  0.00  0.00    +0.319 C 
ATOM     30  O   LIG    1       23.024 -20.032   6.302  0.00  0.00    -0.250 OA
BRANCH  29  31
ATOM     31  O   LIG    1       22.786 -20.973   4.269  0.00  0.00    -0.480 OA
ATOM     32  H   LIG    1       22.493 -20.672   3.384  0.00  0.00    +0.295 HD
ENDBRANCH  29  31
ENDBRANCH  28  29
ENDBRANCH  10  28
TORSDOF 12
ENDMDL
MODEL 3
REMARK VINA RESULT:       2.7      1.360      5.306
REMARK  Name = *****
REMARK                            x       y       z     vdW  Elec       q    Type
REMARK                         _______ _______ _______ _____ _____    ______ ____
ROOT
ATOM      1  N   LIG    1       23.819 -14.928   4.450  0.00  0.00    -0.290 NA
ATOM      2  C   LIG    1       23.010 -16.039   3.873  0.00  0.00    +0.100 C 
ATOM      3  C   LIG    1       23.178 -17.370   4.647  0.00  0.00    +0.100 C 
ATOM      4  N   LIG    1       23.001 -18.575   3.777  0.00  0.00    -0.290 NA
ATOM      5  C   LIG    1       24.084 -19.556   4.114  0.00  0.00    +0.100 C 
ATOM      6  C   LIG    1       25.456 -19.207   3.461  0.00  0.00    +0.100 C 
ATOM      7  N   LIG    1       26.471 -18.562   4.336  0.00  0.00    -0.290 NA
ATOM      8  C   LIG    1       27.476 -17.881   3.491  0.00  0.00    +0.100 C 
ATOM      9  C   LIG    1       28.217 -16.686   4.146  0.00  0.00    +0.100 C 
ATOM     10  N   LIG    1       27.581 -15.362   3.928  0.00  0.00    -0.290 NA
ATOM     11  C   LIG    1       26.296 -15.282   4.695  0.00  0.00    +0.100 C 
ATOM     12  C   LIG    1       25.139 -14.876   3.757  0.00  0.00    +0.100 C 
ENDROOT
BRANCH   1  13
ATOM     13  C   LIG    1       23.049 -13.663   4.326  0.00  0.00    +0.205 C 
BRANCH  13  15
ATOM     14  O   LIG    1       23.986 -11.861   2.986  0.00  0.00    -0.250 OA
ATOM     15  C   LIG    1       23.906 -12.425   4.078  0.00  0.00    +0.319 C 
BRANCH  15  16
ATOM     16  O   LIG    1       24.580 -11.967   5.154  0.00  0.00    -0.480 OA
ATOM     17  H   LIG    1       25.304 -12.555   5.447  0.00  0.00    +0.295 HD
ENDBRANCH  15  16
ENDBRANCH  13  15
ENDBRANCH   1  13
BRANCH   4  18
ATOM     18  C   LIG    1       21.690 -19.253   4.034  0.00  0.00    +0.205 C 
BRANCH  18  19
ATOM     19  C   LIG    1       21.805 -20.427   5.003  0.00  0.00    +0.319 C 
ATOM     20  O   LIG    1       22.464 -20.411   6.028  0.00  0.00    -0.250 OA
BRANCH  19  21
ATOM     21  O   LIG    1       21.154 -21.532   4.562  0.00  0.00    -0.480 OA
ATOM     22  H   LIG    1       21.759 -22.028   3.969  0.00  0.00    +0.295 HD
ENDBRANCH  19  21
ENDBRANCH  18  19
ENDBRANCH   4  18
BRANCH   7  23
ATOM     23  C   LIG    1       27.079 -19.532   5.289  0.00  0.00    +0.205 C 
BRANCH  23  24
ATOM     24  C   LIG    1       26.079 -20.491   5.937  0.00  0.00    +0.319 C 
ATOM     25  O   LIG    1       25.603 -20.347   7.060  0.00  0.00    -0.250 OA
BRANCH  24  26
ATOM     26  O   LIG    1       25.772 -21.572   5.174  0.00  0.00    -0.480 OA
ATOM     27  H   LIG    1       26.487 -22.228   5.077  0.00  0.00    +0.295 HD
ENDBRANCH  24  26
ENDBRANCH  23  24
ENDBRANCH   7  23
BRANCH  10  28
ATOM     28  C   LIG    1       28.497 -14.287   4.428  0.00  0.00    +0.205 C 
BRANCH  28  29
ATOM     29  C   LIG    1       27.995 -12.875   4.079  0.00  0.00    +0.319 C 
ATOM     30  O   LIG    1       27.467 -12.582   3.033  0.00  0.00    -0.250 OA
BRANCH  29  31
ATOM     31  O   LIG    1       28.205 -11.964   5.071  0.00  0.00    -0.480 OA
ATOM     32  H   LIG    1       29.054 -11.502   4.913  0.00  0.00    +0.295 HD
ENDBRANCH  29  31
ENDBRANCH  28  29
ENDBRANCH  10  28
TORSDOF 12
ENDMDL
MODEL 4
REMARK VINA RESULT:       2.8      1.118      6.514
REMARK  Name = *****
REMARK                            x       y       z     vdW  Elec       q    Type
REMARK                         _______ _______ _______ _____ _____    ______ ____
ROOT
ATOM      1  N   LIG    1       27.153 -15.654   4.278  0.00  0.00    -0.290 NA
ATOM      2  C   LIG    1       26.012 -14.936   3.642  0.00  0.00    +0.100 C 
ATOM      3  C   LIG    1       24.703 -15.037   4.465  0.00  0.00    +0.100 C 
ATOM      4  N   LIG    1       23.475 -14.981   3.613  0.00  0.00    -0.290 NA
ATOM      5  C   LIG    1       22.524 -16.036   4.097  0.00  0.00    +0.100 C 
ATOM      6  C   LIG    1       22.885 -17.467   3.594  0.00  0.00    +0.100 C 
ATOM      7  N   LIG    1       23.572 -18.365   4.562  0.00  0.00    -0.290 NA
ATOM      8  C   LIG    1       24.251 -19.447   3.819  0.00  0.00    +0.100 C 
ATOM      9  C   LIG    1       25.477 -20.088   4.522  0.00  0.00    +0.100 C 
ATOM     10  N   LIG    1       26.782 -19.458   4.198  0.00  0.00    -0.290 NA
ATOM     11  C   LIG    1       26.855 -18.093   4.812  0.00  0.00    +0.100 C 
ATOM     12  C   LIG    1       27.215 -17.044   3.738  0.00  0.00    +0.100 C 
ENDROOT
BRANCH   1  13
ATOM     13  C   LIG    1       28.399 -14.881   4.034  0.00  0.00    +0.205 C 
BRANCH  13  15
ATOM     14  O   LIG    1       28.733 -12.512   3.595  0.00  0.00    -0.250 OA
ATOM     15  C   LIG    1       28.284 -13.390   4.333  0.00  0.00    +0.319 C 
BRANCH  15  16
ATOM     16  O   LIG    1       27.638 -13.080   5.478  0.00  0.00    -0.480 OA
ATOM     17  H   LIG    1       27.670 -12.129   5.704  0.00  0.00    +0.295 HD
ENDBRANCH  15  16
ENDBRANCH  13  15
ENDBRANCH   1  13
BRANCH   4  18
ATOM     18  C   LIG    1       22.777 -13.661   3.737  0.00  0.00    +0.205 C 
BRANCH  18  19
ATOM     19  C   LIG    1       23.718 -12.471   3.576  0.00  0.00    +0.319 C 
ATOM     20  O   LIG    1       24.252 -12.153   2.527  0.00  0.00    -0.250 OA
BRANCH  19  21
ATOM     21  O   LIG    1       23.965 -11.838   4.749  0.00  0.00    -0.480 OA
ATOM     22  H   LIG    1       23.134 -11.408   5.047  0.00  0.00    +0.295 HD
ENDBRANCH  19  21
ENDBRANCH  18  19
ENDBRANCH   4  18
BRANCH   7  23
ATOM     23  C   LIG    1       22.637 -18.877   5.603  0.00  0.00    +0.205 C 
BRANCH  23  24
ATOM     24  C   LIG    1       22.741 -20.380   5.860  0.00  0.00    +0.319 C 
ATOM     25  O   LIG    1       23.397 -20.888   6.766  0.00  0.00    -0.250 OA
BRANCH  24  26
ATOM     26  O   LIG    1       22.068 -21.145   4.963  0.00  0.00    -0.480 OA
ATOM     27  H   LIG    1       21.859 -22.050   5.263  0.00  0.00    +0.295 HD
ENDBRANCH  24  26
ENDBRANCH  23  24
ENDBRANCH   7  23
BRANCH  10  28
ATOM     28  C   LIG    1       27.887 -20.292   4.770  0.00  0.00    +0.205 C 
BRANCH  28  29
ATOM     29  C   LIG    1       27.990 -20.168   6.300  0.00  0.00    +0.319 C 
ATOM     30  O   LIG    1       27.083 -20.402   7.062  0.00  0.00    -0.250 OA
BRANCH  29  31
ATOM     31  O   LIG    1       29.216 -19.758   6.730  0.00  0.00    -0.480 OA
ATOM     32  H   LIG    1       29.852 -19.800   5.986  0.00  0.00    +0.295 HD
ENDBRANCH  29  31
ENDBRANCH  28  29
ENDBRANCH  10  28
TORSDOF 12
ENDMDL
MODEL 5
REMARK VINA RESULT:       3.4      1.189      5.302
REMARK  Name = *****
REMARK                            x       y       z     vdW  Elec       q    Type
REMARK                         _______ _______ _______ _____ _____    ______ ____
ROOT
ATOM      1  N   LIG    1       24.089 -15.074   4.021  0.00  0.00    -0.290 NA
ATOM      2  C   LIG    1       23.338 -16.257   3.515  0.00  0.00    +0.100 C 
ATOM      3  C   LIG    1       23.361 -17.452   4.500  0.00  0.00    +0.100 C 
ATOM      4  N   LIG    1       23.272 -18.777   3.811  0.00  0.00    -0.290 NA
ATOM      5  C   LIG    1       24.273 -19.699   4.443  0.00  0.00    +0.100 C 
ATOM      6  C   LIG    1       25.730 -19.463   3.942  0.00  0.00    +0.100 C 
ATOM      7  N   LIG    1       26.633 -18.695   4.840  0.00  0.00    -0.290 NA
ATOM      8  C   LIG    1       27.761 -18.160   4.050  0.00  0.00    +0.100 C 
ATOM      9  C   LIG    1       28.438 -16.881   4.610  0.00  0.00    +0.100 C 
ATOM     10  N   LIG    1       27.874 -15.605   4.104  0.00  0.00    -0.290 NA
ATOM     11  C   LIG    1       26.499 -15.399   4.662  0.00  0.00    +0.100 C 
ATOM     12  C   LIG    1       25.493 -15.138   3.520  0.00  0.00    +0.100 C 
ENDROOT
BRANCH   1  13
ATOM     13  C   LIG    1       23.378 -13.839   3.597  0.00  0.00    +0.205 C 
BRANCH  13  15
ATOM     14  O   LIG    1       24.822 -12.471   4.998  0.00  0.00    -0.250 OA
ATOM     15  C   LIG    1       24.046 -12.542   4.044  0.00  0.00    +0.319 C 
BRANCH  15  16
ATOM     16  O   LIG    1       23.737 -11.453   3.310  0.00  0.00    -0.480 OA
ATOM     17  H   LIG    1       22.989 -10.934   3.668  0.00  0.00    +0.295 HD
ENDBRANCH  15  16
ENDBRANCH  13  15
ENDBRANCH   1  13
BRANCH   4  18
ATOM     18  C   LIG    1       21.921 -19.399   3.983  0.00  0.00    +0.205 C 
BRANCH  18  19
ATOM     19  C   LIG    1       21.904 -20.508   5.033  0.00  0.00    +0.319 C 
ATOM     20  O   LIG    1       22.549 -20.486   6.067  0.00  0.00    -0.250 OA
BRANCH  19  21
ATOM     21  O   LIG    1       21.148 -21.569   4.658  0.00  0.00    -0.480 OA
ATOM     22  H   LIG    1       20.397 -21.648   5.286  0.00  0.00    +0.295 HD
ENDBRANCH  19  21
ENDBRANCH  18  19
ENDBRANCH   4  18
BRANCH   7  23
ATOM     23  C   LIG    1       27.077 -19.508   6.007  0.00  0.00    +0.205 C 
BRANCH  23  24
ATOM     24  C   LIG    1       28.591 -19.701   6.101  0.00  0.00    +0.319 C 
ATOM     25  O   LIG    1       29.199 -20.670   5.655  0.00  0.00    -0.250 OA
BRANCH  24  26
ATOM     26  O   LIG    1       29.237 -18.711   6.770  0.00  0.00    -0.480 OA
ATOM     27  H   LIG    1       28.663 -18.114   7.286  0.00  0.00    +0.295 HD
ENDBRANCH  24  26
ENDBRANCH  23  24
ENDBRANCH   7  23
BRANCH  10  28
ATOM     28  C   LIG    1       28.741 -14.469   4.555  0.00  0.00    +0.205 C 
BRANCH  28  29
ATOM     29  C   LIG    1       28.141 -13.095   4.210  0.00  0.00    +0.319 C 
ATOM     30  O   LIG    1       27.802 -12.762   3.100  0.00  0.00    -0.250 OA
BRANCH  29  31
ATOM     31  O   LIG    1       28.028 -12.268   5.287  0.00  0.00    -0.480 OA
ATOM     32  H   LIG    1       27.290 -12.573   5.855  0.00  0.00    +0.295 HD
ENDBRANCH  29  31
ENDBRANCH  28  29
ENDBRANCH  10  28
TORSDOF 12
ENDMDL
MODEL 6
REMARK VINA RESULT:       3.6      1.175      4.998
REMARK  Name = *****
REMARK                            x       y       z     vdW  Elec       q    Type
REMARK                         _______ _______ _______ _____ _____    ______ ____
ROOT
ATOM      1  N   LIG    1       23.830 -18.299   4.358  0.00  0.00    -0.290 NA
ATOM      2  C   LIG    1       25.018 -19.183   4.187  0.00  0.00    +0.100 C 
ATOM      3  C   LIG    1       26.177 -18.826   5.151  0.00  0.00    +0.100 C 
ATOM      4  N   LIG    1       27.524 -19.151   4.586  0.00  0.00    -0.290 NA
ATOM      5  C   LIG    1       28.439 -17.998   4.872  0.00  0.00    +0.100 C 
ATOM      6  C   LIG    1       28.247 -16.802   3.891  0.00  0.00    +0.100 C 
ATOM      7  N   LIG    1       27.462 -15.642   4.394  0.00  0.00    -0.290 NA
ATOM      8  C   LIG    1       26.975 -14.852   3.243  0.00  0.00    +0.100 C 
ATOM      9  C   LIG    1       25.689 -14.019   3.486  0.00  0.00    +0.100 C 
ATOM     10  N   LIG    1       24.421 -14.718   3.154  0.00  0.00    -0.290 NA
ATOM     11  C   LIG    1       24.173 -15.817   4.143  0.00  0.00    +0.100 C 
ATOM     12  C   LIG    1       23.935 -17.153   3.407  0.00  0.00    +0.100 C 
ENDROOT
BRANCH   1  13
ATOM     13  C   LIG    1       22.600 -19.108   4.156  0.00  0.00    +0.205 C 
BRANCH  13  15
ATOM     14  O   LIG    1       23.217 -20.500   6.053  0.00  0.00    -0.250 OA
ATOM     15  C   LIG    1       22.476 -20.310   5.088  0.00  0.00    +0.319 C 
BRANCH  15  16
ATOM     16  O   LIG    1       21.476 -21.168   4.791  0.00  0.00    -0.480 OA
ATOM     17  H   LIG    1       20.679 -21.051   5.345  0.00  0.00    +0.295 HD
ENDBRANCH  15  16
ENDBRANCH  13  15
ENDBRANCH   1  13
BRANCH   4  18
ATOM     18  C   LIG    1       28.117 -20.364   5.237  0.00  0.00    +0.205 C 
BRANCH  18  19
ATOM     19  C   LIG    1       28.927 -20.033   6.488  0.00  0.00    +0.319 C 
ATOM     20  O   LIG    1       29.128 -18.903   6.898  0.00  0.00    -0.250 OA
BRANCH  19  21
ATOM     21  O   LIG    1       29.473 -21.133   7.062  0.00  0.00    -0.480 OA
ATOM     22  H   LIG    1       30.336 -21.309   6.628  0.00  0.00    +0.295 HD
ENDBRANCH  19  21
ENDBRANCH  18  19
ENDBRANCH   4  18
BRANCH   7  23
ATOM     23  C   LIG    1       28.241 -14.826   5.368  0.00  0.00    +0.205 C 
BRANCH  23  24
ATOM     24  C   LIG    1       27.999 -13.320   5.263  0.00  0.00    +0.319 C 
ATOM     25  O   LIG    1       28.724 -12.538   4.653  0.00  0.00    -0.250 OA
BRANCH  24  26
ATOM     26  O   LIG    1       26.911 -12.882   5.949  0.00  0.00    -0.480 OA
ATOM     27  H   LIG    1       26.465 -13.556   6.494  0.00  0.00    +0.295 HD
ENDBRANCH  24  26
ENDBRANCH  23  24
ENDBRANCH   7  23
BRANCH  10  28
ATOM     28  C   LIG    1       23.285 -13.745   3.235  0.00  0.00    +0.205 C 
BRANCH  28  29
ATOM     29  C   LIG    1       23.762 -12.297   3.439  0.00  0.00    +0.319 C 
ATOM     30  O   LIG    1       23.920 -11.780   4.519  0.00  0.00    -0.250 OA
BRANCH  29  31
ATOM     31  O   LIG    1       23.991 -11.632   2.272  0.00  0.00    -0.480 OA
ATOM     32  H   LIG    1       23.164 -11.196   1.979  0.00  0.00    +0.295 HD
ENDBRANCH  29  31
ENDBRANCH  28  29
ENDBRANCH  10  28
TORSDOF 12
ENDMDL
MODEL 7
REMARK VINA RESULT:       3.6      1.880      4.763
REMARK  Name = *****
REMARK                            x       y       z     vdW  Elec       q    Type
REMARK                         _______ _______ _______ _____ _____    ______ ____
ROOT
ATOM      1  N   LIG    1       22.733 -16.470   4.438  0.00  0.00    -0.290 NA
ATOM      2  C   LIG    1       23.500 -17.623   3.889  0.00  0.00    +0.100 C 
ATOM      3  C   LIG    1       24.911 -17.761   4.513  0.00  0.00    +0.100 C 
ATOM      4  N   LIG    1       25.904 -18.374   3.578  0.00  0.00    -0.290 NA
ATOM      5  C   LIG    1       27.178 -17.588   3.671  0.00  0.00    +0.100 C 
ATOM      6  C   LIG    1       27.141 -16.257   2.861  0.00  0.00    +0.100 C 
ATOM      7  N   LIG    1       26.912 -15.007   3.635  0.00  0.00    -0.290 NA
ATOM      8  C   LIG    1       26.435 -13.950   2.718  0.00  0.00    +0.100 C 
ATOM      9  C   LIG    1       25.579 -12.827   3.360  0.00  0.00    +0.100 C 
ATOM     10  N   LIG    1       24.115 -13.075   3.350  0.00  0.00    -0.290 NA
ATOM     11  C   LIG    1       23.781 -14.188   4.296  0.00  0.00    +0.100 C 
ATOM     12  C   LIG    1       22.960 -15.277   3.571  0.00  0.00    +0.100 C 
ENDROOT
BRANCH   1  13
ATOM     13  C   LIG    1       21.300 -16.851   4.535  0.00  0.00    +0.205 C 
BRANCH  13  15
ATOM     14  O   LIG    1       20.165 -18.448   3.092  0.00  0.00    -0.250 OA
ATOM     15  C   LIG    1       20.979 -18.241   3.992  0.00  0.00    +0.319 C 
BRANCH  15  16
ATOM     16  O   LIG    1       21.664 -19.254   4.564  0.00  0.00    -0.480 OA
ATOM     17  H   LIG    1       21.944 -19.947   3.934  0.00  0.00    +0.295 HD
ENDBRANCH  15  16
ENDBRANCH  13  15
ENDBRANCH   1  13
BRANCH   4  18
ATOM     18  C   LIG    1       26.223 -19.787   3.959  0.00  0.00    +0.205 C 
BRANCH  18  19
ATOM     19  C   LIG    1       25.107 -20.455   4.759  0.00  0.00    +0.319 C 
ATOM     20  O   LIG    1       25.092 -20.547   5.975  0.00  0.00    -0.250 OA
BRANCH  19  21
ATOM     21  O   LIG    1       24.159 -21.012   3.966  0.00  0.00    -0.480 OA
ATOM     22  H   LIG    1       23.304 -20.991   4.450  0.00  0.00    +0.295 HD
ENDBRANCH  19  21
ENDBRANCH  18  19
ENDBRANCH   4  18
BRANCH   7  23
ATOM     23  C   LIG    1       28.122 -14.601   4.404  0.00  0.00    +0.205 C 
BRANCH  23  24
ATOM     24  C   LIG    1       27.952 -13.317   5.216  0.00  0.00    +0.319 C 
ATOM     25  O   LIG    1       28.600 -12.289   5.039  0.00  0.00    -0.250 OA
BRANCH  24  26
ATOM     26  O   LIG    1       27.030 -13.406   6.210  0.00  0.00    -0.480 OA
ATOM     27  H   LIG    1       26.107 -13.514   5.912  0.00  0.00    +0.295 HD
ENDBRANCH  24  26
ENDBRANCH  23  24
ENDBRANCH   7  23
BRANCH  10  28
ATOM     28  C   LIG    1       23.402 -11.839   3.805  0.00  0.00    +0.205 C 
BRANCH  28  29
ATOM     29  C   LIG    1       23.601 -11.561   5.304  0.00  0.00    +0.319 C 
ATOM     30  O   LIG    1       22.698 -11.447   6.098  0.00  0.00    -0.250 OA
BRANCH  29  31
ATOM     31  O   LIG    1       24.909 -11.447   5.666  0.00  0.00    -0.480 OA
ATOM     32  H   LIG    1       25.118 -12.120   6.347  0.00  0.00    +0.295 HD
ENDBRANCH  29  31
ENDBRANCH  28  29
ENDBRANCH  10  28
TORSDOF 12
ENDMDL
MODEL 8
REMARK VINA RESULT:       3.7      1.682      5.461
REMARK  Name = *****
REMARK                            x       y       z     vdW  Elec       q    Type
REMARK                         _______ _______ _______ _____ _____    ______ ____
ROOT
ATOM      1  N   LIG    1       23.664 -14.738   4.382  0.00  0.00    -0.290 NA
ATOM      2  C   LIG    1       22.662 -15.742   3.925  0.00  0.00    +0.100 C 
ATOM      3  C   LIG    1       22.665 -17.030   4.786  0.00  0.00    +0.100 C 
ATOM      4  N   LIG    1       22.255 -18.245   4.015  0.00  0.00    -0.290 NA
ATOM      5  C   LIG    1       23.191 -19.361   4.373  0.00  0.00    +0.100 C 
ATOM      6  C   LIG    1       24.561 -19.276   3.634  0.00  0.00    +0.100 C 
ATOM      7  N   LIG    1       25.712 -18.745   4.412  0.00  0.00    -0.290 NA
ATOM      8  C   LIG    1       26.760 -18.288   3.476  0.00  0.00    +0.100 C 
ATOM      9  C   LIG    1       27.713 -17.185   4.007  0.00  0.00    +0.100 C 
ATOM     10  N   LIG    1       27.278 -15.794   3.722  0.00  0.00    -0.290 NA
ATOM     11  C   LIG    1       26.067 -15.463   4.539  0.00  0.00    +0.100 C 
ATOM     12  C   LIG    1       24.935 -14.940   3.628  0.00  0.00    +0.100 C 
ENDROOT
BRANCH   1  13
ATOM     13  C   LIG    1       23.093 -13.377   4.202  0.00  0.00    +0.205 C 
BRANCH  13  15
ATOM     14  O   LIG    1       24.782 -11.874   5.101  0.00  0.00    -0.250 OA
ATOM     15  C   LIG    1       24.132 -12.262   4.129  0.00  0.00    +0.319 C 
BRANCH  15  16
ATOM     16  O   LIG    1       24.308 -11.719   2.906  0.00  0.00    -0.480 OA
ATOM     17  H   LIG    1       24.419 -12.379   2.193  0.00  0.00    +0.295 HD
ENDBRANCH  15  16
ENDBRANCH  13  15
ENDBRANCH   1  13
BRANCH   4  18
ATOM     18  C   LIG    1       20.872 -18.690   4.381  0.00  0.00    +0.205 C 
BRANCH  18  19
ATOM     19  C   LIG    1       19.928 -18.749   3.182  0.00  0.00    +0.319 C 
ATOM     20  O   LIG    1       19.660 -17.798   2.469  0.00  0.00    -0.250 OA
BRANCH  19  21
ATOM     21  O   LIG    1       19.350 -19.967   3.033  0.00  0.00    -0.480 OA
ATOM     22  H   LIG    1       20.053 -20.650   3.098  0.00  0.00    +0.295 HD
ENDBRANCH  19  21
ENDBRANCH  18  19
ENDBRANCH   4  18
BRANCH   7  23
ATOM     23  C   LIG    1       26.216 -19.736   5.405  0.00  0.00    +0.205 C 
BRANCH  23  24
ATOM     24  C   LIG    1       27.728 -19.694   5.626  0.00  0.00    +0.319 C 
ATOM     25  O   LIG    1       28.290 -19.004   6.473  0.00  0.00    -0.250 OA
BRANCH  24  26
ATOM     26  O   LIG    1       28.437 -20.469   4.766  0.00  0.00    -0.480 OA
ATOM     27  H   LIG    1       27.955 -20.750   3.966  0.00  0.00    +0.295 HD
ENDBRANCH  24  26
ENDBRANCH  23  24
ENDBRANCH   7  23
BRANCH  10  28
ATOM     28  C   LIG    1       28.376 -14.847   4.100  0.00  0.00    +0.205 C 
BRANCH  28  29
ATOM     29  C   LIG    1       27.900 -13.385   4.157  0.00  0.00    +0.319 C 
ATOM     30  O   LIG    1       27.799 -12.744   5.176  0.00  0.00    -0.250 OA
BRANCH  29  31
ATOM     31  O   LIG    1       27.592 -12.866   2.936  0.00  0.00    -0.480 OA
ATOM     32  H   LIG    1       27.054 -12.056   3.053  0.00  0.00    +0.295 HD
ENDBRANCH  29  31
ENDBRANCH  28  29
ENDBRANCH  10  28
TORSDOF 12
ENDMDL
