MODEL 1
REMARK VINA RESULT:      -3.6      0.000      0.000
REMARK  Name = *****
REMARK                            x       y       z     vdW  Elec       q    Type
REMARK                         _______ _______ _______ _____ _____    ______ ____
ROOT
ATOM      1  C   LIG    1       23.105 -15.183   4.569  0.00  0.00    +0.058 C 
ATOM      2  C   LIG    1       24.205 -14.252   4.040  0.00  0.00    +0.220 C 
ENDROOT
BRANCH   2   3
ATOM      3  O   LIG    1       23.606 -13.406   3.032  0.00  0.00    -0.442 OA
BRANCH   3   4
ATOM      4  C   LIG    1       23.788 -12.076   3.175  0.00  0.00    +0.398 C 
ATOM      5  O   LIG    1       23.720 -11.456   4.231  0.00  0.00    -0.227 OA
ATOM      6  N   LIG    1       24.094 -11.508   2.003  0.00  0.00    -0.295 N 
ATOM      7  H   LIG    1       24.517 -10.589   2.052  0.00  0.00    +0.148 HD
ATOM      8  H   LIG    1       24.336 -12.103   1.221  0.00  0.00    +0.148 HD
ENDBRANCH   3   4
ENDBRANCH   2   3
BRANCH   2   9
ATOM      9  C   LIG    1       25.478 -15.013   3.580  0.00  0.00    +0.177 C 
BRANCH   9  10
ATOM     10  N   LIG    1       26.838 -14.317   3.918  0.00  0.00    +0.239 N 
ATOM     11  C   LIG    1       27.297 -13.411   2.788  0.00  0.00    +0.192 C 
ATOM     12  C   LIG    1       27.944 -15.317   4.247  0.00  0.00    +0.192 C 
ATOM     13  C   LIG    1       26.618 -13.466   5.176  0.00  0.00    +0.192 C 
ENDBRANCH   9  10
ENDBRANCH   2   9
TORSDOF 4
ENDMDL
MODEL 2
REMARK VINA RESULT:      -3.4      6.409      7.883
REMARK  Name = *****
REMARK                            x       y       z     vdW  Elec       q    Type
REMARK                         _______ _______ _______ _____ _____    ______ ____
ROOT
ATOM      1  C   LIG    1       25.497 -18.685   3.378  0.00  0.00    +0.058 C 
ATOM      2  C   LIG    1       25.258 -19.719   4.487  0.00  0.00    +0.220 C 
ENDROOT
BRANCH   2   3
ATOM      3  O   LIG    1       26.507 -20.414   4.705  0.00  0.00    -0.442 OA
BRANCH   3   4
ATOM      4  C   LIG    1       27.199 -20.077   5.815  0.00  0.00    +0.398 C 
ATOM      5  O   LIG    1       26.825 -20.253   6.969  0.00  0.00    -0.227 OA
ATOM      6  N   LIG    1       28.385 -19.548   5.496  0.00  0.00    -0.295 N 
ATOM      7  H   LIG    1       29.075 -19.526   6.235  0.00  0.00    +0.148 HD
ATOM      8  H   LIG    1       28.712 -19.623   4.540  0.00  0.00    +0.148 HD
ENDBRANCH   3   4
ENDBRANCH   2   3
BRANCH   2   9
ATOM      9  C   LIG    1       24.040 -20.641   4.208  0.00  0.00    +0.177 C 
BRANCH   9  10
ATOM     10  N   LIG    1       22.830 -20.473   5.187  0.00  0.00    +0.239 N 
ATOM     11  C   LIG    1       23.255 -20.658   6.634  0.00  0.00    +0.192 C 
ATOM     12  C   LIG    1       21.682 -21.427   4.870  0.00  0.00    +0.192 C 
ATOM     13  C   LIG    1       22.290 -19.049   5.009  0.00  0.00    +0.192 C 
ENDBRANCH   9  10
ENDBRANCH   2   9
TORSDOF 4
ENDMDL
MODEL 3
REMARK VINA RESULT:      -3.3      2.488      4.539
REMARK  Name = *****
REMARK                            x       y       z     vdW  Elec       q    Type
REMARK                         _______ _______ _______ _____ _____    ______ ____
ROOT
ATOM      1  C   LIG    1       27.175 -13.551   5.539  0.00  0.00    +0.058 C 
ATOM      2  C   LIG    1       26.570 -14.192   4.282  0.00  0.00    +0.220 C 
ENDROOT
BRANCH   2   3
ATOM      3  O   LIG    1       27.547 -15.117   3.756  0.00  0.00    -0.442 OA
BRANCH   3   4
ATOM      4  C   LIG    1       27.171 -16.412   3.678  0.00  0.00    +0.398 C 
ATOM      5  O   LIG    1       26.151 -16.828   3.139  0.00  0.00    -0.227 OA
ATOM      6  N   LIG    1       28.085 -17.209   4.242  0.00  0.00    -0.295 N 
ATOM      7  H   LIG    1       28.036 -18.188   3.991  0.00  0.00    +0.148 HD
ATOM      8  H   LIG    1       28.991 -16.822   4.478  0.00  0.00    +0.148 HD
ENDBRANCH   3   4
ENDBRANCH   2   3
BRANCH   2   9
ATOM      9  C   LIG    1       26.044 -13.147   3.260  0.00  0.00    +0.177 C 
BRANCH   9  10
ATOM     10  N   LIG    1       24.491 -12.958   3.229  0.00  0.00    +0.239 N 
ATOM     11  C   LIG    1       23.983 -12.748   1.813  0.00  0.00    +0.192 C 
ATOM     12  C   LIG    1       24.022 -11.804   4.112  0.00  0.00    +0.192 C 
ATOM     13  C   LIG    1       23.861 -14.236   3.796  0.00  0.00    +0.192 C 
ENDBRANCH   9  10
ENDBRANCH   2   9
TORSDOF 4
ENDMDL
MODEL 4
REMARK VINA RESULT:      -3.2      2.756      4.196
REMARK  Name = *****
REMARK                            x       y       z     vdW  Elec       q    Type
REMARK                         _______ _______ _______ _____ _____    ______ ____
ROOT
ATOM      1  C   LIG    1       26.953 -15.738   3.590  0.00  0.00    +0.058 C 
ATOM      2  C   LIG    1       27.042 -14.218   3.783  0.00  0.00    +0.220 C 
ENDROOT
BRANCH   2   3
ATOM      3  O   LIG    1       28.396 -13.913   4.186  0.00  0.00    -0.442 OA
BRANCH   3   4
ATOM      4  C   LIG    1       28.748 -12.609   4.181  0.00  0.00    +0.398 C 
ATOM      5  O   LIG    1       28.878 -11.909   3.183  0.00  0.00    -0.227 OA
ATOM      6  N   LIG    1       28.904 -12.152   5.428  0.00  0.00    -0.295 N 
ATOM      7  H   LIG    1       28.888 -11.146   5.538  0.00  0.00    +0.148 HD
ATOM      8  H   LIG    1       28.580 -12.721   6.201  0.00  0.00    +0.148 HD
ENDBRANCH   3   4
ENDBRANCH   2   3
BRANCH   2   9
ATOM      9  C   LIG    1       25.939 -13.656   4.721  0.00  0.00    +0.177 C 
BRANCH   9  10
ATOM     10  N   LIG    1       24.575 -13.320   4.033  0.00  0.00    +0.239 N 
ATOM     11  C   LIG    1       23.924 -12.097   4.656  0.00  0.00    +0.192 C 
ATOM     12  C   LIG    1       23.595 -14.489   4.068  0.00  0.00    +0.192 C 
ATOM     13  C   LIG    1       24.867 -13.026   2.556  0.00  0.00    +0.192 C 
ENDBRANCH   9  10
ENDBRANCH   2   9
TORSDOF 4
ENDMDL
MODEL 5
REMARK VINA RESULT:      -2.8      2.872      4.774
REMARK  Name = *****
REMARK                            x       y       z     vdW  Elec       q    Type
REMARK                         _______ _______ _______ _____ _____    ______ ____
ROOT
ATOM      1  C   LIG    1       27.691 -16.104   4.097  0.00  0.00    +0.058 C 
ATOM      2  C   LIG    1       26.233 -16.085   3.620  0.00  0.00    +0.220 C 
ENDROOT
BRANCH   2   3
ATOM      3  O   LIG    1       26.009 -17.299   2.868  0.00  0.00    -0.442 OA
BRANCH   3   4
ATOM      4  C   LIG    1       25.291 -18.265   3.481  0.00  0.00    +0.398 C 
ATOM      5  O   LIG    1       24.073 -18.269   3.620  0.00  0.00    -0.227 OA
ATOM      6  N   LIG    1       26.085 -19.258   3.896  0.00  0.00    -0.295 N 
ATOM      7  H   LIG    1       25.626 -20.135   4.107  0.00  0.00    +0.148 HD
ATOM      8  H   LIG    1       27.042 -19.288   3.567  0.00  0.00    +0.148 HD
ENDBRANCH   3   4
ENDBRANCH   2   3
BRANCH   2   9
ATOM      9  C   LIG    1       25.853 -14.777   2.874  0.00  0.00    +0.177 C 
BRANCH   9  10
ATOM     10  N   LIG    1       24.851 -13.839   3.626  0.00  0.00    +0.239 N 
ATOM     11  C   LIG    1       23.676 -14.619   4.193  0.00  0.00    +0.192 C 
ATOM     12  C   LIG    1       24.330 -12.708   2.744  0.00  0.00    +0.192 C 
ATOM     13  C   LIG    1       25.615 -13.186   4.785  0.00  0.00    +0.192 C 
ENDBRANCH   9  10
ENDBRANCH   2   9
TORSDOF 4
ENDMDL
MODEL 6
REMARK VINA RESULT:      -2.8      2.879      4.765
REMARK  Name = *****
REMARK                            x       y       z     vdW  Elec       q    Type
REMARK                         _______ _______ _______ _____ _____    ______ ____
ROOT
ATOM      1  C   LIG    1       27.711 -16.049   4.082  0.00  0.00    +0.058 C 
ATOM      2  C   LIG    1       26.244 -16.084   3.631  0.00  0.00    +0.220 C 
ENDROOT
BRANCH   2   3
ATOM      3  O   LIG    1       26.051 -17.308   2.885  0.00  0.00    -0.442 OA
BRANCH   3   4
ATOM      4  C   LIG    1       25.311 -18.267   3.482  0.00  0.00    +0.398 C 
ATOM      5  O   LIG    1       24.091 -18.254   3.606  0.00  0.00    -0.227 OA
ATOM      6  N   LIG    1       26.085 -19.275   3.899  0.00  0.00    -0.295 N 
ATOM      7  H   LIG    1       25.610 -20.147   4.097  0.00  0.00    +0.148 HD
ATOM      8  H   LIG    1       27.045 -19.317   3.581  0.00  0.00    +0.148 HD
ENDBRANCH   3   4
ENDBRANCH   2   3
BRANCH   2   9
ATOM      9  C   LIG    1       25.804 -14.792   2.890  0.00  0.00    +0.177 C 
BRANCH   9  10
ATOM     10  N   LIG    1       24.837 -13.854   3.687  0.00  0.00    +0.239 N 
ATOM     11  C   LIG    1       25.555 -13.158   4.831  0.00  0.00    +0.192 C 
ATOM     12  C   LIG    1       23.616 -14.593   4.229  0.00  0.00    +0.192 C 
ATOM     13  C   LIG    1       24.319 -12.792   2.710  0.00  0.00    +0.192 C 
ENDBRANCH   9  10
ENDBRANCH   2   9
TORSDOF 4
ENDMDL
MODEL 7
REMARK VINA RESULT:      -2.5      1.956      3.113
REMARK  Name = *****
REMARK                            x       y       z     vdW  Elec       q    Type
REMARK                         _______ _______ _______ _____ _____    ______ ____
ROOT
ATOM      1  C   LIG    1       23.983 -11.996   3.844  0.00  0.00    +0.058 C 
ATOM      2  C   LIG    1       24.601 -13.385   4.060  0.00  0.00    +0.220 C 
ENDROOT
BRANCH   2   3
ATOM      3  O   LIG    1       23.642 -14.173   4.802  0.00  0.00    -0.442 OA
BRANCH   3   4
ATOM      4  C   LIG    1       23.495 -15.460   4.421  0.00  0.00    +0.398 C 
ATOM      5  O   LIG    1       24.313 -16.112   3.781  0.00  0.00    -0.227 OA
ATOM      6  N   LIG    1       22.338 -15.960   4.868  0.00  0.00    -0.295 N 
ATOM      7  H   LIG    1       22.266 -16.970   4.879  0.00  0.00    +0.148 HD
ATOM      8  H   LIG    1       21.814 -15.438   5.559  0.00  0.00    +0.148 HD
ENDBRANCH   3   4
ENDBRANCH   2   3
BRANCH   2   9
ATOM      9  C   LIG    1       26.022 -13.330   4.683  0.00  0.00    +0.177 C 
BRANCH   9  10
ATOM     10  N   LIG    1       27.174 -13.888   3.784  0.00  0.00    +0.239 N 
ATOM     11  C   LIG    1       27.516 -15.324   4.143  0.00  0.00    +0.192 C 
ATOM     12  C   LIG    1       28.438 -13.034   3.851  0.00  0.00    +0.192 C 
ATOM     13  C   LIG    1       26.684 -13.845   2.331  0.00  0.00    +0.192 C 
ENDBRANCH   9  10
ENDBRANCH   2   9
TORSDOF 4
ENDMDL
MODEL 8
REMARK VINA RESULT:      -2.4      1.791      2.825
REMARK  Name = *****
REMARK                            x       y       z     vdW  Elec       q    Type
REMARK                         _______ _______ _______ _____ _____    ______ ____
ROOT
ATOM      1  C   LIG    1       24.226 -12.596   1.812  0.00  0.00    +0.058 C 
ATOM      2  C   LIG    1       25.087 -13.341   2.842  0.00  0.00    +0.220 C 
ENDROOT
BRANCH   2   3
ATOM      3  O   LIG    1       24.276 -13.539   4.022  0.00  0.00    -0.442 OA
BRANCH   3   4
ATOM      4  C   LIG    1       23.827 -14.793   4.241  0.00  0.00    +0.398 C 
ATOM      5  O   LIG    1       22.796 -15.089   4.835  0.00  0.00    -0.227 OA
ATOM      6  N   LIG    1       24.644 -15.695   3.687  0.00  0.00    -0.295 N 
ATOM      7  H   LIG    1       24.258 -16.621   3.553  0.00  0.00    +0.148 HD
ATOM      8  H   LIG    1       25.355 -15.378   3.040  0.00  0.00    +0.148 HD
ENDBRANCH   3   4
ENDBRANCH   2   3
BRANCH   2   9
ATOM      9  C   LIG    1       26.457 -12.655   3.100  0.00  0.00    +0.177 C 
BRANCH   9  10
ATOM     10  N   LIG    1       27.405 -13.397   4.099  0.00  0.00    +0.239 N 
ATOM     11  C   LIG    1       27.600 -14.852   3.705  0.00  0.00    +0.192 C 
ATOM     12  C   LIG    1       26.911 -13.325   5.541  0.00  0.00    +0.192 C 
ATOM     13  C   LIG    1       28.764 -12.687   4.056  0.00  0.00    +0.192 C 
ENDBRANCH   9  10
ENDBRANCH   2   9
TORSDOF 4
ENDMDL
MODEL 9
REMARK VINA RESULT:      -2.3      6.685      8.111
REMARK  Name = *****
REMARK                            x       y       z     vdW  Elec       q    Type
REMARK                         _______ _______ _______ _____ _____    ______ ____
ROOT
ATOM      1  C   LIG    1       24.925 -21.050   7.059  0.00  0.00    +0.058 C 
ATOM      2  C   LIG    1       26.077 -20.769   6.084  0.00  0.00    +0.220 C 
ENDROOT
BRANCH   2   3
ATOM      3  O   LIG    1       27.127 -20.118   6.833  0.00  0.00    -0.442 OA
BRANCH   3   4
ATOM      4  C   LIG    1       28.358 -20.126   6.278  0.00  0.00    +0.398 C 
ATOM      5  O   LIG    1       28.869 -19.199   5.660  0.00  0.00    -0.227 OA
ATOM      6  N   LIG    1       28.983 -21.283   6.521  0.00  0.00    -0.295 N 
ATOM      7  H   LIG    1       29.987 -21.281   6.396  0.00  0.00    +0.148 HD
ATOM      8  H   LIG    1       28.590 -21.916   7.208  0.00  0.00    +0.148 HD
ENDBRANCH   3   4
ENDBRANCH   2   3
BRANCH   2   9
ATOM      9  C   LIG    1       25.622 -20.012   4.806  0.00  0.00    +0.177 C 
BRANCH   9  10
ATOM     10  N   LIG    1       24.106 -20.151   4.443  0.00  0.00    +0.239 N 
ATOM     11  C   LIG    1       23.246 -20.282   5.688  0.00  0.00    +0.192 C 
ATOM     12  C   LIG    1       23.831 -21.328   3.511  0.00  0.00    +0.192 C 
ATOM     13  C   LIG    1       23.696 -18.880   3.690  0.00  0.00    +0.192 C 
ENDBRANCH   9  10
ENDBRANCH   2   9
TORSDOF 4
ENDMDL
