MODEL 1
REMARK VINA RESULT:      -7.8      0.000      0.000
REMARK  Name = *****
REMARK                            x       y       z     vdW  Elec       q    Type
REMARK                         _______ _______ _______ _____ _____    ______ ____
ROOT
ATOM      1  C   LIG    1       27.019 -21.319   6.364  0.00  0.00    -0.000 C 
ATOM      2  C   LIG    1       25.673 -21.465   6.508  0.00  0.00    -0.066 C 
ATOM      3  C   LIG    1       24.703 -21.438   5.310  0.00  0.00    +0.021 C 
ATOM      4  C   LIG    1       25.155 -20.806   3.985  0.00  0.00    +0.009 C 
ATOM      5  C   LIG    1       23.856 -20.480   3.260  0.00  0.00    +0.007 C 
ATOM      6  C   LIG    1       22.947 -19.888   4.348  0.00  0.00    +0.024 C 
ATOM      7  C   LIG    1       23.269 -20.831   5.575  0.00  0.00    -0.020 C 
ATOM      8  C   LIG    1       22.252 -22.017   5.551  0.00  0.00    +0.012 C 
ATOM      9  C   LIG    1       23.169 -20.150   6.946  0.00  0.00    +0.008 C 
ATOM     10  C   LIG    1       23.647 -21.051   8.084  0.00  0.00    +0.005 C 
ATOM     11  C   LIG    1       24.957 -21.817   7.804  0.00  0.00    +0.031 C 
ENDROOT
BRANCH   1  19
ATOM     12  C   LIG    1       30.511 -22.167   8.991  0.00  0.00    +0.015 C 
ATOM     13  C   LIG    1       30.320 -20.948   8.417  0.00  0.00    -0.023 C 
ATOM     14  C   LIG    1       31.203 -19.760   8.801  0.00  0.00    +0.147 C 
ATOM     15  C   LIG    1       31.704 -18.965   7.597  0.00  0.00    +0.067 C 
ATOM     16  C   LIG    1       30.554 -18.594   6.677  0.00  0.00    +0.122 C 
ATOM     17  C   LIG    1       29.779 -19.846   6.228  0.00  0.00    +0.067 C 
ATOM     18  C   LIG    1       29.295 -20.752   7.359  0.00  0.00    -0.040 C 
ATOM     19  C   LIG    1       28.086 -21.382   7.374  0.00  0.00    +0.004 C 
BRANCH  14  20
ATOM     20  O   LIG    1       32.360 -20.166   9.547  0.00  0.00    -0.387 OA
ATOM     21  H   LIG    1       32.665 -19.389  10.047  0.00  0.00    +0.210 HD
ENDBRANCH  14  20
BRANCH  16  22
ATOM     22  O   LIG    1       29.705 -17.635   7.306  0.00  0.00    -0.391 OA
ATOM     23  H   LIG    1       30.131 -17.333   8.128  0.00  0.00    +0.210 HD
ENDBRANCH  16  22
ENDBRANCH   1  19
BRANCH   6  24
ATOM     24  C   LIG    1       23.128 -18.337   4.511  0.00  0.00    +0.119 C 
ATOM     25  C   LIG    1       21.783 -17.607   4.309  0.00  0.00    +0.038 C 
BRANCH  24  26
ATOM     26  O   LIG    1       24.127 -17.839   3.604  0.00  0.00    -0.376 OA
BRANCH  26  27
ATOM     27  C   LIG    1       24.530 -16.488   3.845  0.00  0.00    +0.163 C 
BRANCH  27  28
ATOM     28  C   LIG    1       25.948 -16.240   3.316  0.00  0.00    +0.062 C 
BRANCH  28  29
ATOM     29  C   LIG    1       26.386 -14.768   3.235  0.00  0.00    +0.063 C 
ATOM     30  C   LIG    1       27.667 -14.478   4.014  0.00  0.00    +0.041 C 
ATOM     31  C   LIG    1       25.262 -13.850   3.725  0.00  0.00    +0.041 C 
BRANCH  29  32
ATOM     32  O   LIG    1       26.612 -14.414   1.883  0.00  0.00    -0.389 OA
ATOM     33  H   LIG    1       26.441 -15.203   1.329  0.00  0.00    +0.210 HD
ENDBRANCH  29  32
ENDBRANCH  28  29
ENDBRANCH  27  28
ENDBRANCH  26  27
ENDBRANCH  24  26
ENDBRANCH   6  24
TORSDOF 9
ENDMDL
MODEL 2
REMARK VINA RESULT:      -7.0      9.384     12.361
REMARK  Name = *****
REMARK                            x       y       z     vdW  Elec       q    Type
REMARK                         _______ _______ _______ _____ _____    ______ ____
ROOT
ATOM      1  C   LIG    1       22.737 -29.969  11.766  0.00  0.00    -0.000 C 
ATOM      2  C   LIG    1       23.368 -30.838  10.929  0.00  0.00    -0.066 C 
ATOM      3  C   LIG    1       24.749 -30.540  10.311  0.00  0.00    +0.021 C 
ATOM      4  C   LIG    1       25.256 -29.091  10.255  0.00  0.00    +0.009 C 
ATOM      5  C   LIG    1       26.319 -29.106   9.165  0.00  0.00    +0.007 C 
ATOM      6  C   LIG    1       25.706 -29.956   8.042  0.00  0.00    +0.024 C 
ATOM      7  C   LIG    1       25.015 -31.115   8.865  0.00  0.00    -0.020 C 
ATOM      8  C   LIG    1       26.044 -32.282   9.012  0.00  0.00    +0.012 C 
ATOM      9  C   LIG    1       23.744 -31.685   8.221  0.00  0.00    +0.008 C 
ATOM     10  C   LIG    1       23.024 -32.681   9.128  0.00  0.00    +0.005 C 
ATOM     11  C   LIG    1       22.898 -32.249  10.604  0.00  0.00    +0.031 C 
ENDROOT
BRANCH   1  19
ATOM     12  C   LIG    1       19.350 -30.740  14.550  0.00  0.00    +0.015 C 
ATOM     13  C   LIG    1       19.594 -29.504  14.037  0.00  0.00    -0.023 C 
ATOM     14  C   LIG    1       18.601 -28.361  14.252  0.00  0.00    +0.147 C 
ATOM     15  C   LIG    1       19.265 -27.052  14.673  0.00  0.00    +0.067 C 
ATOM     16  C   LIG    1       20.404 -26.697  13.733  0.00  0.00    +0.122 C 
ATOM     17  C   LIG    1       21.434 -27.839  13.656  0.00  0.00    +0.067 C 
ATOM     18  C   LIG    1       20.858 -29.211  13.311  0.00  0.00    -0.040 C 
ATOM     19  C   LIG    1       21.464 -30.114  12.488  0.00  0.00    +0.004 C 
BRANCH  14  20
ATOM     20  O   LIG    1       17.624 -28.677  15.255  0.00  0.00    -0.387 OA
ATOM     21  H   LIG    1       17.343 -27.836  15.656  0.00  0.00    +0.210 HD
ENDBRANCH  14  20
BRANCH  16  22
ATOM     22  O   LIG    1       19.895 -26.345  12.448  0.00  0.00    -0.391 OA
ATOM     23  H   LIG    1       19.081 -25.824  12.567  0.00  0.00    +0.210 HD
ENDBRANCH  16  22
ENDBRANCH   1  19
BRANCH   6  24
ATOM     24  C   LIG    1       24.840 -29.108   7.044  0.00  0.00    +0.119 C 
ATOM     25  C   LIG    1       24.909 -29.703   5.621  0.00  0.00    +0.038 C 
BRANCH  24  26
ATOM     26  O   LIG    1       25.253 -27.732   7.048  0.00  0.00    -0.376 OA
BRANCH  26  27
ATOM     27  C   LIG    1       24.516 -26.885   6.160  0.00  0.00    +0.163 C 
BRANCH  27  28
ATOM     28  C   LIG    1       25.398 -25.744   5.638  0.00  0.00    +0.062 C 
BRANCH  28  29
ATOM     29  C   LIG    1       24.954 -24.324   6.023  0.00  0.00    +0.063 C 
ATOM     30  C   LIG    1       25.911 -23.638   6.995  0.00  0.00    +0.041 C 
ATOM     31  C   LIG    1       23.542 -24.349   6.615  0.00  0.00    +0.041 C 
BRANCH  29  32
ATOM     32  O   LIG    1       24.870 -23.521   4.859  0.00  0.00    -0.389 OA
ATOM     33  H   LIG    1       25.708 -23.022   4.773  0.00  0.00    +0.210 HD
ENDBRANCH  29  32
ENDBRANCH  28  29
ENDBRANCH  27  28
ENDBRANCH  26  27
ENDBRANCH  24  26
ENDBRANCH   6  24
TORSDOF 9
ENDMDL
MODEL 3
REMARK VINA RESULT:      -6.9      8.679     11.251
REMARK  Name = *****
REMARK                            x       y       z     vdW  Elec       q    Type
REMARK                         _______ _______ _______ _____ _____    ______ ____
ROOT
ATOM      1  C   LIG    1       26.672 -29.013  10.680  0.00  0.00    -0.000 C 
ATOM      2  C   LIG    1       25.655 -29.908  10.550  0.00  0.00    -0.066 C 
ATOM      3  C   LIG    1       25.808 -31.233   9.776  0.00  0.00    +0.021 C 
ATOM      4  C   LIG    1       26.949 -31.386   8.758  0.00  0.00    +0.009 C 
ATOM      5  C   LIG    1       26.496 -32.522   7.851  0.00  0.00    +0.007 C 
ATOM      6  C   LIG    1       25.008 -32.238   7.595  0.00  0.00    +0.024 C 
ATOM      7  C   LIG    1       24.526 -31.764   9.024  0.00  0.00    -0.020 C 
ATOM      8  C   LIG    1       24.019 -33.021   9.802  0.00  0.00    +0.012 C 
ATOM      9  C   LIG    1       23.391 -30.732   9.004  0.00  0.00    +0.008 C 
ATOM     10  C   LIG    1       23.075 -30.183  10.394  0.00  0.00    +0.005 C 
ATOM     11  C   LIG    1       24.306 -29.818  11.249  0.00  0.00    +0.031 C 
ENDROOT
BRANCH   1  19
ATOM     12  C   LIG    1       26.018 -25.310  13.061  0.00  0.00    +0.015 C 
ATOM     13  C   LIG    1       26.960 -26.229  13.403  0.00  0.00    -0.023 C 
ATOM     14  C   LIG    1       27.964 -25.937  14.520  0.00  0.00    +0.147 C 
ATOM     15  C   LIG    1       28.137 -27.098  15.497  0.00  0.00    +0.067 C 
ATOM     16  C   LIG    1       28.416 -28.393  14.754  0.00  0.00    +0.122 C 
ATOM     17  C   LIG    1       27.305 -28.694  13.730  0.00  0.00    +0.067 C 
ATOM     18  C   LIG    1       27.003 -27.562  12.749  0.00  0.00    -0.040 C 
ATOM     19  C   LIG    1       26.723 -27.748  11.427  0.00  0.00    +0.004 C 
BRANCH  14  20
ATOM     20  O   LIG    1       27.590 -24.789  15.295  0.00  0.00    -0.387 OA
ATOM     21  H   LIG    1       27.237 -25.117  16.141  0.00  0.00    +0.210 HD
ENDBRANCH  14  20
BRANCH  16  22
ATOM     22  O   LIG    1       29.706 -28.350  14.149  0.00  0.00    -0.391 OA
ATOM     23  H   LIG    1       30.136 -27.511  14.391  0.00  0.00    +0.210 HD
ENDBRANCH  16  22
ENDBRANCH   1  19
BRANCH   6  24
ATOM     24  C   LIG    1       24.776 -31.296   6.360  0.00  0.00    +0.119 C 
ATOM     25  C   LIG    1       25.091 -32.035   5.043  0.00  0.00    +0.038 C 
BRANCH  24  26
ATOM     26  O   LIG    1       25.557 -30.095   6.478  0.00  0.00    -0.376 OA
BRANCH  26  27
ATOM     27  C   LIG    1       24.853 -28.892   6.155  0.00  0.00    +0.163 C 
BRANCH  27  28
ATOM     28  C   LIG    1       25.445 -27.695   6.911  0.00  0.00    +0.062 C 
BRANCH  28  29
ATOM     29  C   LIG    1       26.007 -26.562   6.037  0.00  0.00    +0.063 C 
ATOM     30  C   LIG    1       25.873 -25.184   6.680  0.00  0.00    +0.041 C 
ATOM     31  C   LIG    1       25.329 -26.562   4.663  0.00  0.00    +0.041 C 
BRANCH  29  32
ATOM     32  O   LIG    1       27.382 -26.792   5.789  0.00  0.00    -0.389 OA
ATOM     33  H   LIG    1       27.455 -27.469   5.085  0.00  0.00    +0.210 HD
ENDBRANCH  29  32
ENDBRANCH  28  29
ENDBRANCH  27  28
ENDBRANCH  26  27
ENDBRANCH  24  26
ENDBRANCH   6  24
TORSDOF 9
ENDMDL
MODEL 4
REMARK VINA RESULT:      -6.8     10.430     13.255
REMARK  Name = *****
REMARK                            x       y       z     vdW  Elec       q    Type
REMARK                         _______ _______ _______ _____ _____    ______ ____
ROOT
ATOM      1  C   LIG    1       25.293 -31.291  10.568  0.00  0.00    -0.000 C 
ATOM      2  C   LIG    1       26.030 -30.404  11.290  0.00  0.00    -0.066 C 
ATOM      3  C   LIG    1       25.745 -30.102  12.774  0.00  0.00    +0.021 C 
ATOM      4  C   LIG    1       24.367 -30.442  13.364  0.00  0.00    +0.009 C 
ATOM      5  C   LIG    1       24.261 -29.566  14.606  0.00  0.00    +0.007 C 
ATOM      6  C   LIG    1       24.808 -28.201  14.160  0.00  0.00    +0.024 C 
ATOM      7  C   LIG    1       26.040 -28.631  13.266  0.00  0.00    -0.020 C 
ATOM      8  C   LIG    1       27.302 -28.693  14.184  0.00  0.00    +0.012 C 
ATOM      9  C   LIG    1       26.347 -27.678  12.104  0.00  0.00    +0.008 C 
ATOM     10  C   LIG    1       27.434 -28.219  11.176  0.00  0.00    +0.005 C 
ATOM     11  C   LIG    1       27.297 -29.711  10.808  0.00  0.00    +0.031 C 
ENDROOT
BRANCH   1  19
ATOM     12  C   LIG    1       25.086 -33.061   6.488  0.00  0.00    +0.015 C 
ATOM     13  C   LIG    1       25.220 -31.722   6.687  0.00  0.00    -0.023 C 
ATOM     14  C   LIG    1       25.492 -30.783   5.510  0.00  0.00    +0.147 C 
ATOM     15  C   LIG    1       24.620 -29.529   5.522  0.00  0.00    +0.067 C 
ATOM     16  C   LIG    1       24.682 -28.840   6.874  0.00  0.00    +0.122 C 
ATOM     17  C   LIG    1       24.278 -29.804   8.005  0.00  0.00    +0.067 C 
ATOM     18  C   LIG    1       25.044 -31.126   8.037  0.00  0.00    -0.040 C 
ATOM     19  C   LIG    1       25.461 -31.744   9.179  0.00  0.00    +0.004 C 
BRANCH  14  20
ATOM     20  O   LIG    1       25.282 -31.428   4.245  0.00  0.00    -0.387 OA
ATOM     21  H   LIG    1       25.972 -31.105   3.641  0.00  0.00    +0.210 HD
ENDBRANCH  14  20
BRANCH  16  22
ATOM     22  O   LIG    1       25.975 -28.277   7.085  0.00  0.00    -0.391 OA
ATOM     23  H   LIG    1       25.999 -27.390   6.682  0.00  0.00    +0.210 HD
ENDBRANCH  16  22
ENDBRANCH   1  19
BRANCH   6  24
ATOM     24  C   LIG    1       23.700 -27.278  13.538  0.00  0.00    +0.119 C 
ATOM     25  C   LIG    1       23.988 -25.795  13.851  0.00  0.00    +0.038 C 
BRANCH  24  26
ATOM     26  O   LIG    1       22.395 -27.661  14.003  0.00  0.00    -0.376 OA
BRANCH  26  27
ATOM     27  C   LIG    1       21.410 -27.791  12.972  0.00  0.00    +0.163 C 
BRANCH  27  28
ATOM     28  C   LIG    1       20.349 -26.689  13.090  0.00  0.00    +0.062 C 
BRANCH  28  29
ATOM     29  C   LIG    1       19.335 -26.854  14.234  0.00  0.00    +0.063 C 
ATOM     30  C   LIG    1       18.971 -28.311  14.508  0.00  0.00    +0.041 C 
ATOM     31  C   LIG    1       18.067 -26.047  13.942  0.00  0.00    +0.041 C 
BRANCH  29  32
ATOM     32  O   LIG    1       19.872 -26.311  15.426  0.00  0.00    -0.389 OA
ATOM     33  H   LIG    1       19.138 -26.191  16.064  0.00  0.00    +0.210 HD
ENDBRANCH  29  32
ENDBRANCH  28  29
ENDBRANCH  27  28
ENDBRANCH  26  27
ENDBRANCH  24  26
ENDBRANCH   6  24
TORSDOF 9
ENDMDL
MODEL 5
REMARK VINA RESULT:      -6.7      9.945     13.050
REMARK  Name = *****
REMARK                            x       y       z     vdW  Elec       q    Type
REMARK                         _______ _______ _______ _____ _____    ______ ____
ROOT
ATOM      1  C   LIG    1       22.962 -30.023  11.848  0.00  0.00    -0.000 C 
ATOM      2  C   LIG    1       23.627 -30.867  11.011  0.00  0.00    -0.066 C 
ATOM      3  C   LIG    1       24.966 -30.491  10.346  0.00  0.00    +0.021 C 
ATOM      4  C   LIG    1       25.371 -29.013  10.243  0.00  0.00    +0.009 C 
ATOM      5  C   LIG    1       26.402 -28.981   9.123  0.00  0.00    +0.007 C 
ATOM      6  C   LIG    1       25.817 -29.897   8.037  0.00  0.00    +0.024 C 
ATOM      7  C   LIG    1       25.231 -31.081   8.906  0.00  0.00    -0.020 C 
ATOM      8  C   LIG    1       26.340 -32.171   9.047  0.00  0.00    +0.012 C 
ATOM      9  C   LIG    1       23.984 -31.750   8.312  0.00  0.00    +0.008 C 
ATOM     10  C   LIG    1       23.359 -32.771   9.262  0.00  0.00    +0.005 C 
ATOM     11  C   LIG    1       23.246 -32.313  10.731  0.00  0.00    +0.031 C 
ENDROOT
BRANCH   1  19
ATOM     12  C   LIG    1       19.137 -29.846  14.117  0.00  0.00    +0.015 C 
ATOM     13  C   LIG    1       19.281 -30.620  13.008  0.00  0.00    -0.023 C 
ATOM     14  C   LIG    1       18.188 -31.609  12.600  0.00  0.00    +0.147 C 
ATOM     15  C   LIG    1       17.852 -31.559  11.110  0.00  0.00    +0.067 C 
ATOM     16  C   LIG    1       19.112 -31.666  10.268  0.00  0.00    +0.122 C 
ATOM     17  C   LIG    1       20.123 -30.567  10.644  0.00  0.00    +0.067 C 
ATOM     18  C   LIG    1       20.472 -30.485  12.129  0.00  0.00    -0.040 C 
ATOM     19  C   LIG    1       21.723 -30.237  12.611  0.00  0.00    +0.004 C 
BRANCH  14  20
ATOM     20  O   LIG    1       16.963 -31.383  13.313  0.00  0.00    -0.387 OA
ATOM     21  H   LIG    1       16.629 -30.511  13.041  0.00  0.00    +0.210 HD
ENDBRANCH  14  20
BRANCH  16  22
ATOM     22  O   LIG    1       19.673 -32.973  10.379  0.00  0.00    -0.391 OA
ATOM     23  H   LIG    1       19.141 -33.488  11.012  0.00  0.00    +0.210 HD
ENDBRANCH  16  22
ENDBRANCH   1  19
BRANCH   6  24
ATOM     24  C   LIG    1       24.867 -29.134   7.047  0.00  0.00    +0.119 C 
ATOM     25  C   LIG    1       24.929 -29.762   5.639  0.00  0.00    +0.038 C 
BRANCH  24  26
ATOM     26  O   LIG    1       25.190 -27.734   7.003  0.00  0.00    -0.376 OA
BRANCH  26  27
ATOM     27  C   LIG    1       24.551 -27.008   5.949  0.00  0.00    +0.163 C 
BRANCH  27  28
ATOM     28  C   LIG    1       25.422 -25.829   5.494  0.00  0.00    +0.062 C 
BRANCH  28  29
ATOM     29  C   LIG    1       24.973 -24.439   5.974  0.00  0.00    +0.063 C 
ATOM     30  C   LIG    1       25.931 -23.815   6.986  0.00  0.00    +0.041 C 
ATOM     31  C   LIG    1       23.563 -24.511   6.569  0.00  0.00    +0.041 C 
BRANCH  29  32
ATOM     32  O   LIG    1       24.881 -23.562   4.867  0.00  0.00    -0.389 OA
ATOM     33  H   LIG    1       24.686 -22.664   5.206  0.00  0.00    +0.210 HD
ENDBRANCH  29  32
ENDBRANCH  28  29
ENDBRANCH  27  28
ENDBRANCH  26  27
ENDBRANCH  24  26
ENDBRANCH   6  24
TORSDOF 9
ENDMDL
MODEL 6
REMARK VINA RESULT:      -6.7      4.551      6.832
REMARK  Name = *****
REMARK                            x       y       z     vdW  Elec       q    Type
REMARK                         _______ _______ _______ _____ _____    ______ ____
ROOT
ATOM      1  C   LIG    1       25.282 -24.359   5.508  0.00  0.00    -0.000 C 
ATOM      2  C   LIG    1       24.429 -23.358   5.858  0.00  0.00    -0.066 C 
ATOM      3  C   LIG    1       23.902 -22.323   4.843  0.00  0.00    +0.021 C 
ATOM      4  C   LIG    1       24.654 -22.110   3.521  0.00  0.00    +0.009 C 
ATOM      5  C   LIG    1       24.207 -20.732   3.050  0.00  0.00    +0.007 C 
ATOM      6  C   LIG    1       24.228 -19.868   4.320  0.00  0.00    +0.024 C 
ATOM      7  C   LIG    1       23.634 -20.868   5.392  0.00  0.00    -0.020 C 
ATOM      8  C   LIG    1       22.086 -20.664   5.434  0.00  0.00    +0.012 C 
ATOM      9  C   LIG    1       24.175 -20.672   6.814  0.00  0.00    +0.008 C 
ATOM     10  C   LIG    1       23.701 -21.761   7.776  0.00  0.00    +0.005 C 
ATOM     11  C   LIG    1       23.767 -23.199   7.219  0.00  0.00    +0.031 C 
ENDROOT
BRANCH   1  19
ATOM     12  C   LIG    1       26.528 -27.323   8.587  0.00  0.00    +0.015 C 
ATOM     13  C   LIG    1       25.911 -27.698   7.434  0.00  0.00    -0.023 C 
ATOM     14  C   LIG    1       25.786 -29.176   7.062  0.00  0.00    +0.147 C 
ATOM     15  C   LIG    1       24.390 -29.562   6.578  0.00  0.00    +0.067 C 
ATOM     16  C   LIG    1       23.917 -28.620   5.485  0.00  0.00    +0.122 C 
ATOM     17  C   LIG    1       23.951 -27.157   5.963  0.00  0.00    +0.067 C 
ATOM     18  C   LIG    1       25.288 -26.691   6.536  0.00  0.00    -0.040 C 
ATOM     19  C   LIG    1       25.828 -25.457   6.319  0.00  0.00    +0.004 C 
BRANCH  14  20
ATOM     20  O   LIG    1       26.100 -30.038   8.166  0.00  0.00    -0.387 OA
ATOM     21  H   LIG    1       26.274 -30.922   7.799  0.00  0.00    +0.210 HD
ENDBRANCH  14  20
BRANCH  16  22
ATOM     22  O   LIG    1       24.683 -28.815   4.297  0.00  0.00    -0.391 OA
ATOM     23  H   LIG    1       25.159 -27.990   4.095  0.00  0.00    +0.210 HD
ENDBRANCH  16  22
ENDBRANCH   1  19
BRANCH   6  24
ATOM     24  C   LIG    1       25.630 -19.212   4.584  0.00  0.00    +0.119 C 
ATOM     25  C   LIG    1       26.056 -18.335   3.387  0.00  0.00    +0.038 C 
BRANCH  24  26
ATOM     26  O   LIG    1       26.620 -20.215   4.867  0.00  0.00    -0.376 OA
BRANCH  26  27
ATOM     27  C   LIG    1       27.803 -19.722   5.504  0.00  0.00    +0.163 C 
BRANCH  27  28
ATOM     28  C   LIG    1       28.094 -20.503   6.792  0.00  0.00    +0.062 C 
BRANCH  28  29
ATOM     29  C   LIG    1       29.361 -20.086   7.557  0.00  0.00    +0.063 C 
ATOM     30  C   LIG    1       30.370 -19.341   6.687  0.00  0.00    +0.041 C 
ATOM     31  C   LIG    1       30.027 -21.310   8.193  0.00  0.00    +0.041 C 
BRANCH  29  32
ATOM     32  O   LIG    1       29.007 -19.236   8.633  0.00  0.00    -0.389 OA
ATOM     33  H   LIG    1       29.494 -18.393   8.528  0.00  0.00    +0.210 HD
ENDBRANCH  29  32
ENDBRANCH  28  29
ENDBRANCH  27  28
ENDBRANCH  26  27
ENDBRANCH  24  26
ENDBRANCH   6  24
TORSDOF 9
ENDMDL
MODEL 7
REMARK VINA RESULT:      -6.6     10.434     13.530
REMARK  Name = *****
REMARK                            x       y       z     vdW  Elec       q    Type
REMARK                         _______ _______ _______ _____ _____    ______ ____
ROOT
ATOM      1  C   LIG    1       25.496 -31.394  10.598  0.00  0.00    -0.000 C 
ATOM      2  C   LIG    1       26.123 -30.396  11.279  0.00  0.00    -0.066 C 
ATOM      3  C   LIG    1       25.912 -30.162  12.788  0.00  0.00    +0.021 C 
ATOM      4  C   LIG    1       24.669 -30.746  13.478  0.00  0.00    +0.009 C 
ATOM      5  C   LIG    1       24.514 -29.913  14.744  0.00  0.00    +0.007 C 
ATOM      6  C   LIG    1       24.773 -28.469  14.287  0.00  0.00    +0.024 C 
ATOM      7  C   LIG    1       25.983 -28.666  13.289  0.00  0.00    -0.020 C 
ATOM      8  C   LIG    1       27.309 -28.511  14.101  0.00  0.00    +0.012 C 
ATOM      9  C   LIG    1       26.021 -27.664  12.128  0.00  0.00    +0.008 C 
ATOM     10  C   LIG    1       27.106 -27.996  11.104  0.00  0.00    +0.005 C 
ATOM     11  C   LIG    1       27.204 -29.486  10.714  0.00  0.00    +0.031 C 
ENDROOT
BRANCH   1  19
ATOM     12  C   LIG    1       25.192 -33.043   6.474  0.00  0.00    +0.015 C 
ATOM     13  C   LIG    1       25.292 -31.707   6.710  0.00  0.00    -0.023 C 
ATOM     14  C   LIG    1       25.491 -30.725   5.555  0.00  0.00    +0.147 C 
ATOM     15  C   LIG    1       24.581 -29.501   5.639  0.00  0.00    +0.067 C 
ATOM     16  C   LIG    1       24.672 -28.852   7.009  0.00  0.00    +0.122 C 
ATOM     17  C   LIG    1       24.341 -29.863   8.123  0.00  0.00    +0.067 C 
ATOM     18  C   LIG    1       25.148 -31.159   8.084  0.00  0.00    -0.040 C 
ATOM     19  C   LIG    1       25.626 -31.799   9.190  0.00  0.00    +0.004 C 
BRANCH  14  20
ATOM     20  O   LIG    1       25.253 -31.337   4.279  0.00  0.00    -0.387 OA
ATOM     21  H   LIG    1       24.942 -30.637   3.679  0.00  0.00    +0.210 HD
ENDBRANCH  14  20
BRANCH  16  22
ATOM     22  O   LIG    1       25.954 -28.254   7.191  0.00  0.00    -0.391 OA
ATOM     23  H   LIG    1       25.849 -27.451   7.732  0.00  0.00    +0.210 HD
ENDBRANCH  16  22
ENDBRANCH   1  19
BRANCH   6  24
ATOM     24  C   LIG    1       23.473 -27.752  13.777  0.00  0.00    +0.119 C 
ATOM     25  C   LIG    1       23.571 -26.227  13.991  0.00  0.00    +0.038 C 
BRANCH  24  26
ATOM     26  O   LIG    1       22.305 -28.290  14.420  0.00  0.00    -0.376 OA
BRANCH  26  27
ATOM     27  C   LIG    1       21.176 -28.462  13.558  0.00  0.00    +0.163 C 
BRANCH  27  28
ATOM     28  C   LIG    1       21.615 -28.981  12.182  0.00  0.00    +0.062 C 
BRANCH  28  29
ATOM     29  C   LIG    1       21.056 -30.354  11.775  0.00  0.00    +0.063 C 
ATOM     30  C   LIG    1       21.006 -31.350  12.931  0.00  0.00    +0.041 C 
ATOM     31  C   LIG    1       21.874 -30.941  10.620  0.00  0.00    +0.041 C 
BRANCH  29  32
ATOM     32  O   LIG    1       19.740 -30.202  11.277  0.00  0.00    -0.389 OA
ATOM     33  H   LIG    1       19.285 -29.526  11.820  0.00  0.00    +0.210 HD
ENDBRANCH  29  32
ENDBRANCH  28  29
ENDBRANCH  27  28
ENDBRANCH  26  27
ENDBRANCH  24  26
ENDBRANCH   6  24
TORSDOF 9
ENDMDL
MODEL 8
REMARK VINA RESULT:      -6.5      4.642      6.179
REMARK  Name = *****
REMARK                            x       y       z     vdW  Elec       q    Type
REMARK                         _______ _______ _______ _____ _____    ______ ____
ROOT
ATOM      1  C   LIG    1       25.225 -24.592   6.108  0.00  0.00    -0.000 C 
ATOM      2  C   LIG    1       24.910 -23.367   6.611  0.00  0.00    -0.066 C 
ATOM      3  C   LIG    1       24.199 -22.284   5.774  0.00  0.00    +0.021 C 
ATOM      4  C   LIG    1       24.221 -22.378   4.240  0.00  0.00    +0.009 C 
ATOM      5  C   LIG    1       23.925 -20.960   3.771  0.00  0.00    +0.007 C 
ATOM      6  C   LIG    1       24.768 -20.067   4.694  0.00  0.00    +0.024 C 
ATOM      7  C   LIG    1       24.577 -20.784   6.089  0.00  0.00    -0.020 C 
ATOM      8  C   LIG    1       23.346 -20.135   6.800  0.00  0.00    +0.012 C 
ATOM      9  C   LIG    1       25.781 -20.672   7.034  0.00  0.00    +0.008 C 
ATOM     10  C   LIG    1       25.614 -21.517   8.297  0.00  0.00    +0.005 C 
ATOM     11  C   LIG    1       25.068 -22.941   8.063  0.00  0.00    +0.031 C 
ENDROOT
BRANCH   1  19
ATOM     12  C   LIG    1       26.689 -27.826   8.794  0.00  0.00    +0.015 C 
ATOM     13  C   LIG    1       26.032 -28.095   7.634  0.00  0.00    -0.023 C 
ATOM     14  C   LIG    1       25.932 -29.529   7.110  0.00  0.00    +0.147 C 
ATOM     15  C   LIG    1       24.527 -29.906   6.645  0.00  0.00    +0.067 C 
ATOM     16  C   LIG    1       23.980 -28.868   5.680  0.00  0.00    +0.122 C 
ATOM     17  C   LIG    1       23.994 -27.464   6.312  0.00  0.00    +0.067 C 
ATOM     18  C   LIG    1       25.342 -27.019   6.877  0.00  0.00    -0.040 C 
ATOM     19  C   LIG    1       25.837 -25.753   6.772  0.00  0.00    +0.004 C 
BRANCH  14  20
ATOM     20  O   LIG    1       26.319 -30.493   8.100  0.00  0.00    -0.387 OA
ATOM     21  H   LIG    1       26.560 -29.999   8.902  0.00  0.00    +0.210 HD
ENDBRANCH  14  20
BRANCH  16  22
ATOM     22  O   LIG    1       24.696 -28.909   4.448  0.00  0.00    -0.391 OA
ATOM     23  H   LIG    1       25.310 -28.153   4.419  0.00  0.00    +0.210 HD
ENDBRANCH  16  22
ENDBRANCH   1  19
BRANCH   6  24
ATOM     24  C   LIG    1       26.222 -19.835   4.148  0.00  0.00    +0.119 C 
ATOM     25  C   LIG    1       27.172 -19.415   5.290  0.00  0.00    +0.038 C 
BRANCH  24  26
ATOM     26  O   LIG    1       26.224 -18.862   3.090  0.00  0.00    -0.376 OA
BRANCH  26  27
ATOM     27  C   LIG    1       25.751 -17.567   3.471  0.00  0.00    +0.163 C 
BRANCH  27  28
ATOM     28  C   LIG    1       26.892 -16.542   3.451  0.00  0.00    +0.062 C 
BRANCH  28  29
ATOM     29  C   LIG    1       26.466 -15.066   3.387  0.00  0.00    +0.063 C 
ATOM     30  C   LIG    1       27.357 -14.147   4.220  0.00  0.00    +0.041 C 
ATOM     31  C   LIG    1       25.007 -14.913   3.828  0.00  0.00    +0.041 C 
BRANCH  29  32
ATOM     32  O   LIG    1       26.514 -14.615   2.046  0.00  0.00    -0.389 OA
ATOM     33  H   LIG    1       26.158 -15.325   1.473  0.00  0.00    +0.210 HD
ENDBRANCH  29  32
ENDBRANCH  28  29
ENDBRANCH  27  28
ENDBRANCH  26  27
ENDBRANCH  24  26
ENDBRANCH   6  24
TORSDOF 9
ENDMDL
MODEL 9
REMARK VINA RESULT:      -6.4     10.182     13.829
REMARK  Name = *****
REMARK                            x       y       z     vdW  Elec       q    Type
REMARK                         _______ _______ _______ _____ _____    ______ ____
ROOT
ATOM      1  C   LIG    1       23.350 -27.467  12.943  0.00  0.00    -0.000 C 
ATOM      2  C   LIG    1       24.242 -28.403  13.369  0.00  0.00    -0.066 C 
ATOM      3  C   LIG    1       25.645 -28.555  12.748  0.00  0.00    +0.021 C 
ATOM      4  C   LIG    1       25.923 -27.971  11.355  0.00  0.00    +0.009 C 
ATOM      5  C   LIG    1       27.147 -28.733  10.864  0.00  0.00    +0.007 C 
ATOM      6  C   LIG    1       26.876 -30.192  11.260  0.00  0.00    +0.024 C 
ATOM      7  C   LIG    1       26.242 -30.016  12.698  0.00  0.00    -0.020 C 
ATOM      8  C   LIG    1       27.399 -30.081  13.746  0.00  0.00    +0.012 C 
ATOM      9  C   LIG    1       25.205 -31.083  13.072  0.00  0.00    +0.008 C 
ATOM     10  C   LIG    1       24.503 -30.778  14.395  0.00  0.00    +0.005 C 
ATOM     11  C   LIG    1       24.060 -29.311  14.577  0.00  0.00    +0.031 C 
ENDROOT
BRANCH   1  19
ATOM     12  C   LIG    1       19.175 -26.148  13.745  0.00  0.00    +0.015 C 
ATOM     13  C   LIG    1       19.567 -27.440  13.911  0.00  0.00    -0.023 C 
ATOM     14  C   LIG    1       18.630 -28.461  14.560  0.00  0.00    +0.147 C 
ATOM     15  C   LIG    1       18.566 -29.787  13.806  0.00  0.00    +0.067 C 
ATOM     16  C   LIG    1       19.961 -30.327  13.541  0.00  0.00    +0.122 C 
ATOM     17  C   LIG    1       20.815 -29.299  12.777  0.00  0.00    +0.067 C 
ATOM     18  C   LIG    1       20.885 -27.911  13.412  0.00  0.00    -0.040 C 
ATOM     19  C   LIG    1       22.010 -27.142  13.455  0.00  0.00    +0.004 C 
BRANCH  14  20
ATOM     20  O   LIG    1       17.285 -27.971  14.661  0.00  0.00    -0.387 OA
ATOM     21  H   LIG    1       17.166 -27.647  15.571  0.00  0.00    +0.210 HD
ENDBRANCH  14  20
BRANCH  16  22
ATOM     22  O   LIG    1       20.576 -30.735  14.761  0.00  0.00    -0.391 OA
ATOM     23  H   LIG    1       20.211 -30.199  15.488  0.00  0.00    +0.210 HD
ENDBRANCH  16  22
ENDBRANCH   1  19
BRANCH   6  24
ATOM     24  C   LIG    1       26.073 -30.978  10.164  0.00  0.00    +0.119 C 
ATOM     25  C   LIG    1       27.023 -31.519   9.075  0.00  0.00    +0.038 C 
BRANCH  24  26
ATOM     26  O   LIG    1       25.045 -30.153   9.590  0.00  0.00    -0.376 OA
BRANCH  26  27
ATOM     27  C   LIG    1       24.739 -30.445   8.224  0.00  0.00    +0.163 C 
BRANCH  27  28
ATOM     28  C   LIG    1       24.576 -29.153   7.413  0.00  0.00    +0.062 C 
BRANCH  28  29
ATOM     29  C   LIG    1       24.531 -29.321   5.886  0.00  0.00    +0.063 C 
ATOM     30  C   LIG    1       25.420 -30.455   5.380  0.00  0.00    +0.041 C 
ATOM     31  C   LIG    1       24.918 -28.010   5.194  0.00  0.00    +0.041 C 
BRANCH  29  32
ATOM     32  O   LIG    1       23.204 -29.596   5.477  0.00  0.00    -0.389 OA
ATOM     33  H   LIG    1       22.810 -30.220   6.121  0.00  0.00    +0.210 HD
ENDBRANCH  29  32
ENDBRANCH  28  29
ENDBRANCH  27  28
ENDBRANCH  26  27
ENDBRANCH  24  26
ENDBRANCH   6  24
TORSDOF 9
ENDMDL
