MODEL 1
REMARK VINA RESULT:      -3.0      0.000      0.000
REMARK  Name = *****
REMARK                            x       y       z     vdW  Elec       q    Type
REMARK                         _______ _______ _______ _____ _____    ______ ____
ROOT
ATOM      1  C   LIG    1       22.410 -19.147   4.832  0.00  0.00    +0.037 C 
ATOM      2  C   LIG    1       22.837 -20.565   5.176  0.00  0.00    +0.108 C 
ATOM      3  C   LIG    1       23.264 -20.688   6.631  0.00  0.00    +0.037 C 
ENDROOT
BRANCH   2   4
ATOM      4  O   LIG    1       21.754 -21.455   4.928  0.00  0.00    -0.392 OA
ATOM      5  H   LIG    1       22.117 -22.355   4.852  0.00  0.00    +0.210 HD
ENDBRANCH   2   4
TORSDOF 1
ENDMDL
MODEL 2
REMARK VINA RESULT:      -3.0      0.834      1.966
REMARK  Name = *****
REMARK                            x       y       z     vdW  Elec       q    Type
REMARK                         _______ _______ _______ _____ _____    ______ ____
ROOT
ATOM      1  C   LIG    1       23.311 -20.708   6.717  0.00  0.00    +0.037 C 
ATOM      2  C   LIG    1       22.586 -20.662   5.382  0.00  0.00    +0.108 C 
ATOM      3  C   LIG    1       22.452 -19.239   4.862  0.00  0.00    +0.037 C 
ENDROOT
BRANCH   2   4
ATOM      4  O   LIG    1       23.303 -21.443   4.431  0.00  0.00    -0.392 OA
ATOM      5  H   LIG    1       23.559 -22.279   4.860  0.00  0.00    +0.210 HD
ENDBRANCH   2   4
TORSDOF 1
ENDMDL
MODEL 3
REMARK VINA RESULT:      -2.9      7.773      8.261
REMARK  Name = *****
REMARK                            x       y       z     vdW  Elec       q    Type
REMARK                         _______ _______ _______ _____ _____    ______ ____
ROOT
ATOM      1  C   LIG    1       28.236 -13.419   3.749  0.00  0.00    +0.037 C 
ATOM      2  C   LIG    1       27.162 -14.382   3.268  0.00  0.00    +0.108 C 
ATOM      3  C   LIG    1       25.867 -14.217   4.048  0.00  0.00    +0.037 C 
ENDROOT
BRANCH   2   4
ATOM      4  O   LIG    1       26.910 -14.153   1.885  0.00  0.00    -0.392 OA
ATOM      5  H   LIG    1       27.146 -14.962   1.399  0.00  0.00    +0.210 HD
ENDBRANCH   2   4
TORSDOF 1
ENDMDL
MODEL 4
REMARK VINA RESULT:      -2.8      7.500      8.079
REMARK  Name = *****
REMARK                            x       y       z     vdW  Elec       q    Type
REMARK                         _______ _______ _______ _____ _____    ______ ____
ROOT
ATOM      1  C   LIG    1       24.827 -12.858   1.972  0.00  0.00    +0.037 C 
ATOM      2  C   LIG    1       25.991 -13.450   2.749  0.00  0.00    +0.108 C 
ATOM      3  C   LIG    1       25.517 -14.392   3.845  0.00  0.00    +0.037 C 
ENDROOT
BRANCH   2   4
ATOM      4  O   LIG    1       26.841 -14.160   1.854  0.00  0.00    -0.392 OA
ATOM      5  H   LIG    1       27.751 -14.107   2.198  0.00  0.00    +0.210 HD
ENDBRANCH   2   4
TORSDOF 1
ENDMDL
MODEL 5
REMARK VINA RESULT:      -2.8      7.826      8.203
REMARK  Name = *****
REMARK                            x       y       z     vdW  Elec       q    Type
REMARK                         _______ _______ _______ _____ _____    ______ ____
ROOT
ATOM      1  C   LIG    1       25.277 -13.594   3.657  0.00  0.00    +0.037 C 
ATOM      2  C   LIG    1       26.621 -13.470   2.957  0.00  0.00    +0.108 C 
ATOM      3  C   LIG    1       27.772 -13.847   3.876  0.00  0.00    +0.037 C 
ENDROOT
BRANCH   2   4
ATOM      4  O   LIG    1       26.634 -14.319   1.813  0.00  0.00    -0.392 OA
ATOM      5  H   LIG    1       27.561 -14.446   1.545  0.00  0.00    +0.210 HD
ENDBRANCH   2   4
TORSDOF 1
ENDMDL
MODEL 6
REMARK VINA RESULT:      -2.7      1.704      1.811
REMARK  Name = *****
REMARK                            x       y       z     vdW  Elec       q    Type
REMARK                         _______ _______ _______ _____ _____    ______ ____
ROOT
ATOM      1  C   LIG    1       24.310 -19.259   3.671  0.00  0.00    +0.037 C 
ATOM      2  C   LIG    1       23.957 -20.360   4.659  0.00  0.00    +0.108 C 
ATOM      3  C   LIG    1       22.763 -19.981   5.522  0.00  0.00    +0.037 C 
ENDROOT
BRANCH   2   4
ATOM      4  O   LIG    1       23.660 -21.555   3.944  0.00  0.00    -0.392 OA
ATOM      5  H   LIG    1       22.948 -22.020   4.419  0.00  0.00    +0.210 HD
ENDBRANCH   2   4
TORSDOF 1
ENDMDL
MODEL 7
REMARK VINA RESULT:      -2.7      7.984      8.320
REMARK  Name = *****
REMARK                            x       y       z     vdW  Elec       q    Type
REMARK                         _______ _______ _______ _____ _____    ______ ____
ROOT
ATOM      1  C   LIG    1       26.359 -13.700   4.196  0.00  0.00    +0.037 C 
ATOM      2  C   LIG    1       25.850 -13.976   2.790  0.00  0.00    +0.108 C 
ATOM      3  C   LIG    1       24.967 -12.848   2.278  0.00  0.00    +0.037 C 
ENDROOT
BRANCH   2   4
ATOM      4  O   LIG    1       26.960 -14.139   1.912  0.00  0.00    -0.392 OA
ATOM      5  H   LIG    1       27.386 -13.270   1.803  0.00  0.00    +0.210 HD
ENDBRANCH   2   4
TORSDOF 1
ENDMDL
MODEL 8
REMARK VINA RESULT:      -2.7      8.029      8.037
REMARK  Name = *****
REMARK                            x       y       z     vdW  Elec       q    Type
REMARK                         _______ _______ _______ _____ _____    ______ ____
ROOT
ATOM      1  C   LIG    1       26.698 -13.922   2.542  0.00  0.00    +0.037 C 
ATOM      2  C   LIG    1       27.562 -14.076   3.783  0.00  0.00    +0.108 C 
ATOM      3  C   LIG    1       26.874 -13.523   5.022  0.00  0.00    +0.037 C 
ENDROOT
BRANCH   2   4
ATOM      4  O   LIG    1       27.854 -15.456   3.985  0.00  0.00    -0.392 OA
ATOM      5  H   LIG    1       27.927 -15.877   3.110  0.00  0.00    +0.210 HD
ENDBRANCH   2   4
TORSDOF 1
ENDMDL
MODEL 9
REMARK VINA RESULT:      -2.7      3.064      3.524
REMARK  Name = *****
REMARK                            x       y       z     vdW  Elec       q    Type
REMARK                         _______ _______ _______ _____ _____    ______ ____
ROOT
ATOM      1  C   LIG    1       24.583 -20.646   5.835  0.00  0.00    +0.037 C 
ATOM      2  C   LIG    1       25.098 -20.459   4.416  0.00  0.00    +0.108 C 
ATOM      3  C   LIG    1       24.372 -19.332   3.697  0.00  0.00    +0.037 C 
ENDROOT
BRANCH   2   4
ATOM      4  O   LIG    1       26.492 -20.170   4.456  0.00  0.00    -0.392 OA
ATOM      5  H   LIG    1       26.646 -19.365   3.932  0.00  0.00    +0.210 HD
ENDBRANCH   2   4
TORSDOF 1
ENDMDL
