MODEL 1
REMARK VINA RESULT:      -9.5      0.000      0.000
REMARK  Name = *****
REMARK                            x       y       z     vdW  Elec       q    Type
REMARK                         _______ _______ _______ _____ _____    ______ ____
ROOT
ATOM      1  C   LIG    1       26.440 -21.230   7.626  0.00  0.00    +0.162 C 
ENDROOT
BRANCH   1   2
ATOM      2  C   LIG    1       27.667 -20.508   7.079  0.00  0.00    +0.029 A 
ATOM      3  C   LIG    1       28.946 -20.703   7.642  0.00  0.00    +0.148 A 
ATOM      4  O   LIG    1       29.037 -21.563   8.705  0.00  0.00    -0.480 OA
ATOM      5  C   LIG    1       30.344 -21.829   9.183  0.00  0.00    +0.325 C 
ATOM      6  C   LIG    1       31.539 -20.955   8.793  0.00  0.00    +0.255 C 
ATOM      7  N   LIG    1       31.312 -20.127   7.728  0.00  0.00    -0.280 N 
ATOM      8  H   LIG    1       32.094 -19.565   7.416  0.00  0.00    +0.155 HD
ATOM      9  O   LIG    1       32.627 -21.020   9.341  0.00  0.00    -0.272 OA
ATOM     10  C   LIG    1       30.056 -20.000   7.139  0.00  0.00    +0.080 A 
ATOM     11  C   LIG    1       29.916 -19.122   6.068  0.00  0.00    +0.072 A 
ATOM     12  C   LIG    1       28.661 -18.934   5.509  0.00  0.00    +0.119 A 
ATOM     13  C   LIG    1       27.548 -19.622   5.990  0.00  0.00    +0.055 A 
BRANCH  12  14
ATOM     14  O   LIG    1       28.555 -18.029   4.494  0.00  0.00    -0.507 OA
ATOM     15  H   LIG    1       27.778 -18.257   3.957  0.00  0.00    +0.292 HD
ENDBRANCH  12  14
ENDBRANCH   1   2
BRANCH   1  16
ATOM     16  O   LIG    1       26.397 -21.112   9.055  0.00  0.00    -0.386 OA
ATOM     17  H   LIG    1       27.124 -20.496   9.273  0.00  0.00    +0.210 HD
ENDBRANCH   1  16
BRANCH   1  18
ATOM     18  C   LIG    1       25.120 -20.652   7.049  0.00  0.00    +0.117 C 
BRANCH  18  19
ATOM     19  N   LIG    1       23.925 -21.479   7.366  0.00  0.00    -0.308 NA
ATOM     20  H   LIG    1       24.166 -22.132   8.118  0.00  0.00    +0.122 HD
BRANCH  19  21
ATOM     21  C   LIG    1       23.405 -22.285   6.218  0.00  0.00    +0.018 C 
ATOM     22  C   LIG    1       22.427 -23.351   6.778  0.00  0.00    +0.027 C 
ATOM     23  C   LIG    1       22.541 -21.381   5.305  0.00  0.00    +0.027 C 
BRANCH  21  24
ATOM     24  C   LIG    1       24.512 -23.008   5.365  0.00  0.00    +0.056 C 
BRANCH  24  28
ATOM     25  C   LIG    1       25.291 -27.097   6.606  0.00  0.00    +0.120 A 
ATOM     26  C   LIG    1       26.007 -26.045   7.165  0.00  0.00    +0.046 A 
ATOM     27  C   LIG    1       25.782 -24.735   6.733  0.00  0.00    +0.007 A 
ATOM     28  C   LIG    1       24.828 -24.446   5.748  0.00  0.00    -0.045 A 
ATOM     29  C   LIG    1       24.164 -25.522   5.143  0.00  0.00    +0.007 A 
ATOM     30  C   LIG    1       24.390 -26.834   5.576  0.00  0.00    +0.046 A 
BRANCH  25  32
ATOM     31  C   LIG    1       24.538 -29.306   6.297  0.00  0.00    +0.277 C 
ATOM     32  O   LIG    1       25.426 -28.411   6.961  0.00  0.00    -0.495 OA
ENDBRANCH  25  32
ENDBRANCH  24  28
ENDBRANCH  21  24
ENDBRANCH  19  21
ENDBRANCH  18  19
ENDBRANCH   1  18
TORSDOF 9
ENDMDL
MODEL 2
REMARK VINA RESULT:      -9.3      3.282      8.755
REMARK  Name = *****
REMARK                            x       y       z     vdW  Elec       q    Type
REMARK                         _______ _______ _______ _____ _____    ______ ____
ROOT
ATOM      1  C   LIG    1       26.246 -20.701   8.016  0.00  0.00    +0.162 C 
ENDROOT
BRANCH   1   2
ATOM      2  C   LIG    1       25.530 -21.125   6.737  0.00  0.00    +0.029 A 
ATOM      3  C   LIG    1       25.455 -22.481   6.353  0.00  0.00    +0.148 A 
ATOM      4  O   LIG    1       26.059 -23.398   7.172  0.00  0.00    -0.480 OA
ATOM      5  C   LIG    1       25.877 -24.759   6.826  0.00  0.00    +0.325 C 
ATOM      6  C   LIG    1       25.356 -25.180   5.449  0.00  0.00    +0.255 C 
ATOM      7  N   LIG    1       24.793 -24.167   4.723  0.00  0.00    -0.280 N 
ATOM      8  H   LIG    1       24.401 -24.417   3.824  0.00  0.00    +0.155 HD
ATOM      9  O   LIG    1       25.384 -26.329   5.041  0.00  0.00    -0.272 OA
ATOM     10  C   LIG    1       24.814 -22.842   5.153  0.00  0.00    +0.080 A 
ATOM     11  C   LIG    1       24.228 -21.875   4.341  0.00  0.00    +0.072 A 
ATOM     12  C   LIG    1       24.295 -20.544   4.721  0.00  0.00    +0.119 A 
ATOM     13  C   LIG    1       24.922 -20.164   5.907  0.00  0.00    +0.055 A 
BRANCH  12  14
ATOM     14  O   LIG    1       23.753 -19.622   3.875  0.00  0.00    -0.507 OA
ATOM     15  H   LIG    1       24.474 -19.178   3.398  0.00  0.00    +0.292 HD
ENDBRANCH  12  14
ENDBRANCH   1   2
BRANCH   1  16
ATOM     16  O   LIG    1       25.825 -21.525   9.111  0.00  0.00    -0.386 OA
ATOM     17  H   LIG    1       24.977 -21.135   9.401  0.00  0.00    +0.210 HD
ENDBRANCH   1  16
BRANCH   1  18
ATOM     18  C   LIG    1       27.788 -20.816   7.883  0.00  0.00    +0.117 C 
BRANCH  18  19
ATOM     19  N   LIG    1       28.525 -19.752   8.618  0.00  0.00    -0.308 NA
ATOM     20  H   LIG    1       27.932 -18.919   8.673  0.00  0.00    +0.122 HD
BRANCH  19  21
ATOM     21  C   LIG    1       29.819 -19.346   7.989  0.00  0.00    +0.018 C 
ATOM     22  C   LIG    1       30.961 -20.147   8.668  0.00  0.00    +0.027 C 
ATOM     23  C   LIG    1       29.834 -19.794   6.507  0.00  0.00    +0.027 C 
BRANCH  21  24
ATOM     24  C   LIG    1       30.147 -17.809   8.089  0.00  0.00    +0.056 C 
BRANCH  24  28
ATOM     25  C   LIG    1       32.415 -16.369  11.501  0.00  0.00    +0.120 A 
ATOM     26  C   LIG    1       32.999 -16.419  10.240  0.00  0.00    +0.046 A 
ATOM     27  C   LIG    1       32.278 -16.921   9.154  0.00  0.00    +0.007 A 
ATOM     28  C   LIG    1       30.958 -17.368   9.298  0.00  0.00    -0.045 A 
ATOM     29  C   LIG    1       30.406 -17.378  10.587  0.00  0.00    +0.007 A 
ATOM     30  C   LIG    1       31.128 -16.876  11.675  0.00  0.00    +0.046 A 
BRANCH  25  32
ATOM     31  C   LIG    1       32.273 -16.041  13.829  0.00  0.00    +0.277 C 
ATOM     32  O   LIG    1       33.025 -15.889  12.627  0.00  0.00    -0.495 OA
ENDBRANCH  25  32
ENDBRANCH  24  28
ENDBRANCH  21  24
ENDBRANCH  19  21
ENDBRANCH  18  19
ENDBRANCH   1  18
TORSDOF 9
ENDMDL
MODEL 3
REMARK VINA RESULT:      -9.3      1.631      2.232
REMARK  Name = *****
REMARK                            x       y       z     vdW  Elec       q    Type
REMARK                         _______ _______ _______ _____ _____    ______ ____
ROOT
ATOM      1  C   LIG    1       26.463 -21.666   8.330  0.00  0.00    +0.162 C 
ENDROOT
BRANCH   1   2
ATOM      2  C   LIG    1       27.078 -20.801   7.234  0.00  0.00    +0.029 A 
ATOM      3  C   LIG    1       28.395 -20.308   7.339  0.00  0.00    +0.148 A 
ATOM      4  O   LIG    1       29.097 -20.633   8.470  0.00  0.00    -0.480 OA
ATOM      5  C   LIG    1       30.451 -20.221   8.505  0.00  0.00    +0.325 C 
ATOM      6  C   LIG    1       31.004 -19.181   7.527  0.00  0.00    +0.255 C 
ATOM      7  N   LIG    1       30.199 -18.932   6.449  0.00  0.00    -0.280 N 
ATOM      8  H   LIG    1       30.552 -18.281   5.760  0.00  0.00    +0.155 HD
ATOM      9  O   LIG    1       32.094 -18.649   7.655  0.00  0.00    -0.272 OA
ATOM     10  C   LIG    1       28.927 -19.486   6.328  0.00  0.00    +0.080 A 
ATOM     11  C   LIG    1       28.173 -19.166   5.202  0.00  0.00    +0.072 A 
ATOM     12  C   LIG    1       26.880 -19.655   5.094  0.00  0.00    +0.119 A 
ATOM     13  C   LIG    1       26.335 -20.473   6.082  0.00  0.00    +0.055 A 
BRANCH  12  14
ATOM     14  O   LIG    1       26.156 -19.279   4.001  0.00  0.00    -0.507 OA
ATOM     15  H   LIG    1       25.558 -20.007   3.762  0.00  0.00    +0.292 HD
ENDBRANCH  12  14
ENDBRANCH   1   2
BRANCH   1  16
ATOM     16  O   LIG    1       25.939 -20.835   9.375  0.00  0.00    -0.386 OA
ATOM     17  H   LIG    1       26.619 -20.145   9.505  0.00  0.00    +0.210 HD
ENDBRANCH   1  16
BRANCH   1  18
ATOM     18  C   LIG    1       25.311 -22.556   7.791  0.00  0.00    +0.117 C 
BRANCH  18  19
ATOM     19  N   LIG    1       25.777 -23.862   7.251  0.00  0.00    -0.308 NA
ATOM     20  H   LIG    1       26.752 -23.765   6.951  0.00  0.00    +0.122 HD
BRANCH  19  21
ATOM     21  C   LIG    1       24.992 -24.366   6.083  0.00  0.00    +0.018 C 
ATOM     22  C   LIG    1       23.557 -24.698   6.570  0.00  0.00    +0.027 C 
ATOM     23  C   LIG    1       24.816 -23.226   5.050  0.00  0.00    +0.027 C 
BRANCH  21  24
ATOM     24  C   LIG    1       25.598 -25.638   5.380  0.00  0.00    +0.056 C 
BRANCH  24  28
ATOM     25  C   LIG    1       24.658 -29.372   7.388  0.00  0.00    +0.120 A 
ATOM     26  C   LIG    1       25.582 -28.493   7.939  0.00  0.00    +0.046 A 
ATOM     27  C   LIG    1       25.911 -27.312   7.269  0.00  0.00    +0.007 A 
ATOM     28  C   LIG    1       25.316 -26.977   6.046  0.00  0.00    -0.045 A 
ATOM     29  C   LIG    1       24.439 -27.905   5.467  0.00  0.00    +0.007 A 
ATOM     30  C   LIG    1       24.109 -29.088   6.138  0.00  0.00    +0.046 A 
BRANCH  25  32
ATOM     31  C   LIG    1       23.686 -30.417   9.261  0.00  0.00    +0.277 C 
ATOM     32  O   LIG    1       24.257 -30.547   7.962  0.00  0.00    -0.495 OA
ENDBRANCH  25  32
ENDBRANCH  24  28
ENDBRANCH  21  24
ENDBRANCH  19  21
ENDBRANCH  18  19
ENDBRANCH   1  18
TORSDOF 9
ENDMDL
MODEL 4
REMARK VINA RESULT:      -9.3      1.577      2.316
REMARK  Name = *****
REMARK                            x       y       z     vdW  Elec       q    Type
REMARK                         _______ _______ _______ _____ _____    ______ ____
ROOT
ATOM      1  C   LIG    1       26.480 -21.550   8.387  0.00  0.00    +0.162 C 
ENDROOT
BRANCH   1   2
ATOM      2  C   LIG    1       27.114 -20.720   7.274  0.00  0.00    +0.029 A 
ATOM      3  C   LIG    1       28.435 -20.237   7.380  0.00  0.00    +0.148 A 
ATOM      4  O   LIG    1       29.123 -20.539   8.525  0.00  0.00    -0.480 OA
ATOM      5  C   LIG    1       30.481 -20.140   8.562  0.00  0.00    +0.325 C 
ATOM      6  C   LIG    1       31.054 -19.132   7.562  0.00  0.00    +0.255 C 
ATOM      7  N   LIG    1       30.261 -18.904   6.471  0.00  0.00    -0.280 N 
ATOM      8  H   LIG    1       30.628 -18.274   5.769  0.00  0.00    +0.155 HD
ATOM      9  O   LIG    1       32.148 -18.608   7.687  0.00  0.00    -0.272 OA
ATOM     10  C   LIG    1       28.985 -19.448   6.352  0.00  0.00    +0.080 A 
ATOM     11  C   LIG    1       28.244 -19.150   5.211  0.00  0.00    +0.072 A 
ATOM     12  C   LIG    1       26.948 -19.629   5.104  0.00  0.00    +0.119 A 
ATOM     13  C   LIG    1       26.385 -20.415   6.108  0.00  0.00    +0.055 A 
BRANCH  12  14
ATOM     14  O   LIG    1       26.238 -19.275   3.995  0.00  0.00    -0.507 OA
ATOM     15  H   LIG    1       26.706 -18.550   3.547  0.00  0.00    +0.292 HD
ENDBRANCH  12  14
ENDBRANCH   1   2
BRANCH   1  16
ATOM     16  O   LIG    1       25.983 -20.687   9.420  0.00  0.00    -0.386 OA
ATOM     17  H   LIG    1       26.698 -20.036   9.563  0.00  0.00    +0.210 HD
ENDBRANCH   1  16
BRANCH   1  18
ATOM     18  C   LIG    1       25.303 -22.417   7.867  0.00  0.00    +0.117 C 
BRANCH  18  19
ATOM     19  N   LIG    1       25.738 -23.713   7.281  0.00  0.00    -0.308 NA
ATOM     20  H   LIG    1       26.705 -23.619   6.955  0.00  0.00    +0.122 HD
BRANCH  19  21
ATOM     21  C   LIG    1       24.915 -24.179   6.123  0.00  0.00    +0.018 C 
ATOM     22  C   LIG    1       23.481 -24.474   6.636  0.00  0.00    +0.027 C 
ATOM     23  C   LIG    1       24.753 -23.021   5.108  0.00  0.00    +0.027 C 
BRANCH  21  24
ATOM     24  C   LIG    1       25.468 -25.460   5.393  0.00  0.00    +0.056 C 
BRANCH  24  28
ATOM     25  C   LIG    1       24.916 -29.340   7.265  0.00  0.00    +0.120 A 
ATOM     26  C   LIG    1       24.173 -28.989   6.144  0.00  0.00    +0.046 A 
ATOM     27  C   LIG    1       24.324 -27.724   5.570  0.00  0.00    +0.007 A 
ATOM     28  C   LIG    1       25.230 -26.791   6.091  0.00  0.00    -0.045 A 
ATOM     29  C   LIG    1       25.921 -27.131   7.262  0.00  0.00    +0.007 A 
ATOM     30  C   LIG    1       25.769 -28.398   7.838  0.00  0.00    +0.046 A 
BRANCH  25  32
ATOM     31  C   LIG    1       26.051 -30.945   8.561  0.00  0.00    +0.277 C 
ATOM     32  O   LIG    1       24.853 -30.551   7.898  0.00  0.00    -0.495 OA
ENDBRANCH  25  32
ENDBRANCH  24  28
ENDBRANCH  21  24
ENDBRANCH  19  21
ENDBRANCH  18  19
ENDBRANCH   1  18
TORSDOF 9
ENDMDL
MODEL 5
REMARK VINA RESULT:      -8.9      2.830      8.253
REMARK  Name = *****
REMARK                            x       y       z     vdW  Elec       q    Type
REMARK                         _______ _______ _______ _____ _____    ______ ____
ROOT
ATOM      1  C   LIG    1       26.301 -26.372   6.662  0.00  0.00    +0.162 C 
ENDROOT
BRANCH   1   2
ATOM      2  C   LIG    1       25.576 -27.677   6.974  0.00  0.00    +0.029 A 
ATOM      3  C   LIG    1       25.851 -28.407   8.150  0.00  0.00    +0.148 A 
ATOM      4  O   LIG    1       26.801 -27.898   8.995  0.00  0.00    -0.480 OA
ATOM      5  C   LIG    1       26.982 -28.587  10.219  0.00  0.00    +0.325 C 
ATOM      6  C   LIG    1       26.428 -29.997  10.441  0.00  0.00    +0.255 C 
ATOM      7  N   LIG    1       25.501 -30.394   9.517  0.00  0.00    -0.280 N 
ATOM      8  H   LIG    1       25.083 -31.305   9.657  0.00  0.00    +0.155 HD
ATOM      9  O   LIG    1       26.737 -30.700  11.389  0.00  0.00    -0.272 OA
ATOM     10  C   LIG    1       25.190 -29.625   8.398  0.00  0.00    +0.080 A 
ATOM     11  C   LIG    1       24.243 -30.115   7.503  0.00  0.00    +0.072 A 
ATOM     12  C   LIG    1       23.967 -29.395   6.351  0.00  0.00    +0.119 A 
ATOM     13  C   LIG    1       24.607 -28.186   6.087  0.00  0.00    +0.055 A 
BRANCH  12  14
ATOM     14  O   LIG    1       23.070 -29.933   5.476  0.00  0.00    -0.507 OA
ATOM     15  H   LIG    1       23.026 -30.891   5.627  0.00  0.00    +0.292 HD
ENDBRANCH  12  14
ENDBRANCH   1   2
BRANCH   1  16
ATOM     16  O   LIG    1       27.362 -26.611   5.727  0.00  0.00    -0.386 OA
ATOM     17  H   LIG    1       26.986 -27.246   5.085  0.00  0.00    +0.210 HD
ENDBRANCH   1  16
BRANCH   1  18
ATOM     18  C   LIG    1       25.348 -25.308   6.056  0.00  0.00    +0.117 C 
BRANCH  18  19
ATOM     19  N   LIG    1       25.911 -23.931   6.075  0.00  0.00    -0.308 NA
ATOM     20  H   LIG    1       26.586 -23.862   6.843  0.00  0.00    +0.122 HD
BRANCH  19  21
ATOM     21  C   LIG    1       24.897 -22.848   6.266  0.00  0.00    +0.018 C 
ATOM     22  C   LIG    1       24.531 -22.276   4.871  0.00  0.00    +0.027 C 
ATOM     23  C   LIG    1       23.584 -23.463   6.810  0.00  0.00    +0.027 C 
BRANCH  21  24
ATOM     24  C   LIG    1       25.362 -21.666   7.195  0.00  0.00    +0.056 C 
BRANCH  24  28
ATOM     25  C   LIG    1       29.330 -19.994   6.627  0.00  0.00    +0.120 A 
ATOM     26  C   LIG    1       28.296 -19.658   5.761  0.00  0.00    +0.046 A 
ATOM     27  C   LIG    1       27.032 -20.230   5.923  0.00  0.00    +0.007 A 
ATOM     28  C   LIG    1       26.769 -21.135   6.960  0.00  0.00    -0.045 A 
ATOM     29  C   LIG    1       27.837 -21.519   7.782  0.00  0.00    +0.007 A 
ATOM     30  C   LIG    1       29.104 -20.947   7.619  0.00  0.00    +0.046 A 
BRANCH  25  32
ATOM     31  C   LIG    1       31.253 -19.347   7.822  0.00  0.00    +0.277 C 
ATOM     32  O   LIG    1       30.599 -19.488   6.564  0.00  0.00    -0.495 OA
ENDBRANCH  25  32
ENDBRANCH  24  28
ENDBRANCH  21  24
ENDBRANCH  19  21
ENDBRANCH  18  19
ENDBRANCH   1  18
TORSDOF 9
ENDMDL
MODEL 6
REMARK VINA RESULT:      -8.3      2.204      4.725
REMARK  Name = *****
REMARK                            x       y       z     vdW  Elec       q    Type
REMARK                         _______ _______ _______ _____ _____    ______ ____
ROOT
ATOM      1  C   LIG    1       27.624 -21.558   7.924  0.00  0.00    +0.162 C 
ENDROOT
BRANCH   1   2
ATOM      2  C   LIG    1       28.331 -20.394   7.235  0.00  0.00    +0.029 A 
ATOM      3  C   LIG    1       29.483 -19.801   7.792  0.00  0.00    +0.148 A 
ATOM      4  O   LIG    1       29.937 -20.310   8.980  0.00  0.00    -0.480 OA
ATOM      5  C   LIG    1       31.156 -19.774   9.463  0.00  0.00    +0.325 C 
ATOM      6  C   LIG    1       31.746 -18.477   8.905  0.00  0.00    +0.255 C 
ATOM      7  N   LIG    1       31.193 -18.065   7.723  0.00  0.00    -0.280 N 
ATOM      8  H   LIG    1       31.587 -17.234   7.303  0.00  0.00    +0.155 HD
ATOM      9  O   LIG    1       32.670 -17.876   9.429  0.00  0.00    -0.272 OA
ATOM     10  C   LIG    1       30.097 -18.708   7.151  0.00  0.00    +0.080 A 
ATOM     11  C   LIG    1       29.592 -18.211   5.953  0.00  0.00    +0.072 A 
ATOM     12  C   LIG    1       28.463 -18.797   5.402  0.00  0.00    +0.119 A 
ATOM     13  C   LIG    1       27.841 -19.882   6.017  0.00  0.00    +0.055 A 
BRANCH  12  14
ATOM     14  O   LIG    1       27.970 -18.251   4.254  0.00  0.00    -0.507 OA
ATOM     15  H   LIG    1       28.607 -17.595   3.925  0.00  0.00    +0.292 HD
ENDBRANCH  12  14
ENDBRANCH   1   2
BRANCH   1  16
ATOM     16  O   LIG    1       26.721 -21.062   8.921  0.00  0.00    -0.386 OA
ATOM     17  H   LIG    1       27.266 -20.468   9.475  0.00  0.00    +0.210 HD
ENDBRANCH   1  16
BRANCH   1  18
ATOM     18  C   LIG    1       26.817 -22.423   6.921  0.00  0.00    +0.117 C 
BRANCH  18  19
ATOM     19  N   LIG    1       25.404 -22.642   7.334  0.00  0.00    -0.308 NA
ATOM     20  H   LIG    1       25.395 -23.190   8.200  0.00  0.00    +0.122 HD
BRANCH  19  21
ATOM     21  C   LIG    1       24.569 -23.371   6.329  0.00  0.00    +0.018 C 
ATOM     22  C   LIG    1       25.069 -24.837   6.256  0.00  0.00    +0.027 C 
ATOM     23  C   LIG    1       23.112 -23.464   6.843  0.00  0.00    +0.027 C 
BRANCH  21  24
ATOM     24  C   LIG    1       24.590 -22.753   4.882  0.00  0.00    +0.056 C 
BRANCH  24  28
ATOM     25  C   LIG    1       22.761 -18.862   4.274  0.00  0.00    +0.120 A 
ATOM     26  C   LIG    1       24.025 -19.131   3.761  0.00  0.00    +0.046 A 
ATOM     27  C   LIG    1       24.626 -20.370   3.994  0.00  0.00    +0.007 A 
ATOM     28  C   LIG    1       23.975 -21.370   4.728  0.00  0.00    -0.045 A 
ATOM     29  C   LIG    1       22.732 -21.061   5.299  0.00  0.00    +0.007 A 
ATOM     30  C   LIG    1       22.130 -19.819   5.066  0.00  0.00    +0.046 A 
BRANCH  25  32
ATOM     31  C   LIG    1       22.681 -16.548   4.704  0.00  0.00    +0.277 C 
ATOM     32  O   LIG    1       22.079 -17.689   4.098  0.00  0.00    -0.495 OA
ENDBRANCH  25  32
ENDBRANCH  24  28
ENDBRANCH  21  24
ENDBRANCH  19  21
ENDBRANCH  18  19
ENDBRANCH   1  18
TORSDOF 9
ENDMDL
MODEL 7
REMARK VINA RESULT:      -8.2      2.380      3.932
REMARK  Name = *****
REMARK                            x       y       z     vdW  Elec       q    Type
REMARK                         _______ _______ _______ _____ _____    ______ ____
ROOT
ATOM      1  C   LIG    1       24.204 -22.299   7.374  0.00  0.00    +0.162 C 
ENDROOT
BRANCH   1   2
ATOM      2  C   LIG    1       24.801 -21.377   6.316  0.00  0.00    +0.029 A 
ATOM      3  C   LIG    1       26.171 -21.041   6.322  0.00  0.00    +0.148 A 
ATOM      4  O   LIG    1       26.941 -21.573   7.323  0.00  0.00    -0.480 OA
ATOM      5  C   LIG    1       28.331 -21.313   7.246  0.00  0.00    +0.325 C 
ATOM      6  C   LIG    1       28.900 -20.226   6.331  0.00  0.00    +0.255 C 
ATOM      7  N   LIG    1       28.024 -19.765   5.386  0.00  0.00    -0.280 N 
ATOM      8  H   LIG    1       28.380 -19.076   4.736  0.00  0.00    +0.155 HD
ATOM      9  O   LIG    1       30.053 -19.831   6.390  0.00  0.00    -0.272 OA
ATOM     10  C   LIG    1       26.690 -20.163   5.352  0.00  0.00    +0.080 A 
ATOM     11  C   LIG    1       25.868 -19.632   4.362  0.00  0.00    +0.072 A 
ATOM     12  C   LIG    1       24.522 -19.966   4.351  0.00  0.00    +0.119 A 
ATOM     13  C   LIG    1       23.988 -20.836   5.300  0.00  0.00    +0.055 A 
BRANCH  12  14
ATOM     14  O   LIG    1       23.740 -19.386   3.396  0.00  0.00    -0.507 OA
ATOM     15  H   LIG    1       22.954 -19.942   3.262  0.00  0.00    +0.292 HD
ENDBRANCH  12  14
ENDBRANCH   1   2
BRANCH   1  16
ATOM     16  O   LIG    1       22.902 -21.832   7.754  0.00  0.00    -0.386 OA
ATOM     17  H   LIG    1       23.060 -21.279   8.545  0.00  0.00    +0.210 HD
ENDBRANCH   1  16
BRANCH   1  18
ATOM     18  C   LIG    1       24.068 -23.759   6.864  0.00  0.00    +0.117 C 
BRANCH  18  19
ATOM     19  N   LIG    1       25.358 -24.500   6.845  0.00  0.00    -0.308 NA
ATOM     20  H   LIG    1       26.087 -23.882   6.475  0.00  0.00    +0.122 HD
BRANCH  19  21
ATOM     21  C   LIG    1       25.349 -25.740   6.009  0.00  0.00    +0.018 C 
ATOM     22  C   LIG    1       25.097 -25.329   4.535  0.00  0.00    +0.027 C 
ATOM     23  C   LIG    1       26.761 -26.376   6.018  0.00  0.00    +0.027 C 
BRANCH  21  24
ATOM     24  C   LIG    1       24.275 -26.811   6.430  0.00  0.00    +0.056 C 
BRANCH  24  28
ATOM     25  C   LIG    1       25.414 -31.001   6.522  0.00  0.00    +0.120 A 
ATOM     26  C   LIG    1       25.327 -30.271   7.702  0.00  0.00    +0.046 A 
ATOM     27  C   LIG    1       25.000 -28.913   7.664  0.00  0.00    +0.007 A 
ATOM     28  C   LIG    1       24.738 -28.260   6.452  0.00  0.00    -0.045 A 
ATOM     29  C   LIG    1       24.898 -28.990   5.266  0.00  0.00    +0.007 A 
ATOM     30  C   LIG    1       25.226 -30.350   5.304  0.00  0.00    +0.046 A 
BRANCH  25  32
ATOM     31  C   LIG    1       25.529 -32.919   5.162  0.00  0.00    +0.277 C 
ATOM     32  O   LIG    1       25.717 -32.332   6.447  0.00  0.00    -0.495 OA
ENDBRANCH  25  32
ENDBRANCH  24  28
ENDBRANCH  21  24
ENDBRANCH  19  21
ENDBRANCH  18  19
ENDBRANCH   1  18
TORSDOF 9
ENDMDL
MODEL 8
REMARK VINA RESULT:      -8.2      2.320      4.885
REMARK  Name = *****
REMARK                            x       y       z     vdW  Elec       q    Type
REMARK                         _______ _______ _______ _____ _____    ______ ____
ROOT
ATOM      1  C   LIG    1       26.420 -21.390   7.672  0.00  0.00    +0.162 C 
ENDROOT
BRANCH   1   2
ATOM      2  C   LIG    1       27.634 -20.644   7.126  0.00  0.00    +0.029 A 
ATOM      3  C   LIG    1       28.916 -20.814   7.691  0.00  0.00    +0.148 A 
ATOM      4  O   LIG    1       29.023 -21.671   8.754  0.00  0.00    -0.480 OA
ATOM      5  C   LIG    1       30.334 -21.911   9.233  0.00  0.00    +0.325 C 
ATOM      6  C   LIG    1       31.512 -21.014   8.843  0.00  0.00    +0.255 C 
ATOM      7  N   LIG    1       31.270 -20.190   7.778  0.00  0.00    -0.280 N 
ATOM      8  H   LIG    1       32.041 -19.614   7.467  0.00  0.00    +0.155 HD
ATOM      9  O   LIG    1       32.601 -21.057   9.392  0.00  0.00    -0.272 OA
ATOM     10  C   LIG    1       30.013 -20.089   7.188  0.00  0.00    +0.080 A 
ATOM     11  C   LIG    1       29.856 -19.214   6.116  0.00  0.00    +0.072 A 
ATOM     12  C   LIG    1       28.598 -19.052   5.557  0.00  0.00    +0.119 A 
ATOM     13  C   LIG    1       27.498 -19.761   6.036  0.00  0.00    +0.055 A 
BRANCH  12  14
ATOM     14  O   LIG    1       28.475 -18.149   4.541  0.00  0.00    -0.507 OA
ATOM     15  H   LIG    1       27.621 -17.695   4.634  0.00  0.00    +0.292 HD
ENDBRANCH  12  14
ENDBRANCH   1   2
BRANCH   1  16
ATOM     16  O   LIG    1       26.414 -21.334   9.106  0.00  0.00    -0.386 OA
ATOM     17  H   LIG    1       27.287 -21.688   9.370  0.00  0.00    +0.210 HD
ENDBRANCH   1  16
BRANCH   1  18
ATOM     18  C   LIG    1       25.087 -20.788   7.155  0.00  0.00    +0.117 C 
BRANCH  18  19
ATOM     19  N   LIG    1       23.902 -21.640   7.446  0.00  0.00    -0.308 NA
ATOM     20  H   LIG    1       24.133 -22.272   8.220  0.00  0.00    +0.122 HD
BRANCH  19  21
ATOM     21  C   LIG    1       23.444 -22.481   6.298  0.00  0.00    +0.018 C 
ATOM     22  C   LIG    1       24.698 -23.004   5.550  0.00  0.00    +0.027 C 
ATOM     23  C   LIG    1       22.736 -23.747   6.838  0.00  0.00    +0.027 C 
BRANCH  21  24
ATOM     24  C   LIG    1       22.510 -21.740   5.270  0.00  0.00    +0.056 C 
BRANCH  24  28
ATOM     25  C   LIG    1       24.061 -17.936   3.860  0.00  0.00    +0.120 A 
ATOM     26  C   LIG    1       22.809 -18.005   4.459  0.00  0.00    +0.046 A 
ATOM     27  C   LIG    1       22.297 -19.237   4.874  0.00  0.00    +0.007 A 
ATOM     28  C   LIG    1       23.028 -20.421   4.715  0.00  0.00    -0.045 A 
ATOM     29  C   LIG    1       24.259 -20.348   4.046  0.00  0.00    +0.007 A 
ATOM     30  C   LIG    1       24.771 -19.113   3.629  0.00  0.00    +0.046 A 
BRANCH  25  32
ATOM     31  C   LIG    1       26.061 -16.887   3.192  0.00  0.00    +0.277 C 
ATOM     32  O   LIG    1       24.659 -16.785   3.426  0.00  0.00    -0.495 OA
ENDBRANCH  25  32
ENDBRANCH  24  28
ENDBRANCH  21  24
ENDBRANCH  19  21
ENDBRANCH  18  19
ENDBRANCH   1  18
TORSDOF 9
ENDMDL
MODEL 9
REMARK VINA RESULT:      -8.1      2.249      4.175
REMARK  Name = *****
REMARK                            x       y       z     vdW  Elec       q    Type
REMARK                         _______ _______ _______ _____ _____    ______ ____
ROOT
ATOM      1  C   LIG    1       26.256 -22.193   8.481  0.00  0.00    +0.162 C 
ENDROOT
BRANCH   1   2
ATOM      2  C   LIG    1       26.981 -21.317   7.464  0.00  0.00    +0.029 A 
ATOM      3  C   LIG    1       26.295 -20.727   6.381  0.00  0.00    +0.148 A 
ATOM      4  O   LIG    1       24.953 -20.981   6.278  0.00  0.00    -0.480 OA
ATOM      5  C   LIG    1       24.265 -20.291   5.249  0.00  0.00    +0.325 C 
ATOM      6  C   LIG    1       25.009 -19.595   4.107  0.00  0.00    +0.255 C 
ATOM      7  N   LIG    1       26.347 -19.418   4.326  0.00  0.00    -0.280 N 
ATOM      8  H   LIG    1       26.863 -18.924   3.610  0.00  0.00    +0.155 HD
ATOM      9  O   LIG    1       24.458 -19.176   3.102  0.00  0.00    -0.272 OA
ATOM     10  C   LIG    1       26.994 -19.949   5.440  0.00  0.00    +0.080 A 
ATOM     11  C   LIG    1       28.363 -19.730   5.574  0.00  0.00    +0.072 A 
ATOM     12  C   LIG    1       29.036 -20.304   6.642  0.00  0.00    +0.119 A 
ATOM     13  C   LIG    1       28.363 -21.076   7.587  0.00  0.00    +0.055 A 
BRANCH  12  14
ATOM     14  O   LIG    1       30.384 -20.108   6.711  0.00  0.00    -0.507 OA
ATOM     15  H   LIG    1       30.550 -19.247   7.131  0.00  0.00    +0.292 HD
ENDBRANCH  12  14
ENDBRANCH   1   2
BRANCH   1  16
ATOM     16  O   LIG    1       25.406 -21.385   9.307  0.00  0.00    -0.386 OA
ATOM     17  H   LIG    1       25.471 -20.488   8.925  0.00  0.00    +0.210 HD
ENDBRANCH   1  16
BRANCH   1  18
ATOM     18  C   LIG    1       25.382 -23.278   7.796  0.00  0.00    +0.117 C 
BRANCH  18  19
ATOM     19  N   LIG    1       26.069 -23.966   6.670  0.00  0.00    -0.308 NA
ATOM     20  H   LIG    1       26.557 -23.264   6.104  0.00  0.00    +0.122 HD
BRANCH  19  21
ATOM     21  C   LIG    1       25.160 -24.728   5.760  0.00  0.00    +0.018 C 
ATOM     22  C   LIG    1       23.815 -24.955   6.498  0.00  0.00    +0.027 C 
ATOM     23  C   LIG    1       24.808 -23.852   4.533  0.00  0.00    +0.027 C 
BRANCH  21  24
ATOM     24  C   LIG    1       25.720 -26.120   5.284  0.00  0.00    +0.056 C 
BRANCH  24  28
ATOM     25  C   LIG    1       24.764 -29.667   7.601  0.00  0.00    +0.120 A 
ATOM     26  C   LIG    1       24.152 -29.445   6.373  0.00  0.00    +0.046 A 
ATOM     27  C   LIG    1       24.432 -28.282   5.650  0.00  0.00    +0.007 A 
ATOM     28  C   LIG    1       25.339 -27.327   6.129  0.00  0.00    -0.045 A 
ATOM     29  C   LIG    1       25.895 -27.529   7.400  0.00  0.00    +0.007 A 
ATOM     30  C   LIG    1       25.614 -28.694   8.124  0.00  0.00    +0.046 A 
BRANCH  25  32
ATOM     31  C   LIG    1       24.522 -30.514   9.785  0.00  0.00    +0.277 C 
ATOM     32  O   LIG    1       24.569 -30.772   8.384  0.00  0.00    -0.495 OA
ENDBRANCH  25  32
ENDBRANCH  24  28
ENDBRANCH  21  24
ENDBRANCH  19  21
ENDBRANCH  18  19
ENDBRANCH   1  18
TORSDOF 9
ENDMDL
