MODEL 1
REMARK VINA RESULT:      -8.5      0.000      0.000
REMARK  Name = *****
REMARK                            x       y       z     vdW  Elec       q    Type
REMARK                         _______ _______ _______ _____ _____    ______ ____
ROOT
ATOM      1  C   LIG    1       25.580 -20.663   5.540  0.00  0.00    -0.001 C 
ATOM      2  C   LIG    1       26.774 -20.037   5.418  0.00  0.00    -0.016 C 
ENDROOT
BRANCH   1   5
ATOM      3  C   LIG    1       26.035 -21.507   8.674  0.00  0.00    +0.045 C 
ATOM      4  C   LIG    1       25.687 -22.361   7.498  0.00  0.00    -0.036 A 
ATOM      5  C   LIG    1       25.460 -21.952   6.181  0.00  0.00    +0.023 A 
ATOM      6  S   LIG    1       25.033 -23.317   5.199  0.00  0.00    -0.096 S 
ATOM      7  C   LIG    1       25.187 -24.417   6.489  0.00  0.00    +0.046 A 
ATOM      8  C   LIG    1       25.564 -23.788   7.647  0.00  0.00    +0.011 A 
ENDBRANCH   1   5
BRANCH   1   9
ATOM      9  C   LIG    1       24.438 -19.931   5.037  0.00  0.00    +0.023 A 
ATOM     10  C   LIG    1       24.352 -18.964   4.032  0.00  0.00    -0.036 A 
ATOM     11  C   LIG    1       25.486 -18.444   3.208  0.00  0.00    +0.045 C 
ATOM     12  C   LIG    1       23.007 -18.484   3.867  0.00  0.00    +0.011 A 
ATOM     13  C   LIG    1       22.113 -19.109   4.701  0.00  0.00    +0.046 A 
ATOM     14  S   LIG    1       22.873 -20.269   5.691  0.00  0.00    -0.096 S 
ENDBRANCH   1   9
BRANCH   2  15
ATOM     15  C   LIG    1       28.159 -20.505   5.797  0.00  0.00    +0.043 C 
BRANCH  15  16
ATOM     16  C   LIG    1       29.039 -19.377   6.362  0.00  0.00    +0.088 C 
BRANCH  16  17
ATOM     17  N   LIG    1       28.946 -19.232   7.832  0.00  0.00    -0.301 NA
ATOM     18  C   LIG    1       29.408 -20.453   8.527  0.00  0.00    +0.099 C 
ATOM     19  C   LIG    1       30.913 -20.705   8.365  0.00  0.00    +0.112 C 
ATOM     20  C   LIG    1       31.732 -19.497   8.828  0.00  0.00    +0.017 C 
ATOM     21  C   LIG    1       31.206 -18.193   8.225  0.00  0.00    +0.016 C 
ATOM     22  C   LIG    1       29.686 -18.073   8.363  0.00  0.00    +0.084 C 
BRANCH  19  23
ATOM     23  C   LIG    1       31.304 -21.962   9.091  0.00  0.00    +0.309 C 
ATOM     24  O   LIG    1       30.819 -22.352  10.152  0.00  0.00    -0.251 OA
BRANCH  23  25
ATOM     25  O   LIG    1       32.271 -22.675   8.494  0.00  0.00    -0.480 OA
ATOM     26  H   LIG    1       32.863 -21.997   8.105  0.00  0.00    +0.295 HD
ENDBRANCH  23  25
ENDBRANCH  19  23
ENDBRANCH  16  17
ENDBRANCH  15  16
ENDBRANCH   2  15
TORSDOF 7
ENDMDL
MODEL 2
REMARK VINA RESULT:      -8.1      1.735      2.205
REMARK  Name = *****
REMARK                            x       y       z     vdW  Elec       q    Type
REMARK                         _______ _______ _______ _____ _____    ______ ____
ROOT
ATOM      1  C   LIG    1       25.518 -20.735   5.662  0.00  0.00    -0.001 C 
ATOM      2  C   LIG    1       26.677 -20.037   5.686  0.00  0.00    -0.016 C 
ENDROOT
BRANCH   1   5
ATOM      3  C   LIG    1       25.977 -21.804   8.726  0.00  0.00    +0.045 C 
ATOM      4  C   LIG    1       25.655 -22.573   7.487  0.00  0.00    -0.036 A 
ATOM      5  C   LIG    1       25.425 -22.071   6.203  0.00  0.00    +0.023 A 
ATOM      6  S   LIG    1       25.034 -23.368   5.118  0.00  0.00    -0.096 S 
ATOM      7  C   LIG    1       25.208 -24.558   6.322  0.00  0.00    +0.046 A 
ATOM      8  C   LIG    1       25.564 -24.010   7.527  0.00  0.00    +0.011 A 
ENDBRANCH   1   5
BRANCH   1   9
ATOM      9  C   LIG    1       24.378 -20.033   5.112  0.00  0.00    +0.023 A 
ATOM     10  C   LIG    1       24.304 -19.092   4.083  0.00  0.00    -0.036 A 
ATOM     11  C   LIG    1       25.451 -18.573   3.276  0.00  0.00    +0.045 C 
ATOM     12  C   LIG    1       22.957 -18.638   3.872  0.00  0.00    +0.011 A 
ATOM     13  C   LIG    1       22.051 -19.257   4.697  0.00  0.00    +0.046 A 
ATOM     14  S   LIG    1       22.802 -20.381   5.733  0.00  0.00    -0.096 S 
ENDBRANCH   1   9
BRANCH   2  15
ATOM     15  C   LIG    1       28.052 -20.452   6.152  0.00  0.00    +0.043 C 
BRANCH  15  16
ATOM     16  C   LIG    1       28.521 -19.685   7.399  0.00  0.00    +0.088 C 
BRANCH  16  17
ATOM     17  N   LIG    1       29.664 -18.780   7.144  0.00  0.00    -0.301 NA
ATOM     18  C   LIG    1       29.862 -17.831   8.261  0.00  0.00    +0.099 C 
ATOM     19  C   LIG    1       30.327 -18.513   9.554  0.00  0.00    +0.112 C 
ATOM     20  C   LIG    1       31.603 -19.327   9.325  0.00  0.00    +0.017 C 
ATOM     21  C   LIG    1       31.483 -20.235   8.100  0.00  0.00    +0.016 C 
ATOM     22  C   LIG    1       30.933 -19.483   6.885  0.00  0.00    +0.084 C 
BRANCH  19  23
ATOM     23  C   LIG    1       30.501 -17.488  10.641  0.00  0.00    +0.309 C 
ATOM     24  O   LIG    1       30.107 -16.324  10.592  0.00  0.00    -0.251 OA
BRANCH  23  25
ATOM     25  O   LIG    1       31.152 -17.930  11.727  0.00  0.00    -0.480 OA
ATOM     26  H   LIG    1       30.892 -18.873  11.795  0.00  0.00    +0.295 HD
ENDBRANCH  23  25
ENDBRANCH  19  23
ENDBRANCH  16  17
ENDBRANCH  15  16
ENDBRANCH   2  15
TORSDOF 7
ENDMDL
MODEL 3
REMARK VINA RESULT:      -8.1      2.144      4.454
REMARK  Name = *****
REMARK                            x       y       z     vdW  Elec       q    Type
REMARK                         _______ _______ _______ _____ _____    ______ ____
ROOT
ATOM      1  C   LIG    1       25.159 -21.995   6.673  0.00  0.00    -0.001 C 
ATOM      2  C   LIG    1       25.714 -21.662   7.862  0.00  0.00    -0.016 C 
ENDROOT
BRANCH   1   5
ATOM      3  C   LIG    1       22.373 -20.800   5.427  0.00  0.00    +0.045 C 
ATOM      4  C   LIG    1       23.788 -20.512   5.044  0.00  0.00    -0.036 A 
ATOM      5  C   LIG    1       24.952 -21.014   5.632  0.00  0.00    +0.023 A 
ATOM      6  S   LIG    1       26.350 -20.334   4.860  0.00  0.00    -0.096 S 
ATOM      7  C   LIG    1       25.421 -19.433   3.754  0.00  0.00    +0.046 A 
ATOM      8  C   LIG    1       24.078 -19.635   3.940  0.00  0.00    +0.011 A 
ENDBRANCH   1   5
BRANCH   1   9
ATOM      9  C   LIG    1       24.844 -23.396   6.501  0.00  0.00    +0.023 A 
ATOM     10  C   LIG    1       23.617 -24.061   6.545  0.00  0.00    -0.036 A 
ATOM     11  C   LIG    1       22.281 -23.434   6.793  0.00  0.00    +0.045 C 
ATOM     12  C   LIG    1       23.767 -25.474   6.333  0.00  0.00    +0.011 A 
ATOM     13  C   LIG    1       25.069 -25.841   6.096  0.00  0.00    +0.046 A 
ATOM     14  S   LIG    1       26.122 -24.503   6.133  0.00  0.00    -0.096 S 
ENDBRANCH   1   9
BRANCH   2  15
ATOM     15  C   LIG    1       26.137 -20.314   8.394  0.00  0.00    +0.043 C 
BRANCH  15  16
ATOM     16  C   LIG    1       27.625 -20.260   8.778  0.00  0.00    +0.088 C 
BRANCH  16  17
ATOM     17  N   LIG    1       28.526 -20.019   7.629  0.00  0.00    -0.301 NA
ATOM     18  C   LIG    1       29.265 -18.747   7.779  0.00  0.00    +0.099 C 
ATOM     19  C   LIG    1       30.280 -18.772   8.929  0.00  0.00    +0.112 C 
ATOM     20  C   LIG    1       31.263 -19.935   8.778  0.00  0.00    +0.017 C 
ATOM     21  C   LIG    1       30.541 -21.254   8.497  0.00  0.00    +0.016 C 
ATOM     22  C   LIG    1       29.492 -21.107   7.392  0.00  0.00    +0.084 C 
BRANCH  19  23
ATOM     23  C   LIG    1       30.984 -17.447   9.021  0.00  0.00    +0.309 C 
ATOM     24  O   LIG    1       30.597 -16.478   9.670  0.00  0.00    -0.251 OA
BRANCH  23  25
ATOM     25  O   LIG    1       32.120 -17.368   8.311  0.00  0.00    -0.480 OA
ATOM     26  H   LIG    1       32.821 -17.615   8.952  0.00  0.00    +0.295 HD
ENDBRANCH  23  25
ENDBRANCH  19  23
ENDBRANCH  16  17
ENDBRANCH  15  16
ENDBRANCH   2  15
TORSDOF 7
ENDMDL
MODEL 4
REMARK VINA RESULT:      -8.0      3.678      6.964
REMARK  Name = *****
REMARK                            x       y       z     vdW  Elec       q    Type
REMARK                         _______ _______ _______ _____ _____    ______ ____
ROOT
ATOM      1  C   LIG    1       25.870 -21.359   6.067  0.00  0.00    -0.001 C 
ATOM      2  C   LIG    1       25.870 -22.712   6.124  0.00  0.00    -0.016 C 
ENDROOT
BRANCH   1   5
ATOM      3  C   LIG    1       22.865 -20.679   7.185  0.00  0.00    +0.045 C 
ATOM      4  C   LIG    1       23.487 -20.352   5.868  0.00  0.00    -0.036 A 
ATOM      5  C   LIG    1       24.792 -20.625   5.446  0.00  0.00    +0.023 A 
ATOM      6  S   LIG    1       25.046 -19.993   3.850  0.00  0.00    -0.096 S 
ATOM      7  C   LIG    1       23.452 -19.411   3.720  0.00  0.00    +0.046 A 
ATOM      8  C   LIG    1       22.720 -19.688   4.846  0.00  0.00    +0.011 A 
ENDBRANCH   1   5
BRANCH   1   9
ATOM      9  C   LIG    1       26.988 -20.708   6.714  0.00  0.00    +0.023 A 
ATOM     10  C   LIG    1       27.156 -20.302   8.040  0.00  0.00    -0.036 A 
ATOM     11  C   LIG    1       26.161 -20.461   9.146  0.00  0.00    +0.045 C 
ATOM     12  C   LIG    1       28.432 -19.675   8.248  0.00  0.00    +0.011 A 
ATOM     13  C   LIG    1       29.206 -19.653   7.114  0.00  0.00    +0.046 A 
ATOM     14  S   LIG    1       28.413 -20.376   5.791  0.00  0.00    -0.096 S 
ENDBRANCH   1   9
BRANCH   2  15
ATOM     15  C   LIG    1       24.896 -23.708   5.542  0.00  0.00    +0.043 C 
BRANCH  15  16
ATOM     16  C   LIG    1       24.898 -25.054   6.285  0.00  0.00    +0.088 C 
BRANCH  16  17
ATOM     17  N   LIG    1       26.018 -25.943   5.900  0.00  0.00    -0.301 NA
ATOM     18  C   LIG    1       26.385 -26.858   7.003  0.00  0.00    +0.099 C 
ATOM     19  C   LIG    1       25.298 -27.895   7.312  0.00  0.00    +0.112 C 
ATOM     20  C   LIG    1       24.927 -28.700   6.064  0.00  0.00    +0.017 C 
ATOM     21  C   LIG    1       24.658 -27.792   4.863  0.00  0.00    +0.016 C 
ATOM     22  C   LIG    1       25.756 -26.738   4.688  0.00  0.00    +0.084 C 
BRANCH  19  23
ATOM     23  C   LIG    1       25.741 -28.781   8.443  0.00  0.00    +0.309 C 
ATOM     24  O   LIG    1       25.047 -29.632   8.995  0.00  0.00    -0.251 OA
BRANCH  23  25
ATOM     25  O   LIG    1       27.004 -28.580   8.848  0.00  0.00    -0.480 OA
ATOM     26  H   LIG    1       27.475 -29.398   8.582  0.00  0.00    +0.295 HD
ENDBRANCH  23  25
ENDBRANCH  19  23
ENDBRANCH  16  17
ENDBRANCH  15  16
ENDBRANCH   2  15
TORSDOF 7
ENDMDL
MODEL 5
REMARK VINA RESULT:      -8.0      3.569      7.020
REMARK  Name = *****
REMARK                            x       y       z     vdW  Elec       q    Type
REMARK                         _______ _______ _______ _____ _____    ______ ____
ROOT
ATOM      1  C   LIG    1       25.613 -21.396   6.071  0.00  0.00    -0.001 C 
ATOM      2  C   LIG    1       25.604 -22.747   6.143  0.00  0.00    -0.016 C 
ENDROOT
BRANCH   1   5
ATOM      3  C   LIG    1       25.604 -19.636   3.306  0.00  0.00    +0.045 C 
ATOM      4  C   LIG    1       24.506 -19.867   4.291  0.00  0.00    -0.036 A 
ATOM      5  C   LIG    1       24.540 -20.662   5.440  0.00  0.00    +0.023 A 
ATOM      6  S   LIG    1       22.991 -20.647   6.222  0.00  0.00    -0.096 S 
ATOM      7  C   LIG    1       22.316 -19.582   5.079  0.00  0.00    +0.046 A 
ATOM      8  C   LIG    1       23.230 -19.222   4.122  0.00  0.00    +0.011 A 
ENDBRANCH   1   5
BRANCH   1   9
ATOM      9  C   LIG    1       26.734 -20.744   6.713  0.00  0.00    +0.023 A 
ATOM     10  C   LIG    1       26.927 -20.377   8.047  0.00  0.00    -0.036 A 
ATOM     11  C   LIG    1       25.962 -20.590   9.170  0.00  0.00    +0.045 C 
ATOM     12  C   LIG    1       28.196 -19.733   8.245  0.00  0.00    +0.011 A 
ATOM     13  C   LIG    1       28.942 -19.661   7.094  0.00  0.00    +0.046 A 
ATOM     14  S   LIG    1       28.131 -20.356   5.768  0.00  0.00    -0.096 S 
ENDBRANCH   1   9
BRANCH   2  15
ATOM     15  C   LIG    1       24.625 -23.744   5.571  0.00  0.00    +0.043 C 
BRANCH  15  16
ATOM     16  C   LIG    1       24.685 -25.113   6.269  0.00  0.00    +0.088 C 
BRANCH  16  17
ATOM     17  N   LIG    1       25.897 -25.895   5.938  0.00  0.00    -0.301 NA
ATOM     18  C   LIG    1       26.293 -26.777   7.058  0.00  0.00    +0.099 C 
ATOM     19  C   LIG    1       25.291 -27.910   7.315  0.00  0.00    +0.112 C 
ATOM     20  C   LIG    1       25.053 -28.741   6.052  0.00  0.00    +0.017 C 
ATOM     21  C   LIG    1       24.761 -27.856   4.839  0.00  0.00    +0.016 C 
ATOM     22  C   LIG    1       25.766 -26.707   4.715  0.00  0.00    +0.084 C 
BRANCH  19  23
ATOM     23  C   LIG    1       25.758 -28.757   8.466  0.00  0.00    +0.309 C 
ATOM     24  O   LIG    1       25.080 -29.599   9.052  0.00  0.00    -0.251 OA
BRANCH  23  25
ATOM     25  O   LIG    1       27.023 -28.529   8.850  0.00  0.00    -0.480 OA
ATOM     26  H   LIG    1       27.429 -28.075   8.081  0.00  0.00    +0.295 HD
ENDBRANCH  23  25
ENDBRANCH  19  23
ENDBRANCH  16  17
ENDBRANCH  15  16
ENDBRANCH   2  15
TORSDOF 7
ENDMDL
MODEL 6
REMARK VINA RESULT:      -7.9      1.017      3.652
REMARK  Name = *****
REMARK                            x       y       z     vdW  Elec       q    Type
REMARK                         _______ _______ _______ _____ _____    ______ ____
ROOT
ATOM      1  C   LIG    1       25.743 -21.404   5.726  0.00  0.00    -0.001 C 
ATOM      2  C   LIG    1       27.026 -20.990   5.840  0.00  0.00    -0.016 C 
ENDROOT
BRANCH   1   5
ATOM      3  C   LIG    1       22.938 -20.508   7.166  0.00  0.00    +0.045 C 
ATOM      4  C   LIG    1       23.474 -20.149   5.819  0.00  0.00    -0.036 A 
ATOM      5  C   LIG    1       24.699 -20.521   5.258  0.00  0.00    +0.023 A 
ATOM      6  S   LIG    1       24.879 -19.801   3.689  0.00  0.00    -0.096 S 
ATOM      7  C   LIG    1       23.351 -19.053   3.750  0.00  0.00    +0.046 A 
ATOM      8  C   LIG    1       22.695 -19.337   4.920  0.00  0.00    +0.011 A 
ENDBRANCH   1   5
BRANCH   1   9
ATOM      9  C   LIG    1       25.504 -22.794   6.049  0.00  0.00    +0.023 A 
ATOM     10  C   LIG    1       25.698 -23.493   7.243  0.00  0.00    -0.036 A 
ATOM     11  C   LIG    1       26.224 -22.926   8.523  0.00  0.00    +0.045 C 
ATOM     12  C   LIG    1       25.340 -24.878   7.114  0.00  0.00    +0.011 A 
ATOM     13  C   LIG    1       24.854 -25.189   5.868  0.00  0.00    +0.046 A 
ATOM     14  S   LIG    1       24.828 -23.830   4.840  0.00  0.00    -0.096 S 
ENDBRANCH   1   9
BRANCH   2  15
ATOM     15  C   LIG    1       27.629 -19.624   5.618  0.00  0.00    +0.043 C 
BRANCH  15  16
ATOM     16  C   LIG    1       29.003 -19.457   6.290  0.00  0.00    +0.088 C 
BRANCH  16  17
ATOM     17  N   LIG    1       28.927 -19.272   7.757  0.00  0.00    -0.301 NA
ATOM     18  C   LIG    1       29.391 -20.477   8.478  0.00  0.00    +0.099 C 
ATOM     19  C   LIG    1       30.893 -20.740   8.306  0.00  0.00    +0.112 C 
ATOM     20  C   LIG    1       31.722 -19.524   8.727  0.00  0.00    +0.017 C 
ATOM     21  C   LIG    1       31.196 -18.234   8.097  0.00  0.00    +0.016 C 
ATOM     22  C   LIG    1       29.678 -18.103   8.248  0.00  0.00    +0.084 C 
BRANCH  19  23
ATOM     23  C   LIG    1       31.286 -21.979   9.062  0.00  0.00    +0.309 C 
ATOM     24  O   LIG    1       30.791 -22.353  10.124  0.00  0.00    -0.251 OA
BRANCH  23  25
ATOM     25  O   LIG    1       32.267 -22.694   8.491  0.00  0.00    -0.480 OA
ATOM     26  H   LIG    1       33.026 -22.593   9.103  0.00  0.00    +0.295 HD
ENDBRANCH  23  25
ENDBRANCH  19  23
ENDBRANCH  16  17
ENDBRANCH  15  16
ENDBRANCH   2  15
TORSDOF 7
ENDMDL
MODEL 7
REMARK VINA RESULT:      -7.9      3.585      6.267
REMARK  Name = *****
REMARK                            x       y       z     vdW  Elec       q    Type
REMARK                         _______ _______ _______ _____ _____    ______ ____
ROOT
ATOM      1  C   LIG    1       25.345 -21.258   5.974  0.00  0.00    -0.001 C 
ATOM      2  C   LIG    1       25.107 -22.588   5.886  0.00  0.00    -0.016 C 
ENDROOT
BRANCH   1   5
ATOM      3  C   LIG    1       25.879 -20.677   9.156  0.00  0.00    +0.045 C 
ATOM      4  C   LIG    1       26.770 -20.437   7.981  0.00  0.00    -0.036 A 
ATOM      5  C   LIG    1       26.518 -20.739   6.640  0.00  0.00    +0.023 A 
ATOM      6  S   LIG    1       27.890 -20.315   5.665  0.00  0.00    -0.096 S 
ATOM      7  C   LIG    1       28.769 -19.713   6.992  0.00  0.00    +0.046 A 
ATOM      8  C   LIG    1       28.054 -19.810   8.158  0.00  0.00    +0.011 A 
ENDBRANCH   1   5
BRANCH   1   9
ATOM      9  C   LIG    1       24.379 -20.407   5.315  0.00  0.00    +0.023 A 
ATOM     10  C   LIG    1       24.482 -19.661   4.138  0.00  0.00    -0.036 A 
ATOM     11  C   LIG    1       25.682 -19.575   3.250  0.00  0.00    +0.045 C 
ATOM     12  C   LIG    1       23.272 -18.940   3.855  0.00  0.00    +0.011 A 
ATOM     13  C   LIG    1       22.283 -19.177   4.778  0.00  0.00    +0.046 A 
ATOM     14  S   LIG    1       22.794 -20.258   5.991  0.00  0.00    -0.096 S 
ENDBRANCH   1   9
BRANCH   2  15
ATOM     15  C   LIG    1       25.872 -23.752   6.468  0.00  0.00    +0.043 C 
BRANCH  15  16
ATOM     16  C   LIG    1       25.233 -25.113   6.145  0.00  0.00    +0.088 C 
BRANCH  16  17
ATOM     17  N   LIG    1       26.212 -26.149   5.747  0.00  0.00    -0.301 NA
ATOM     18  C   LIG    1       26.550 -27.037   6.881  0.00  0.00    +0.099 C 
ATOM     19  C   LIG    1       25.376 -27.917   7.327  0.00  0.00    +0.112 C 
ATOM     20  C   LIG    1       24.826 -28.743   6.160  0.00  0.00    +0.017 C 
ATOM     21  C   LIG    1       24.578 -27.878   4.923  0.00  0.00    +0.016 C 
ATOM     22  C   LIG    1       25.774 -26.975   4.608  0.00  0.00    +0.084 C 
BRANCH  19  23
ATOM     23  C   LIG    1       25.795 -28.784   8.481  0.00  0.00    +0.309 C 
ATOM     24  O   LIG    1       25.091 -29.633   9.027  0.00  0.00    -0.251 OA
BRANCH  23  25
ATOM     25  O   LIG    1       27.045 -28.568   8.918  0.00  0.00    -0.480 OA
ATOM     26  H   LIG    1       27.202 -29.290   9.563  0.00  0.00    +0.295 HD
ENDBRANCH  23  25
ENDBRANCH  19  23
ENDBRANCH  16  17
ENDBRANCH  15  16
ENDBRANCH   2  15
TORSDOF 7
ENDMDL
MODEL 8
REMARK VINA RESULT:      -7.8      1.961      2.562
REMARK  Name = *****
REMARK                            x       y       z     vdW  Elec       q    Type
REMARK                         _______ _______ _______ _____ _____    ______ ____
ROOT
ATOM      1  C   LIG    1       25.662 -20.858   5.710  0.00  0.00    -0.001 C 
ATOM      2  C   LIG    1       26.808 -20.143   5.803  0.00  0.00    -0.016 C 
ENDROOT
BRANCH   1   5
ATOM      3  C   LIG    1       26.145 -21.999   8.744  0.00  0.00    +0.045 C 
ATOM      4  C   LIG    1       25.803 -22.738   7.492  0.00  0.00    -0.036 A 
ATOM      5  C   LIG    1       25.564 -22.205   6.222  0.00  0.00    +0.023 A 
ATOM      6  S   LIG    1       25.151 -23.474   5.112  0.00  0.00    -0.096 S 
ATOM      7  C   LIG    1       25.327 -24.692   6.287  0.00  0.00    +0.046 A 
ATOM      8  C   LIG    1       25.701 -24.174   7.500  0.00  0.00    +0.011 A 
ENDBRANCH   1   5
BRANCH   1   9
ATOM      9  C   LIG    1       24.539 -20.163   5.118  0.00  0.00    +0.023 A 
ATOM     10  C   LIG    1       23.205 -20.086   5.523  0.00  0.00    -0.036 A 
ATOM     11  C   LIG    1       22.609 -20.741   6.728  0.00  0.00    +0.045 C 
ATOM     12  C   LIG    1       22.419 -19.289   4.622  0.00  0.00    +0.011 A 
ATOM     13  C   LIG    1       23.161 -18.756   3.597  0.00  0.00    +0.046 A 
ATOM     14  S   LIG    1       24.800 -19.207   3.700  0.00  0.00    -0.096 S 
ENDBRANCH   1   9
BRANCH   2  15
ATOM     15  C   LIG    1       28.164 -20.547   6.328  0.00  0.00    +0.043 C 
BRANCH  15  16
ATOM     16  C   LIG    1       28.624 -19.694   7.522  0.00  0.00    +0.088 C 
BRANCH  16  17
ATOM     17  N   LIG    1       29.723 -18.758   7.195  0.00  0.00    -0.301 NA
ATOM     18  C   LIG    1       29.969 -17.806   8.299  0.00  0.00    +0.099 C 
ATOM     19  C   LIG    1       30.537 -18.476   9.557  0.00  0.00    +0.112 C 
ATOM     20  C   LIG    1       31.816 -19.255   9.242  0.00  0.00    +0.017 C 
ATOM     21  C   LIG    1       31.640 -20.164   8.025  0.00  0.00    +0.016 C 
ATOM     22  C   LIG    1       30.991 -19.427   6.851  0.00  0.00    +0.084 C 
BRANCH  19  23
ATOM     23  C   LIG    1       30.754 -17.448  10.632  0.00  0.00    +0.309 C 
ATOM     24  O   LIG    1       29.964 -16.554  10.933  0.00  0.00    -0.251 OA
BRANCH  23  25
ATOM     25  O   LIG    1       31.923 -17.555  11.280  0.00  0.00    -0.480 OA
ATOM     26  H   LIG    1       31.969 -16.743  11.828  0.00  0.00    +0.295 HD
ENDBRANCH  23  25
ENDBRANCH  19  23
ENDBRANCH  16  17
ENDBRANCH  15  16
ENDBRANCH   2  15
TORSDOF 7
ENDMDL
MODEL 9
REMARK VINA RESULT:      -7.5      2.006      2.578
REMARK  Name = *****
REMARK                            x       y       z     vdW  Elec       q    Type
REMARK                         _______ _______ _______ _____ _____    ______ ____
ROOT
ATOM      1  C   LIG    1       25.394 -21.263   5.778  0.00  0.00    -0.001 C 
ATOM      2  C   LIG    1       26.527 -20.935   6.441  0.00  0.00    -0.016 C 
ENDROOT
BRANCH   1   5
ATOM      3  C   LIG    1       23.000 -21.963   7.905  0.00  0.00    +0.045 C 
ATOM      4  C   LIG    1       23.714 -22.859   6.946  0.00  0.00    -0.036 A 
ATOM      5  C   LIG    1       24.704 -22.509   6.024  0.00  0.00    +0.023 A 
ATOM      6  S   LIG    1       25.177 -23.900   5.101  0.00  0.00    -0.096 S 
ATOM      7  C   LIG    1       24.119 -24.937   5.939  0.00  0.00    +0.046 A 
ATOM      8  C   LIG    1       23.420 -24.268   6.910  0.00  0.00    +0.011 A 
ENDBRANCH   1   5
BRANCH   1   9
ATOM      9  C   LIG    1       24.898 -20.263   4.857  0.00  0.00    +0.023 A 
ATOM     10  C   LIG    1       23.589 -19.906   4.525  0.00  0.00    -0.036 A 
ATOM     11  C   LIG    1       22.340 -20.511   5.082  0.00  0.00    +0.045 C 
ATOM     12  C   LIG    1       23.555 -18.859   3.542  0.00  0.00    +0.011 A 
ATOM     13  C   LIG    1       24.807 -18.424   3.183  0.00  0.00    +0.046 A 
ATOM     14  S   LIG    1       26.033 -19.266   4.014  0.00  0.00    -0.096 S 
ENDBRANCH   1   9
BRANCH   2  15
ATOM     15  C   LIG    1       27.333 -21.730   7.439  0.00  0.00    +0.043 C 
BRANCH  15  16
ATOM     16  C   LIG    1       28.662 -21.053   7.815  0.00  0.00    +0.088 C 
BRANCH  16  17
ATOM     17  N   LIG    1       28.681 -19.596   7.551  0.00  0.00    -0.301 NA
ATOM     18  C   LIG    1       29.190 -18.842   8.717  0.00  0.00    +0.099 C 
ATOM     19  C   LIG    1       30.678 -19.096   8.994  0.00  0.00    +0.112 C 
ATOM     20  C   LIG    1       31.533 -18.795   7.760  0.00  0.00    +0.017 C 
ATOM     21  C   LIG    1       30.967 -19.459   6.504  0.00  0.00    +0.016 C 
ATOM     22  C   LIG    1       29.461 -19.218   6.360  0.00  0.00    +0.084 C 
BRANCH  19  23
ATOM     23  C   LIG    1       31.119 -18.302  10.192  0.00  0.00    +0.309 C 
ATOM     24  O   LIG    1       32.273 -17.949  10.427  0.00  0.00    -0.251 OA
BRANCH  23  25
ATOM     25  O   LIG    1       30.134 -17.985  11.046  0.00  0.00    -0.480 OA
ATOM     26  H   LIG    1       29.440 -17.591  10.476  0.00  0.00    +0.295 HD
ENDBRANCH  23  25
ENDBRANCH  19  23
ENDBRANCH  16  17
ENDBRANCH  15  16
ENDBRANCH   2  15
TORSDOF 7
ENDMDL
