MODEL 1
REMARK VINA RESULT:      -7.4      0.000      0.000
REMARK  Name = *****
REMARK                            x       y       z     vdW  Elec       q    Type
REMARK                         _______ _______ _______ _____ _____    ______ ____
ROOT
ATOM      1  N   LIG    1       24.353 -20.745   5.969  0.00  0.00    -0.287 NA
ATOM      2  C   LIG    1       23.615 -22.020   6.060  0.00  0.00    +0.108 C 
ATOM      3  C   LIG    1       24.503 -23.310   6.075  0.00  0.00    +0.039 C 
ATOM      4  C   LIG    1       23.713 -24.484   6.662  0.00  0.00    +0.030 C 
ATOM      5  C   LIG    1       25.776 -23.084   6.945  0.00  0.00    +0.108 C 
ATOM      6  N   LIG    1       26.416 -21.778   6.686  0.00  0.00    -0.287 NA
ATOM      7  C   LIG    1       25.414 -20.739   6.972  0.00  0.00    +0.171 C 
ENDROOT
BRANCH   3   8
ATOM      8  N   LIG    1       24.887 -23.733   4.708  0.00  0.00    -0.323 NA
ATOM      9  H   LIG    1       25.196 -24.682   4.716  0.00  0.00    +0.119 HD
ATOM     10  H   LIG    1       24.023 -23.738   4.145  0.00  0.00    +0.119 HD
ENDBRANCH   3   8
BRANCH   1  11
ATOM     11  C   LIG    1       24.730 -20.372   4.591  0.00  0.00    +0.089 C 
BRANCH  11  12
ATOM     12  C   LIG    1       23.845 -19.369   3.774  0.00  0.00    +0.003 C 
BRANCH  12  13
ATOM     13  C   LIG    1       22.506 -19.053   4.529  0.00  0.00    +0.001 C 
ATOM     14  C   LIG    1       22.111 -17.587   4.657  0.00  0.00    +0.004 C 
ENDBRANCH  12  13
BRANCH  12  15
ATOM     15  C   LIG    1       24.526 -17.988   3.512  0.00  0.00    +0.005 C 
BRANCH  15  16
ATOM     16  C   LIG    1       26.051 -18.021   3.411  0.00  0.00    +0.000 C 
BRANCH  16  18
ATOM     17  C   LIG    1       25.798 -15.468   3.468  0.00  0.00    +0.004 C 
ATOM     18  C   LIG    1       26.741 -16.655   3.413  0.00  0.00    -0.003 C 
ENDBRANCH  16  18
ENDBRANCH  15  16
ENDBRANCH  12  15
ENDBRANCH  11  12
ENDBRANCH   1  11
BRANCH   6  19
ATOM     19  C   LIG    1       27.618 -21.579   7.530  0.00  0.00    +0.089 C 
BRANCH  19  20
ATOM     20  C   LIG    1       28.760 -20.661   6.976  0.00  0.00    +0.003 C 
BRANCH  20  21
ATOM     21  C   LIG    1       28.338 -19.830   5.740  0.00  0.00    +0.001 C 
ATOM     22  C   LIG    1       29.176 -18.567   5.517  0.00  0.00    +0.004 C 
ENDBRANCH  20  21
BRANCH  20  23
ATOM     23  C   LIG    1       29.359 -19.781   8.104  0.00  0.00    +0.005 C 
BRANCH  23  24
ATOM     24  C   LIG    1       30.847 -20.005   8.396  0.00  0.00    +0.000 C 
BRANCH  24  25
ATOM     25  C   LIG    1       31.569 -18.677   8.638  0.00  0.00    -0.003 C 
ATOM     26  C   LIG    1       30.612 -17.596   9.115  0.00  0.00    +0.004 C 
ENDBRANCH  24  25
ENDBRANCH  23  24
ENDBRANCH  20  23
ENDBRANCH  19  20
ENDBRANCH   6  19
TORSDOF 13
ENDMDL
MODEL 2
REMARK VINA RESULT:      -7.3      1.069      1.930
REMARK  Name = *****
REMARK                            x       y       z     vdW  Elec       q    Type
REMARK                         _______ _______ _______ _____ _____    ______ ____
ROOT
ATOM      1  N   LIG    1       23.737 -21.917   6.380  0.00  0.00    -0.287 NA
ATOM      2  C   LIG    1       23.433 -23.360   6.328  0.00  0.00    +0.108 C 
ATOM      3  C   LIG    1       24.666 -24.299   6.110  0.00  0.00    +0.039 C 
ATOM      4  C   LIG    1       24.328 -25.723   6.564  0.00  0.00    +0.030 C 
ATOM      5  C   LIG    1       25.888 -23.792   6.934  0.00  0.00    +0.108 C 
ATOM      6  N   LIG    1       26.075 -22.330   6.830  0.00  0.00    -0.287 NA
ATOM      7  C   LIG    1       24.838 -21.699   7.316  0.00  0.00    +0.171 C 
ENDROOT
BRANCH   3   8
ATOM      8  N   LIG    1       25.028 -24.414   4.678  0.00  0.00    -0.323 NA
ATOM      9  H   LIG    1       24.446 -25.089   4.229  0.00  0.00    +0.119 HD
ATOM     10  H   LIG    1       24.783 -23.515   4.237  0.00  0.00    +0.119 HD
ENDBRANCH   3   8
BRANCH   1  11
ATOM     11  C   LIG    1       23.851 -21.283   5.052  0.00  0.00    +0.089 C 
BRANCH  11  12
ATOM     12  C   LIG    1       23.816 -19.721   4.917  0.00  0.00    +0.003 C 
BRANCH  12  13
ATOM     13  C   LIG    1       24.291 -19.266   3.493  0.00  0.00    +0.001 C 
ATOM     14  C   LIG    1       25.475 -18.310   3.429  0.00  0.00    +0.004 C 
ENDBRANCH  12  13
BRANCH  12  15
ATOM     15  C   LIG    1       22.399 -19.096   5.118  0.00  0.00    +0.005 C 
BRANCH  15  16
ATOM     16  C   LIG    1       22.106 -17.858   4.269  0.00  0.00    +0.000 C 
BRANCH  16  18
ATOM     17  C   LIG    1       23.128 -15.508   4.404  0.00  0.00    +0.004 C 
ATOM     18  C   LIG    1       22.174 -16.521   5.010  0.00  0.00    -0.003 C 
ENDBRANCH  16  18
ENDBRANCH  15  16
ENDBRANCH  12  15
ENDBRANCH  11  12
ENDBRANCH   1  11
BRANCH   6  19
ATOM     19  C   LIG    1       27.235 -21.868   7.629  0.00  0.00    +0.089 C 
BRANCH  19  20
ATOM     20  C   LIG    1       28.299 -20.964   6.919  0.00  0.00    +0.003 C 
BRANCH  20  21
ATOM     21  C   LIG    1       27.716 -20.113   5.766  0.00  0.00    +0.001 C 
ATOM     22  C   LIG    1       28.572 -18.901   5.384  0.00  0.00    +0.004 C 
ENDBRANCH  20  21
BRANCH  20  23
ATOM     23  C   LIG    1       29.073 -20.105   7.955  0.00  0.00    +0.005 C 
BRANCH  23  24
ATOM     24  C   LIG    1       30.593 -20.302   7.971  0.00  0.00    +0.000 C 
BRANCH  24  25
ATOM     25  C   LIG    1       31.324 -18.959   8.060  0.00  0.00    -0.003 C 
ATOM     26  C   LIG    1       30.453 -17.887   8.696  0.00  0.00    +0.004 C 
ENDBRANCH  24  25
ENDBRANCH  23  24
ENDBRANCH  20  23
ENDBRANCH  19  20
ENDBRANCH   6  19
TORSDOF 13
ENDMDL
MODEL 3
REMARK VINA RESULT:      -6.8      1.545      6.537
REMARK  Name = *****
REMARK                            x       y       z     vdW  Elec       q    Type
REMARK                         _______ _______ _______ _____ _____    ______ ____
ROOT
ATOM      1  N   LIG    1       26.229 -21.175   7.587  0.00  0.00    -0.287 NA
ATOM      2  C   LIG    1       27.374 -20.572   8.297  0.00  0.00    +0.108 C 
ATOM      3  C   LIG    1       28.619 -20.243   7.407  0.00  0.00    +0.039 C 
ATOM      4  C   LIG    1       29.504 -19.204   8.104  0.00  0.00    +0.030 C 
ATOM      5  C   LIG    1       28.167 -19.667   6.032  0.00  0.00    +0.108 C 
ATOM      6  N   LIG    1       27.045 -20.425   5.440  0.00  0.00    -0.287 NA
ATOM      7  C   LIG    1       25.932 -20.374   6.402  0.00  0.00    +0.171 C 
ENDROOT
BRANCH   3   8
ATOM      8  N   LIG    1       29.484 -21.429   7.205  0.00  0.00    -0.323 NA
ATOM      9  H   LIG    1       30.392 -21.146   6.904  0.00  0.00    +0.119 HD
ATOM     10  H   LIG    1       29.630 -21.852   8.134  0.00  0.00    +0.119 HD
ENDBRANCH   3   8
BRANCH   1  11
ATOM     11  C   LIG    1       26.346 -22.634   7.399  0.00  0.00    +0.089 C 
BRANCH  11  12
ATOM     12  C   LIG    1       25.096 -23.477   6.970  0.00  0.00    +0.003 C 
BRANCH  12  13
ATOM     13  C   LIG    1       23.764 -22.704   7.267  0.00  0.00    +0.001 C 
ATOM     14  C   LIG    1       22.468 -23.343   6.785  0.00  0.00    +0.004 C 
ENDBRANCH  12  13
BRANCH  12  15
ATOM     15  C   LIG    1       25.057 -23.830   5.449  0.00  0.00    +0.005 C 
BRANCH  15  16
ATOM     16  C   LIG    1       25.269 -25.307   5.116  0.00  0.00    +0.000 C 
BRANCH  16  18
ATOM     17  C   LIG    1       25.048 -27.450   6.512  0.00  0.00    +0.004 C 
ATOM     18  C   LIG    1       24.342 -26.286   5.841  0.00  0.00    -0.003 C 
ENDBRANCH  16  18
ENDBRANCH  15  16
ENDBRANCH  12  15
ENDBRANCH  11  12
ENDBRANCH   1  11
BRANCH   6  19
ATOM     19  C   LIG    1       26.624 -19.854   4.138  0.00  0.00    +0.089 C 
BRANCH  19  20
ATOM     20  C   LIG    1       25.202 -19.202   4.050  0.00  0.00    +0.003 C 
BRANCH  20  21
ATOM     21  C   LIG    1       25.201 -17.818   3.358  0.00  0.00    +0.001 C 
ATOM     22  C   LIG    1       26.539 -17.075   3.435  0.00  0.00    +0.004 C 
ENDBRANCH  20  21
BRANCH  20  23
ATOM     23  C   LIG    1       24.183 -20.183   3.412  0.00  0.00    +0.005 C 
BRANCH  23  24
ATOM     24  C   LIG    1       23.055 -20.655   4.336  0.00  0.00    +0.000 C 
BRANCH  24  25
ATOM     25  C   LIG    1       22.518 -19.503   5.188  0.00  0.00    -0.003 C 
ATOM     26  C   LIG    1       21.822 -18.452   4.337  0.00  0.00    +0.004 C 
ENDBRANCH  24  25
ENDBRANCH  23  24
ENDBRANCH  20  23
ENDBRANCH  19  20
ENDBRANCH   6  19
TORSDOF 13
ENDMDL
MODEL 4
REMARK VINA RESULT:      -6.5      1.517      2.816
REMARK  Name = *****
REMARK                            x       y       z     vdW  Elec       q    Type
REMARK                         _______ _______ _______ _____ _____    ______ ____
ROOT
ATOM      1  N   LIG    1       23.279 -22.437   6.776  0.00  0.00    -0.287 NA
ATOM      2  C   LIG    1       23.379 -23.902   6.632  0.00  0.00    +0.108 C 
ATOM      3  C   LIG    1       24.797 -24.444   6.247  0.00  0.00    +0.039 C 
ATOM      4  C   LIG    1       24.909 -25.928   6.610  0.00  0.00    +0.030 C 
ATOM      5  C   LIG    1       25.904 -23.660   7.013  0.00  0.00    +0.108 C 
ATOM      6  N   LIG    1       25.672 -22.201   7.013  0.00  0.00    -0.287 NA
ATOM      7  C   LIG    1       24.361 -21.970   7.640  0.00  0.00    +0.171 C 
ENDROOT
BRANCH   3   8
ATOM      8  N   LIG    1       25.039 -24.372   4.786  0.00  0.00    -0.323 NA
ATOM      9  H   LIG    1       25.765 -23.717   4.590  0.00  0.00    +0.119 HD
ATOM     10  H   LIG    1       25.421 -25.288   4.504  0.00  0.00    +0.119 HD
ENDBRANCH   3   8
BRANCH   1  11
ATOM     11  C   LIG    1       23.087 -21.724   5.497  0.00  0.00    +0.089 C 
BRANCH  11  12
ATOM     12  C   LIG    1       23.646 -20.271   5.313  0.00  0.00    +0.003 C 
BRANCH  12  13
ATOM     13  C   LIG    1       24.533 -20.167   4.023  0.00  0.00    +0.001 C 
ATOM     14  C   LIG    1       24.953 -18.770   3.581  0.00  0.00    +0.004 C 
ENDBRANCH  12  13
BRANCH  12  15
ATOM     15  C   LIG    1       22.541 -19.177   5.164  0.00  0.00    +0.005 C 
BRANCH  15  16
ATOM     16  C   LIG    1       21.482 -19.461   4.098  0.00  0.00    +0.000 C 
BRANCH  16  18
ATOM     17  C   LIG    1       19.398 -18.473   2.973  0.00  0.00    +0.004 C 
ATOM     18  C   LIG    1       20.798 -18.228   3.504  0.00  0.00    -0.003 C 
ENDBRANCH  16  18
ENDBRANCH  15  16
ENDBRANCH  12  15
ENDBRANCH  11  12
ENDBRANCH   1  11
BRANCH   6  19
ATOM     19  C   LIG    1       26.730 -21.477   7.755  0.00  0.00    +0.089 C 
BRANCH  19  20
ATOM     20  C   LIG    1       27.914 -20.863   6.933  0.00  0.00    +0.003 C 
BRANCH  20  21
ATOM     21  C   LIG    1       27.451 -20.022   5.719  0.00  0.00    +0.001 C 
ATOM     22  C   LIG    1       28.437 -18.926   5.301  0.00  0.00    +0.004 C 
ENDBRANCH  20  21
BRANCH  20  23
ATOM     23  C   LIG    1       28.884 -20.082   7.858  0.00  0.00    +0.005 C 
BRANCH  23  24
ATOM     24  C   LIG    1       30.375 -20.274   7.563  0.00  0.00    +0.000 C 
BRANCH  24  25
ATOM     25  C   LIG    1       31.168 -20.518   8.850  0.00  0.00    -0.003 C 
ATOM     26  C   LIG    1       31.149 -21.985   9.251  0.00  0.00    +0.004 C 
ENDBRANCH  24  25
ENDBRANCH  23  24
ENDBRANCH  20  23
ENDBRANCH  19  20
ENDBRANCH   6  19
TORSDOF 13
ENDMDL
MODEL 5
REMARK VINA RESULT:      -6.4      2.588      7.118
REMARK  Name = *****
REMARK                            x       y       z     vdW  Elec       q    Type
REMARK                         _______ _______ _______ _____ _____    ______ ____
ROOT
ATOM      1  N   LIG    1       26.517 -21.450   7.748  0.00  0.00    -0.287 NA
ATOM      2  C   LIG    1       25.344 -20.742   7.201  0.00  0.00    +0.108 C 
ATOM      3  C   LIG    1       24.679 -21.409   5.950  0.00  0.00    +0.039 C 
ATOM      4  C   LIG    1       23.242 -20.903   5.786  0.00  0.00    +0.030 C 
ATOM      5  C   LIG    1       24.644 -22.958   6.114  0.00  0.00    +0.108 C 
ATOM      6  N   LIG    1       25.920 -23.504   6.623  0.00  0.00    -0.287 NA
ATOM      7  C   LIG    1       26.180 -22.861   7.921  0.00  0.00    +0.171 C 
ENDROOT
BRANCH   3   8
ATOM      8  N   LIG    1       25.374 -21.044   4.693  0.00  0.00    -0.323 NA
ATOM      9  H   LIG    1       25.056 -21.622   3.945  0.00  0.00    +0.119 HD
ATOM     10  H   LIG    1       25.061 -20.093   4.447  0.00  0.00    +0.119 HD
ENDBRANCH   3   8
BRANCH   1  11
ATOM     11  C   LIG    1       27.779 -21.143   7.046  0.00  0.00    +0.089 C 
BRANCH  11  12
ATOM     12  C   LIG    1       28.963 -20.460   7.814  0.00  0.00    +0.003 C 
BRANCH  12  13
ATOM     13  C   LIG    1       30.224 -21.392   7.854  0.00  0.00    +0.001 C 
ATOM     14  C   LIG    1       30.760 -21.775   9.228  0.00  0.00    +0.004 C 
ENDBRANCH  12  13
BRANCH  12  15
ATOM     15  C   LIG    1       29.442 -19.116   7.179  0.00  0.00    +0.005 C 
BRANCH  15  16
ATOM     16  C   LIG    1       30.446 -18.321   8.014  0.00  0.00    +0.000 C 
BRANCH  16  18
ATOM     17  C   LIG    1       30.947 -17.054  10.188  0.00  0.00    +0.004 C 
ATOM     18  C   LIG    1       29.940 -17.849   9.379  0.00  0.00    -0.003 C 
ENDBRANCH  16  18
ENDBRANCH  15  16
ENDBRANCH  12  15
ENDBRANCH  11  12
ENDBRANCH   1  11
BRANCH   6  19
ATOM     19  C   LIG    1       25.862 -24.976   6.782  0.00  0.00    +0.089 C 
BRANCH  19  20
ATOM     20  C   LIG    1       25.030 -25.794   5.736  0.00  0.00    +0.003 C 
BRANCH  20  21
ATOM     21  C   LIG    1       25.883 -26.354   4.572  0.00  0.00    +0.001 C 
ATOM     22  C   LIG    1       27.122 -27.136   5.020  0.00  0.00    +0.004 C 
ENDBRANCH  20  21
BRANCH  20  23
ATOM     23  C   LIG    1       24.190 -26.894   6.436  0.00  0.00    +0.005 C 
BRANCH  23  24
ATOM     24  C   LIG    1       24.077 -28.221   5.677  0.00  0.00    +0.000 C 
BRANCH  24  25
ATOM     25  C   LIG    1       24.448 -29.406   6.573  0.00  0.00    -0.003 C 
ATOM     26  C   LIG    1       25.212 -28.956   7.809  0.00  0.00    +0.004 C 
ENDBRANCH  24  25
ENDBRANCH  23  24
ENDBRANCH  20  23
ENDBRANCH  19  20
ENDBRANCH   6  19
TORSDOF 13
ENDMDL
MODEL 6
REMARK VINA RESULT:      -6.2      2.360      6.135
REMARK  Name = *****
REMARK                            x       y       z     vdW  Elec       q    Type
REMARK                         _______ _______ _______ _____ _____    ______ ____
ROOT
ATOM      1  N   LIG    1       25.289 -23.385   6.068  0.00  0.00    -0.287 NA
ATOM      2  C   LIG    1       24.214 -22.458   5.663  0.00  0.00    +0.108 C 
ATOM      3  C   LIG    1       23.848 -21.355   6.712  0.00  0.00    +0.039 C 
ATOM      4  C   LIG    1       23.123 -20.195   6.023  0.00  0.00    +0.030 C 
ATOM      5  C   LIG    1       25.137 -20.802   7.391  0.00  0.00    +0.108 C 
ATOM      6  N   LIG    1       26.079 -21.872   7.778  0.00  0.00    -0.287 NA
ATOM      7  C   LIG    1       26.427 -22.608   6.552  0.00  0.00    +0.171 C 
ENDROOT
BRANCH   3   8
ATOM      8  N   LIG    1       22.906 -21.859   7.739  0.00  0.00    -0.323 NA
ATOM      9  H   LIG    1       23.235 -21.625   8.651  0.00  0.00    +0.119 HD
ATOM     10  H   LIG    1       22.031 -21.325   7.626  0.00  0.00    +0.119 HD
ENDBRANCH   3   8
BRANCH   1  11
ATOM     11  C   LIG    1       24.826 -24.499   6.919  0.00  0.00    +0.089 C 
BRANCH  11  12
ATOM     12  C   LIG    1       24.878 -25.973   6.387  0.00  0.00    +0.003 C 
BRANCH  12  13
ATOM     13  C   LIG    1       25.123 -26.006   4.838  0.00  0.00    +0.001 C 
ATOM     14  C   LIG    1       26.186 -26.968   4.324  0.00  0.00    +0.004 C 
ENDBRANCH  12  13
BRANCH  12  15
ATOM     15  C   LIG    1       26.014 -26.838   7.020  0.00  0.00    +0.005 C 
BRANCH  15  16
ATOM     16  C   LIG    1       25.554 -28.143   7.671  0.00  0.00    +0.000 C 
BRANCH  16  18
ATOM     17  C   LIG    1       24.815 -29.964   6.020  0.00  0.00    +0.004 C 
ATOM     18  C   LIG    1       24.396 -28.857   6.970  0.00  0.00    -0.003 C 
ENDBRANCH  16  18
ENDBRANCH  15  16
ENDBRANCH  12  15
ENDBRANCH  11  12
ENDBRANCH   1  11
BRANCH   6  19
ATOM     19  C   LIG    1       27.302 -21.324   8.412  0.00  0.00    +0.089 C 
BRANCH  19  20
ATOM     20  C   LIG    1       28.531 -21.020   7.490  0.00  0.00    +0.003 C 
BRANCH  20  21
ATOM     21  C   LIG    1       28.495 -19.608   6.858  0.00  0.00    +0.001 C 
ATOM     22  C   LIG    1       28.094 -19.592   5.379  0.00  0.00    +0.004 C 
ENDBRANCH  20  21
BRANCH  20  23
ATOM     23  C   LIG    1       29.863 -21.299   8.236  0.00  0.00    +0.005 C 
BRANCH  23  24
ATOM     24  C   LIG    1       31.005 -20.322   7.935  0.00  0.00    +0.000 C 
BRANCH  24  25
ATOM     25  C   LIG    1       31.282 -19.408   9.132  0.00  0.00    -0.003 C 
ATOM     26  C   LIG    1       31.596 -17.987   8.691  0.00  0.00    +0.004 C 
ENDBRANCH  24  25
ENDBRANCH  23  24
ENDBRANCH  20  23
ENDBRANCH  19  20
ENDBRANCH   6  19
TORSDOF 13
ENDMDL
MODEL 7
REMARK VINA RESULT:      -6.2      2.481      7.673
REMARK  Name = *****
REMARK                            x       y       z     vdW  Elec       q    Type
REMARK                         _______ _______ _______ _____ _____    ______ ____
ROOT
ATOM      1  N   LIG    1       25.132 -23.318   7.450  0.00  0.00    -0.287 NA
ATOM      2  C   LIG    1       25.966 -22.403   8.253  0.00  0.00    +0.108 C 
ATOM      3  C   LIG    1       26.712 -21.290   7.444  0.00  0.00    +0.039 C 
ATOM      4  C   LIG    1       27.113 -20.142   8.376  0.00  0.00    +0.030 C 
ATOM      5  C   LIG    1       25.791 -20.721   6.324  0.00  0.00    +0.108 C 
ATOM      6  N   LIG    1       25.072 -21.781   5.586  0.00  0.00    -0.287 NA
ATOM      7  C   LIG    1       24.273 -22.528   6.571  0.00  0.00    +0.171 C 
ENDROOT
BRANCH   3   8
ATOM      8  N   LIG    1       27.980 -21.787   6.858  0.00  0.00    -0.323 NA
ATOM      9  H   LIG    1       28.758 -21.332   7.285  0.00  0.00    +0.119 HD
ATOM     10  H   LIG    1       28.065 -22.777   7.134  0.00  0.00    +0.119 HD
ENDBRANCH   3   8
BRANCH   1  11
ATOM     11  C   LIG    1       25.888 -24.425   6.831  0.00  0.00    +0.089 C 
BRANCH  11  12
ATOM     12  C   LIG    1       25.152 -25.742   6.404  0.00  0.00    +0.003 C 
BRANCH  12  13
ATOM     13  C   LIG    1       25.173 -25.922   4.846  0.00  0.00    +0.001 C 
ATOM     14  C   LIG    1       26.071 -27.017   4.286  0.00  0.00    +0.004 C 
ENDBRANCH  12  13
BRANCH  12  15
ATOM     15  C   LIG    1       25.783 -27.043   6.995  0.00  0.00    +0.005 C 
BRANCH  15  16
ATOM     16  C   LIG    1       24.808 -28.202   7.209  0.00  0.00    +0.000 C 
BRANCH  16  18
ATOM     17  C   LIG    1       24.272 -30.399   8.421  0.00  0.00    +0.004 C 
ATOM     18  C   LIG    1       25.246 -29.251   8.233  0.00  0.00    -0.003 C 
ENDBRANCH  16  18
ENDBRANCH  15  16
ENDBRANCH  12  15
ENDBRANCH  11  12
ENDBRANCH   1  11
BRANCH   6  19
ATOM     19  C   LIG    1       24.193 -21.218   4.534  0.00  0.00    +0.089 C 
BRANCH  19  20
ATOM     20  C   LIG    1       23.996 -19.664   4.499  0.00  0.00    +0.003 C 
BRANCH  20  21
ATOM     21  C   LIG    1       24.498 -19.008   3.190  0.00  0.00    +0.001 C 
ATOM     22  C   LIG    1       25.695 -18.070   3.377  0.00  0.00    +0.004 C 
ENDBRANCH  20  21
BRANCH  20  23
ATOM     23  C   LIG    1       22.526 -19.286   4.823  0.00  0.00    +0.005 C 
BRANCH  23  24
ATOM     24  C   LIG    1       22.003 -18.020   4.135  0.00  0.00    +0.000 C 
BRANCH  24  25
ATOM     25  C   LIG    1       22.172 -16.792   5.034  0.00  0.00    -0.003 C 
ATOM     26  C   LIG    1       22.984 -15.703   4.350  0.00  0.00    +0.004 C 
ENDBRANCH  24  25
ENDBRANCH  23  24
ENDBRANCH  20  23
ENDBRANCH  19  20
ENDBRANCH   6  19
TORSDOF 13
ENDMDL
MODEL 8
REMARK VINA RESULT:      -6.1      2.675      5.971
REMARK  Name = *****
REMARK                            x       y       z     vdW  Elec       q    Type
REMARK                         _______ _______ _______ _____ _____    ______ ____
ROOT
ATOM      1  N   LIG    1       24.995 -21.768   4.927  0.00  0.00    -0.287 NA
ATOM      2  C   LIG    1       25.544 -20.990   6.054  0.00  0.00    +0.108 C 
ATOM      3  C   LIG    1       24.937 -21.321   7.458  0.00  0.00    +0.039 C 
ATOM      4  C   LIG    1       25.886 -20.854   8.566  0.00  0.00    +0.030 C 
ATOM      5  C   LIG    1       24.717 -22.857   7.608  0.00  0.00    +0.108 C 
ATOM      6  N   LIG    1       24.111 -23.464   6.405  0.00  0.00    -0.287 NA
ATOM      7  C   LIG    1       25.015 -23.187   5.277  0.00  0.00    +0.171 C 
ENDROOT
BRANCH   3   8
ATOM      8  N   LIG    1       23.664 -20.599   7.695  0.00  0.00    -0.323 NA
ATOM      9  H   LIG    1       23.558 -20.399   8.667  0.00  0.00    +0.119 HD
ATOM     10  H   LIG    1       23.757 -19.678   7.241  0.00  0.00    +0.119 HD
ENDBRANCH   3   8
BRANCH   1  11
ATOM     11  C   LIG    1       23.731 -21.228   4.389  0.00  0.00    +0.089 C 
BRANCH  11  12
ATOM     12  C   LIG    1       23.699 -19.808   3.725  0.00  0.00    +0.003 C 
BRANCH  12  13
ATOM     13  C   LIG    1       22.876 -18.796   4.594  0.00  0.00    +0.001 C 
ATOM     14  C   LIG    1       21.519 -18.362   4.054  0.00  0.00    +0.004 C 
ENDBRANCH  12  13
BRANCH  12  15
ATOM     15  C   LIG    1       25.109 -19.163   3.534  0.00  0.00    +0.005 C 
BRANCH  15  16
ATOM     16  C   LIG    1       25.122 -17.637   3.446  0.00  0.00    +0.000 C 
BRANCH  16  18
ATOM     17  C   LIG    1       26.501 -15.474   3.363  0.00  0.00    +0.004 C 
ATOM     18  C   LIG    1       26.509 -16.991   3.397  0.00  0.00    -0.003 C 
ENDBRANCH  16  18
ENDBRANCH  15  16
ENDBRANCH  12  15
ENDBRANCH  11  12
ENDBRANCH   1  11
BRANCH   6  19
ATOM     19  C   LIG    1       23.922 -24.925   6.564  0.00  0.00    +0.089 C 
BRANCH  19  20
ATOM     20  C   LIG    1       24.852 -25.878   5.739  0.00  0.00    +0.003 C 
BRANCH  20  21
ATOM     21  C   LIG    1       26.255 -26.065   6.365  0.00  0.00    +0.001 C 
ATOM     22  C   LIG    1       27.224 -26.881   5.503  0.00  0.00    +0.004 C 
ENDBRANCH  20  21
BRANCH  20  23
ATOM     23  C   LIG    1       24.146 -27.231   5.456  0.00  0.00    +0.005 C 
BRANCH  23  24
ATOM     24  C   LIG    1       24.236 -28.269   6.580  0.00  0.00    +0.000 C 
BRANCH  24  25
ATOM     25  C   LIG    1       24.096 -29.692   6.031  0.00  0.00    -0.003 C 
ATOM     26  C   LIG    1       25.393 -30.181   5.404  0.00  0.00    +0.004 C 
ENDBRANCH  24  25
ENDBRANCH  23  24
ENDBRANCH  20  23
ENDBRANCH  19  20
ENDBRANCH   6  19
TORSDOF 13
ENDMDL
MODEL 9
REMARK VINA RESULT:      -6.0      2.546      6.221
REMARK  Name = *****
REMARK                            x       y       z     vdW  Elec       q    Type
REMARK                         _______ _______ _______ _____ _____    ______ ____
ROOT
ATOM      1  N   LIG    1       24.969 -21.671   5.168  0.00  0.00    -0.287 NA
ATOM      2  C   LIG    1       26.052 -21.139   6.018  0.00  0.00    +0.108 C 
ATOM      3  C   LIG    1       26.075 -21.672   7.489  0.00  0.00    +0.039 C 
ATOM      4  C   LIG    1       27.465 -21.467   8.101  0.00  0.00    +0.030 C 
ATOM      5  C   LIG    1       25.738 -23.193   7.522  0.00  0.00    +0.108 C 
ATOM      6  N   LIG    1       24.594 -23.540   6.653  0.00  0.00    -0.287 NA
ATOM      7  C   LIG    1       24.947 -23.127   5.286  0.00  0.00    +0.171 C 
ENDROOT
BRANCH   3   8
ATOM      8  N   LIG    1       25.141 -20.923   8.364  0.00  0.00    -0.323 NA
ATOM      9  H   LIG    1       24.700 -21.544   9.007  0.00  0.00    +0.119 HD
ATOM     10  H   LIG    1       25.718 -20.298   8.948  0.00  0.00    +0.119 HD
ENDBRANCH   3   8
BRANCH   1  11
ATOM     11  C   LIG    1       23.682 -20.966   5.330  0.00  0.00    +0.089 C 
BRANCH  11  12
ATOM     12  C   LIG    1       23.528 -19.484   4.842  0.00  0.00    +0.003 C 
BRANCH  12  13
ATOM     13  C   LIG    1       24.226 -19.271   3.454  0.00  0.00    +0.001 C 
ATOM     14  C   LIG    1       25.463 -18.381   3.429  0.00  0.00    +0.004 C 
ENDBRANCH  12  13
BRANCH  12  15
ATOM     15  C   LIG    1       22.047 -19.027   4.652  0.00  0.00    +0.005 C 
BRANCH  15  16
ATOM     16  C   LIG    1       21.865 -17.613   4.101  0.00  0.00    +0.000 C 
BRANCH  16  18
ATOM     17  C   LIG    1       23.143 -15.411   4.427  0.00  0.00    +0.004 C 
ATOM     18  C   LIG    1       22.264 -16.480   5.050  0.00  0.00    -0.003 C 
ENDBRANCH  16  18
ENDBRANCH  15  16
ENDBRANCH  12  15
ENDBRANCH  11  12
ENDBRANCH   1  11
BRANCH   6  19
ATOM     19  C   LIG    1       24.298 -24.991   6.691  0.00  0.00    +0.089 C 
BRANCH  19  20
ATOM     20  C   LIG    1       25.040 -25.918   5.669  0.00  0.00    +0.003 C 
BRANCH  20  21
ATOM     21  C   LIG    1       26.490 -26.261   6.088  0.00  0.00    +0.001 C 
ATOM     22  C   LIG    1       27.244 -27.138   5.083  0.00  0.00    +0.004 C 
ENDBRANCH  20  21
BRANCH  20  23
ATOM     23  C   LIG    1       24.199 -27.184   5.359  0.00  0.00    +0.005 C 
BRANCH  23  24
ATOM     24  C   LIG    1       24.177 -28.248   6.462  0.00  0.00    +0.000 C 
BRANCH  24  25
ATOM     25  C   LIG    1       24.456 -29.642   5.893  0.00  0.00    -0.003 C 
ATOM     26  C   LIG    1       25.239 -30.501   6.873  0.00  0.00    +0.004 C 
ENDBRANCH  24  25
ENDBRANCH  23  24
ENDBRANCH  20  23
ENDBRANCH  19  20
ENDBRANCH   6  19
TORSDOF 13
ENDMDL
