MODEL 1
REMARK VINA RESULT:      -0.3      0.000      0.000
REMARK  Name = *****
REMARK                            x       y       z     vdW  Elec       q    Type
REMARK                         _______ _______ _______ _____ _____    ______ ____
ROOT
ATOM      1  C   LIG    1       25.530 -14.331   3.870  0.00  0.00    -0.009 C 
ATOM      2  C   LIG    1       24.552 -15.348   3.294  0.00  0.00    +0.108 C 
ATOM      3  S   LIG    1       24.936 -17.073   3.735  0.00  0.00    -0.131 S 
ATOM      4  C   LIG    1       26.665 -16.911   3.218  0.00  0.00    +0.169 C 
ATOM      5  N   LIG    1       27.292 -15.901   4.036  0.00  0.00    -0.249 N 
ATOM      6  C   LIG    1       28.309 -16.658   4.496  0.00  0.00    +0.244 C 
ATOM      7  O   LIG    1       29.228 -16.423   5.255  0.00  0.00    -0.273 OA
ATOM      8  CA  LIG    1       27.682 -17.930   3.812  0.00  0.00    +0.191 C 
ATOM      9  CA  LIG    1       26.803 -14.639   4.232  0.00  0.00    +0.126 C 
ENDROOT
BRANCH   8  10
ATOM     10  N   LIG    1       27.151 -18.955   4.746  0.00  0.00    -0.300 N 
ATOM     11  H   LIG    1       26.236 -19.377   4.602  0.00  0.00    +0.150 HD
ATOM     12  C   LIG    1       27.835 -19.346   5.883  0.00  0.00    +0.235 C 
ATOM     13  O   LIG    1       28.968 -18.941   6.128  0.00  0.00    -0.274 OA
BRANCH  12  14
ATOM     14  CA  LIG    1       27.055 -20.322   6.811  0.00  0.00    +0.168 C 
BRANCH  14  15
ATOM     15  C   LIG    1       25.648 -20.664   6.338  0.00  0.00    -0.022 A 
ATOM     16  C   LIG    1       25.462 -21.314   5.101  0.00  0.00    +0.009 A 
ATOM     17  C   LIG    1       24.179 -21.571   4.606  0.00  0.00    +0.045 A 
ATOM     18  C   LIG    1       23.068 -21.177   5.339  0.00  0.00    +0.117 A 
ATOM     19  C   LIG    1       23.220 -20.545   6.567  0.00  0.00    +0.045 A 
ATOM     20  C   LIG    1       24.504 -20.285   7.062  0.00  0.00    +0.009 A 
BRANCH  18  21
ATOM     21  O   LIG    1       21.834 -21.424   4.813  0.00  0.00    -0.507 OA
ATOM     22  H   LIG    1       21.581 -22.336   5.032  0.00  0.00    +0.292 HD
ENDBRANCH  18  21
ENDBRANCH  14  15
BRANCH  14  23
ATOM     23  N   LIG    1       27.840 -21.571   7.013  0.00  0.00    -0.316 NA
ATOM     24  H1  LIG    1       28.184 -21.558   7.974  0.00  0.00    +0.119 HD
ATOM     25  H2  LIG    1       27.189 -22.357   6.993  0.00  0.00    +0.119 HD
ENDBRANCH  14  23
ENDBRANCH  12  14
ENDBRANCH   8  10
BRANCH   1  28
ATOM     26  C   LIG    1       23.012 -11.451   4.474  0.00  0.00    +0.035 C 
ATOM     27  C   LIG    1       23.651 -12.797   4.353  0.00  0.00    -0.030 C 
ATOM     28  C   LIG    1       24.931 -13.005   4.006  0.00  0.00    +0.002 C 
ENDBRANCH   1  28
BRANCH   9  29
ATOM     29  C   LIG    1       27.699 -13.628   4.886  0.00  0.00    +0.352 C 
ATOM     30  O   LIG    1       28.604 -12.993   4.375  0.00  0.00    -0.244 OA
BRANCH  29  31
ATOM     31  OXT LIG    1       27.425 -13.499   6.198  0.00  0.00    -0.476 OA
ATOM     32  HXT LIG    1       27.991 -14.167   6.634  0.00  0.00    +0.295 HD
ENDBRANCH  29  31
ENDBRANCH   9  29
TORSDOF 8
ENDMDL
MODEL 2
REMARK VINA RESULT:       1.9      2.523      7.613
REMARK  Name = *****
REMARK                            x       y       z     vdW  Elec       q    Type
REMARK                         _______ _______ _______ _____ _____    ______ ____
ROOT
ATOM      1  C   LIG    1       25.947 -20.108   5.129  0.00  0.00    -0.009 C 
ATOM      2  C   LIG    1       26.742 -19.491   3.986  0.00  0.00    +0.108 C 
ATOM      3  S   LIG    1       26.003 -17.970   3.309  0.00  0.00    -0.131 S 
ATOM      4  C   LIG    1       24.375 -18.743   3.121  0.00  0.00    +0.169 C 
ATOM      5  N   LIG    1       23.906 -19.140   4.428  0.00  0.00    -0.249 N 
ATOM      6  C   LIG    1       22.734 -18.473   4.400  0.00  0.00    +0.244 C 
ATOM      7  O   LIG    1       21.833 -18.367   5.207  0.00  0.00    -0.273 OA
ATOM      8  CA  LIG    1       23.143 -17.793   3.041  0.00  0.00    +0.191 C 
ATOM      9  CA  LIG    1       24.618 -19.895   5.317  0.00  0.00    +0.126 C 
ENDROOT
BRANCH   8  10
ATOM     10  N   LIG    1       23.404 -16.333   3.115  0.00  0.00    -0.300 N 
ATOM     11  H   LIG    1       23.779 -15.823   2.319  0.00  0.00    +0.150 HD
ATOM     12  C   LIG    1       23.211 -15.605   4.275  0.00  0.00    +0.235 C 
ATOM     13  O   LIG    1       22.714 -16.107   5.279  0.00  0.00    -0.274 OA
BRANCH  12  14
ATOM     14  CA  LIG    1       23.676 -14.122   4.200  0.00  0.00    +0.168 C 
BRANCH  14  15
ATOM     15  C   LIG    1       25.187 -13.930   4.134  0.00  0.00    -0.022 A 
ATOM     16  C   LIG    1       25.901 -13.582   5.299  0.00  0.00    +0.009 A 
ATOM     17  C   LIG    1       27.275 -13.325   5.252  0.00  0.00    +0.045 A 
ATOM     18  C   LIG    1       27.949 -13.407   4.041  0.00  0.00    +0.117 A 
ATOM     19  C   LIG    1       27.273 -13.757   2.879  0.00  0.00    +0.045 A 
ATOM     20  C   LIG    1       25.897 -14.014   2.925  0.00  0.00    +0.009 A 
BRANCH  18  21
ATOM     21  O   LIG    1       29.284 -13.125   4.031  0.00  0.00    -0.507 OA
ATOM     22  H   LIG    1       29.721 -13.722   3.401  0.00  0.00    +0.292 HD
ENDBRANCH  18  21
ENDBRANCH  14  15
BRANCH  14  23
ATOM     23  N   LIG    1       23.028 -13.442   3.044  0.00  0.00    -0.316 NA
ATOM     24  H1  LIG    1       22.635 -14.172   2.448  0.00  0.00    +0.119 HD
ATOM     25  H2  LIG    1       22.211 -12.940   3.392  0.00  0.00    +0.119 HD
ENDBRANCH  14  23
ENDBRANCH  12  14
ENDBRANCH   8  10
BRANCH   1  28
ATOM     26  C   LIG    1       28.974 -21.562   7.059  0.00  0.00    +0.035 C 
ATOM     27  C   LIG    1       28.096 -20.720   6.190  0.00  0.00    -0.030 C 
ATOM     28  C   LIG    1       26.782 -20.929   6.003  0.00  0.00    +0.002 C 
ENDBRANCH   1  28
BRANCH   9  29
ATOM     29  C   LIG    1       23.896 -20.444   6.513  0.00  0.00    +0.352 C 
ATOM     30  O   LIG    1       23.961 -21.571   6.971  0.00  0.00    -0.244 OA
BRANCH  29  31
ATOM     31  OXT LIG    1       23.076 -19.528   7.061  0.00  0.00    -0.476 OA
ATOM     32  HXT LIG    1       22.532 -20.035   7.697  0.00  0.00    +0.295 HD
ENDBRANCH  29  31
ENDBRANCH   9  29
TORSDOF 8
ENDMDL
