MODEL 1
REMARK VINA RESULT:      -5.4      0.000      0.000
REMARK  Name = *****
REMARK                            x       y       z     vdW  Elec       q    Type
REMARK                         _______ _______ _______ _____ _____    ______ ____
ROOT
ATOM      1  C   LIG    1       27.118 -29.559  11.773  0.00  0.00    +0.132 C 
ATOM      2  C   LIG    1       25.663 -29.709  12.366  0.00  0.00    +0.017 C 
ATOM      3  C   LIG    1       25.138 -28.232  12.500  0.00  0.00    +0.003 C 
ATOM      4  C   LIG    1       24.656 -27.848  13.926  0.00  0.00    +0.001 C 
ATOM      5  C   LIG    1       23.654 -28.896  14.482  0.00  0.00    +0.025 C 
ATOM      6  C   LIG    1       24.341 -30.265  14.516  0.00  0.00    -0.072 C 
ATOM      7  C   LIG    1       23.931 -31.271  15.309  0.00  0.00    +0.008 C 
ATOM      8  C   LIG    1       22.273 -28.827  13.730  0.00  0.00    +0.023 C 
ATOM      9  C   LIG    1       21.743 -27.395  13.655  0.00  0.00    -0.063 C 
ATOM     10  C   LIG    1       20.459 -27.063  13.877  0.00  0.00    +0.045 C 
ATOM     11  C   LIG    1       19.424 -28.098  14.094  0.00  0.00    +0.156 C 
ATOM     12  O   LIG    1       18.270 -27.760  14.347  0.00  0.00    -0.293 OA
ATOM     13  C   LIG    1       19.818 -29.532  13.873  0.00  0.00    +0.079 C 
ATOM     14  C   LIG    1       22.726 -26.325  13.250  0.00  0.00    +0.031 C 
ATOM     15  C   LIG    1       21.234 -29.770  14.375  0.00  0.00    +0.016 C 
ATOM     16  C   LIG    1       24.043 -26.439  14.003  0.00  0.00    +0.009 C 
ATOM     17  C   LIG    1       26.275 -27.326  12.002  0.00  0.00    +0.008 C 
ATOM     18  C   LIG    1       25.649 -30.405  13.758  0.00  0.00    +0.041 C 
ATOM     19  C   LIG    1       27.082 -28.203  11.060  0.00  0.00    +0.049 C 
ENDROOT
BRANCH   1  21
ATOM     20  C   LIG    1       29.112 -29.538  13.570  0.00  0.00    +0.007 C 
ATOM     21  C   LIG    1       28.207 -29.546  12.778  0.00  0.00    -0.070 C 
ENDBRANCH   1  21
BRANCH   1  22
ATOM     22  O   LIG    1       27.435 -30.576  10.833  0.00  0.00    -0.376 OA
ATOM     23  H   LIG    1       27.091 -30.284   9.970  0.00  0.00    +0.211 HD
ENDBRANCH   1  22
BRANCH   2  24
ATOM     24  C   LIG    1       24.732 -30.572  11.432  0.00  0.00    +0.008 C 
ATOM     25  C   LIG    1       23.687 -29.852  10.586  0.00  0.00    +0.004 C 
ENDBRANCH   2  24
TORSDOF 3
ENDMDL
MODEL 2
REMARK VINA RESULT:      -5.2      2.219      5.989
REMARK  Name = *****
REMARK                            x       y       z     vdW  Elec       q    Type
REMARK                         _______ _______ _______ _____ _____    ______ ____
ROOT
ATOM      1  C   LIG    1       20.166 -31.457  14.096  0.00  0.00    +0.132 C 
ATOM      2  C   LIG    1       21.509 -30.748  13.665  0.00  0.00    +0.017 C 
ATOM      3  C   LIG    1       21.283 -29.231  14.017  0.00  0.00    +0.003 C 
ATOM      4  C   LIG    1       21.496 -28.256  12.826  0.00  0.00    +0.001 C 
ATOM      5  C   LIG    1       22.856 -28.517  12.122  0.00  0.00    +0.025 C 
ATOM      6  C   LIG    1       22.884 -29.964  11.621  0.00  0.00    -0.072 C 
ATOM      7  C   LIG    1       23.694 -30.383  10.634  0.00  0.00    +0.008 C 
ATOM      8  C   LIG    1       24.066 -28.067  13.024  0.00  0.00    +0.023 C 
ATOM      9  C   LIG    1       23.871 -26.650  13.563  0.00  0.00    -0.063 C 
ATOM     10  C   LIG    1       24.847 -25.726  13.600  0.00  0.00    +0.045 C 
ATOM     11  C   LIG    1       26.239 -26.064  13.228  0.00  0.00    +0.156 C 
ATOM     12  O   LIG    1       27.097 -25.185  13.222  0.00  0.00    -0.293 OA
ATOM     13  C   LIG    1       26.562 -27.513  12.987  0.00  0.00    +0.079 C 
ATOM     14  C   LIG    1       22.514 -26.317  14.131  0.00  0.00    +0.031 C 
ATOM     15  C   LIG    1       25.408 -28.195  12.271  0.00  0.00    +0.016 C 
ATOM     16  C   LIG    1       21.382 -26.775  13.223  0.00  0.00    +0.009 C 
ATOM     17  C   LIG    1       19.869 -29.134  14.609  0.00  0.00    +0.008 C 
ATOM     18  C   LIG    1       21.810 -30.901  12.146  0.00  0.00    +0.041 C 
ATOM     19  C   LIG    1       19.585 -30.520  15.160  0.00  0.00    +0.049 C 
ENDROOT
BRANCH   1  21
ATOM     20  C   LIG    1       18.341 -31.759  12.151  0.00  0.00    +0.007 C 
ATOM     21  C   LIG    1       19.171 -31.629  13.011  0.00  0.00    -0.070 C 
ENDBRANCH   1  21
BRANCH   1  22
ATOM     22  O   LIG    1       20.382 -32.740  14.667  0.00  0.00    -0.376 OA
ATOM     23  H   LIG    1       20.219 -33.395  13.966  0.00  0.00    +0.211 HD
ENDBRANCH   1  22
BRANCH   2  24
ATOM     24  C   LIG    1       22.757 -31.339  14.424  0.00  0.00    +0.008 C 
ATOM     25  C   LIG    1       23.422 -30.486  15.500  0.00  0.00    +0.004 C 
ENDBRANCH   2  24
TORSDOF 3
ENDMDL
MODEL 3
REMARK VINA RESULT:      -5.1      3.589      6.930
REMARK  Name = *****
REMARK                            x       y       z     vdW  Elec       q    Type
REMARK                         _______ _______ _______ _____ _____    ______ ____
ROOT
ATOM      1  C   LIG    1       23.303 -31.845  11.910  0.00  0.00    +0.132 C 
ATOM      2  C   LIG    1       24.027 -30.767  11.012  0.00  0.00    +0.017 C 
ATOM      3  C   LIG    1       23.757 -31.239   9.536  0.00  0.00    +0.003 C 
ATOM      4  C   LIG    1       25.038 -31.431   8.678  0.00  0.00    +0.001 C 
ATOM      5  C   LIG    1       25.959 -30.183   8.754  0.00  0.00    +0.025 C 
ATOM      6  C   LIG    1       26.343 -29.941  10.217  0.00  0.00    -0.072 C 
ATOM      7  C   LIG    1       27.429 -29.237  10.583  0.00  0.00    +0.008 C 
ATOM      8  C   LIG    1       25.332 -28.959   7.986  0.00  0.00    +0.023 C 
ATOM      9  C   LIG    1       24.877 -29.350   6.580  0.00  0.00    -0.063 C 
ATOM     10  C   LIG    1       25.091 -28.592   5.490  0.00  0.00    +0.045 C 
ATOM     11  C   LIG    1       25.687 -27.241   5.598  0.00  0.00    +0.156 C 
ATOM     12  O   LIG    1       25.919 -26.596   4.579  0.00  0.00    -0.293 OA
ATOM     13  C   LIG    1       25.872 -26.672   6.978  0.00  0.00    +0.079 C 
ATOM     14  C   LIG    1       24.095 -30.633   6.448  0.00  0.00    +0.031 C 
ATOM     15  C   LIG    1       26.308 -27.763   7.942  0.00  0.00    +0.016 C 
ATOM     16  C   LIG    1       24.741 -31.781   7.210  0.00  0.00    +0.009 C 
ATOM     17  C   LIG    1       22.923 -32.525   9.642  0.00  0.00    +0.008 C 
ATOM     18  C   LIG    1       25.559 -30.697  11.275  0.00  0.00    +0.041 C 
ATOM     19  C   LIG    1       22.224 -32.422  10.987  0.00  0.00    +0.049 C 
ENDROOT
BRANCH   1  21
ATOM     20  C   LIG    1       24.893 -33.825  12.778  0.00  0.00    +0.007 C 
ATOM     21  C   LIG    1       24.169 -32.950  12.387  0.00  0.00    -0.070 C 
ENDBRANCH   1  21
BRANCH   1  22
ATOM     22  O   LIG    1       22.685 -31.279  13.057  0.00  0.00    -0.376 OA
ATOM     23  H   LIG    1       22.865 -30.323  13.035  0.00  0.00    +0.211 HD
ENDBRANCH   1  22
BRANCH   2  24
ATOM     24  C   LIG    1       23.469 -29.317  11.269  0.00  0.00    +0.008 C 
ATOM     25  C   LIG    1       24.000 -28.537  12.468  0.00  0.00    +0.004 C 
ENDBRANCH   2  24
TORSDOF 3
ENDMDL
MODEL 4
REMARK VINA RESULT:      -5.1      2.665      4.948
REMARK  Name = *****
REMARK                            x       y       z     vdW  Elec       q    Type
REMARK                         _______ _______ _______ _____ _____    ______ ____
ROOT
ATOM      1  C   LIG    1       25.018 -32.512  13.056  0.00  0.00    +0.132 C 
ATOM      2  C   LIG    1       25.541 -31.023  13.010  0.00  0.00    +0.017 C 
ATOM      3  C   LIG    1       24.299 -30.157  13.439  0.00  0.00    +0.003 C 
ATOM      4  C   LIG    1       23.907 -29.049  12.423  0.00  0.00    +0.001 C 
ATOM      5  C   LIG    1       25.137 -28.187  12.028  0.00  0.00    +0.025 C 
ATOM      6  C   LIG    1       26.204 -29.100  11.416  0.00  0.00    -0.072 C 
ATOM      7  C   LIG    1       27.177 -28.650  10.605  0.00  0.00    +0.008 C 
ATOM      8  C   LIG    1       25.603 -27.270  13.220  0.00  0.00    +0.023 C 
ATOM      9  C   LIG    1       24.433 -26.497  13.828  0.00  0.00    -0.063 C 
ATOM     10  C   LIG    1       24.496 -25.199  14.172  0.00  0.00    +0.045 C 
ATOM     11  C   LIG    1       25.768 -24.445  14.098  0.00  0.00    +0.156 C 
ATOM     12  O   LIG    1       25.781 -23.247  14.369  0.00  0.00    -0.293 OA
ATOM     13  C   LIG    1       27.021 -25.224  13.805  0.00  0.00    +0.079 C 
ATOM     14  C   LIG    1       23.169 -27.275  14.099  0.00  0.00    +0.031 C 
ATOM     15  C   LIG    1       26.735 -26.314  12.784  0.00  0.00    +0.016 C 
ATOM     16  C   LIG    1       22.765 -28.145  12.918  0.00  0.00    +0.009 C 
ATOM     17  C   LIG    1       23.153 -31.147  13.698  0.00  0.00    +0.008 C 
ATOM     18  C   LIG    1       26.020 -30.597  11.593  0.00  0.00    +0.041 C 
ATOM     19  C   LIG    1       23.845 -32.456  14.041  0.00  0.00    +0.049 C 
ENDROOT
BRANCH   1  21
ATOM     20  C   LIG    1       24.138 -33.510  10.724  0.00  0.00    +0.007 C 
ATOM     21  C   LIG    1       24.533 -33.047  11.761  0.00  0.00    -0.070 C 
ENDBRANCH   1  21
BRANCH   1  22
ATOM     22  O   LIG    1       25.995 -33.422  13.540  0.00  0.00    -0.376 OA
ATOM     23  H   LIG    1       25.781 -33.600  14.473  0.00  0.00    +0.211 HD
ENDBRANCH   1  22
BRANCH   2  24
ATOM     24  C   LIG    1       26.765 -30.799  13.976  0.00  0.00    +0.008 C 
ATOM     25  C   LIG    1       26.513 -30.124  15.321  0.00  0.00    +0.004 C 
ENDBRANCH   2  24
TORSDOF 3
ENDMDL
MODEL 5
REMARK VINA RESULT:      -5.0      1.613      3.482
REMARK  Name = *****
REMARK                            x       y       z     vdW  Elec       q    Type
REMARK                         _______ _______ _______ _____ _____    ______ ____
ROOT
ATOM      1  C   LIG    1       25.881 -30.280  11.896  0.00  0.00    +0.132 C 
ATOM      2  C   LIG    1       24.573 -29.805  12.642  0.00  0.00    +0.017 C 
ATOM      3  C   LIG    1       23.410 -30.596  11.938  0.00  0.00    +0.003 C 
ATOM      4  C   LIG    1       22.273 -29.700  11.372  0.00  0.00    +0.001 C 
ATOM      5  C   LIG    1       21.761 -28.699  12.443  0.00  0.00    +0.025 C 
ATOM      6  C   LIG    1       22.932 -27.825  12.903  0.00  0.00    -0.072 C 
ATOM      7  C   LIG    1       22.767 -26.621  13.478  0.00  0.00    +0.008 C 
ATOM      8  C   LIG    1       20.951 -29.433  13.577  0.00  0.00    +0.023 C 
ATOM      9  C   LIG    1       19.890 -30.368  12.996  0.00  0.00    -0.063 C 
ATOM     10  C   LIG    1       18.638 -30.464  13.478  0.00  0.00    +0.045 C 
ATOM     11  C   LIG    1       18.230 -29.747  14.707  0.00  0.00    +0.156 C 
ATOM     12  O   LIG    1       17.065 -29.813  15.091  0.00  0.00    -0.293 OA
ATOM     13  C   LIG    1       19.307 -29.059  15.500  0.00  0.00    +0.079 C 
ATOM     14  C   LIG    1       20.316 -31.260  11.857  0.00  0.00    +0.031 C 
ATOM     15  C   LIG    1       20.324 -28.425  14.564  0.00  0.00    +0.016 C 
ATOM     16  C   LIG    1       21.096 -30.503  10.793  0.00  0.00    +0.009 C 
ATOM     17  C   LIG    1       24.072 -31.458  10.852  0.00  0.00    +0.008 C 
ATOM     18  C   LIG    1       24.329 -28.274  12.510  0.00  0.00    +0.041 C 
ATOM     19  C   LIG    1       25.500 -31.653  11.332  0.00  0.00    +0.049 C 
ENDROOT
BRANCH   1  21
ATOM     20  C   LIG    1       26.654 -28.681   9.883  0.00  0.00    +0.007 C 
ATOM     21  C   LIG    1       26.321 -29.407  10.781  0.00  0.00    -0.070 C 
ENDBRANCH   1  21
BRANCH   1  22
ATOM     22  O   LIG    1       26.990 -30.423  12.771  0.00  0.00    -0.376 OA
ATOM     23  H   LIG    1       26.633 -30.615  13.656  0.00  0.00    +0.211 HD
ENDBRANCH   1  22
BRANCH   2  24
ATOM     24  C   LIG    1       24.632 -30.111  14.185  0.00  0.00    +0.008 C 
ATOM     25  C   LIG    1       23.868 -31.322  14.713  0.00  0.00    +0.004 C 
ENDBRANCH   2  24
TORSDOF 3
ENDMDL
MODEL 6
REMARK VINA RESULT:      -4.9      3.613      5.891
REMARK  Name = *****
REMARK                            x       y       z     vdW  Elec       q    Type
REMARK                         _______ _______ _______ _____ _____    ______ ____
ROOT
ATOM      1  C   LIG    1       24.338 -30.982   6.270  0.00  0.00    +0.132 C 
ATOM      2  C   LIG    1       24.547 -31.297   7.803  0.00  0.00    +0.017 C 
ATOM      3  C   LIG    1       25.156 -29.973   8.397  0.00  0.00    +0.003 C 
ATOM      4  C   LIG    1       26.503 -30.164   9.146  0.00  0.00    +0.001 C 
ATOM      5  C   LIG    1       26.408 -31.307  10.193  0.00  0.00    +0.025 C 
ATOM      6  C   LIG    1       26.023 -32.604   9.474  0.00  0.00    -0.072 C 
ATOM      7  C   LIG    1       26.264 -33.825   9.984  0.00  0.00    +0.008 C 
ATOM      8  C   LIG    1       25.506 -30.893  11.416  0.00  0.00    +0.023 C 
ATOM      9  C   LIG    1       25.907 -29.528  11.975  0.00  0.00    -0.063 C 
ATOM     10  C   LIG    1       26.005 -29.261  13.289  0.00  0.00    +0.045 C 
ATOM     11  C   LIG    1       25.602 -30.256  14.308  0.00  0.00    +0.156 C 
ATOM     12  O   LIG    1       25.753 -30.001  15.500  0.00  0.00    -0.293 OA
ATOM     13  C   LIG    1       24.908 -31.501  13.827  0.00  0.00    +0.079 C 
ATOM     14  C   LIG    1       26.144 -28.424  10.974  0.00  0.00    +0.031 C 
ATOM     15  C   LIG    1       25.524 -31.973  12.519  0.00  0.00    +0.016 C 
ATOM     16  C   LIG    1       27.017 -28.878   9.813  0.00  0.00    +0.009 C 
ATOM     17  C   LIG    1       25.272 -28.989   7.223  0.00  0.00    +0.008 C 
ATOM     18  C   LIG    1       25.523 -32.484   8.045  0.00  0.00    +0.041 C 
ATOM     19  C   LIG    1       24.225 -29.455   6.225  0.00  0.00    +0.049 C 
ENDROOT
BRANCH   1  21
ATOM     20  C   LIG    1       26.326 -31.775   4.651  0.00  0.00    +0.007 C 
ATOM     21  C   LIG    1       25.446 -31.409   5.384  0.00  0.00    -0.070 C 
ENDBRANCH   1  21
BRANCH   1  22
ATOM     22  O   LIG    1       23.147 -31.556   5.750  0.00  0.00    -0.376 OA
ATOM     23  H   LIG    1       23.156 -32.499   5.990  0.00  0.00    +0.211 HD
ENDBRANCH   1  22
BRANCH   2  24
ATOM     24  C   LIG    1       23.196 -31.684   8.515  0.00  0.00    +0.008 C 
ATOM     25  C   LIG    1       22.701 -30.803   9.658  0.00  0.00    +0.004 C 
ENDBRANCH   2  24
TORSDOF 3
ENDMDL
MODEL 7
REMARK VINA RESULT:      -4.9      2.467      3.296
REMARK  Name = *****
REMARK                            x       y       z     vdW  Elec       q    Type
REMARK                         _______ _______ _______ _____ _____    ______ ____
ROOT
ATOM      1  C   LIG    1       23.439 -31.641  11.409  0.00  0.00    +0.132 C 
ATOM      2  C   LIG    1       22.170 -31.125  12.193  0.00  0.00    +0.017 C 
ATOM      3  C   LIG    1       22.326 -29.560  12.208  0.00  0.00    +0.003 C 
ATOM      4  C   LIG    1       22.286 -28.923  13.624  0.00  0.00    +0.001 C 
ATOM      5  C   LIG    1       21.050 -29.414  14.427  0.00  0.00    +0.025 C 
ATOM      6  C   LIG    1       21.112 -30.940  14.544  0.00  0.00    -0.072 C 
ATOM      7  C   LIG    1       20.463 -31.629  15.499  0.00  0.00    +0.008 C 
ATOM      8  C   LIG    1       19.714 -28.811  13.851  0.00  0.00    +0.023 C 
ATOM      9  C   LIG    1       19.813 -27.297  13.666  0.00  0.00    -0.063 C 
ATOM     10  C   LIG    1       18.833 -26.440  14.004  0.00  0.00    +0.045 C 
ATOM     11  C   LIG    1       17.516 -26.924  14.475  0.00  0.00    +0.156 C 
ATOM     12  O   LIG    1       16.661 -26.116  14.826  0.00  0.00    -0.293 OA
ATOM     13  C   LIG    1       17.247 -28.402  14.385  0.00  0.00    +0.079 C 
ATOM     14  C   LIG    1       21.065 -26.770  13.012  0.00  0.00    +0.031 C 
ATOM     15  C   LIG    1       18.503 -29.186  14.732  0.00  0.00    +0.016 C 
ATOM     16  C   LIG    1       22.325 -27.386  13.602  0.00  0.00    +0.009 C 
ATOM     17  C   LIG    1       23.634 -29.252  11.463  0.00  0.00    +0.008 C 
ATOM     18  C   LIG    1       22.103 -31.665  13.651  0.00  0.00    +0.041 C 
ATOM     19  C   LIG    1       23.844 -30.443  10.544  0.00  0.00    +0.049 C 
ENDROOT
BRANCH   1  21
ATOM     20  C   LIG    1       25.501 -32.348  12.975  0.00  0.00    +0.007 C 
ATOM     21  C   LIG    1       24.588 -32.031  12.260  0.00  0.00    -0.070 C 
ENDBRANCH   1  21
BRANCH   1  22
ATOM     22  O   LIG    1       23.151 -32.750  10.569  0.00  0.00    -0.376 OA
ATOM     23  H   LIG    1       22.186 -32.777  10.452  0.00  0.00    +0.211 HD
ENDBRANCH   1  22
BRANCH   2  24
ATOM     24  C   LIG    1       20.828 -31.567  11.497  0.00  0.00    +0.008 C 
ATOM     25  C   LIG    1       20.079 -30.543  10.650  0.00  0.00    +0.004 C 
ENDBRANCH   2  24
TORSDOF 3
ENDMDL
MODEL 8
REMARK VINA RESULT:      -4.7      4.719      8.449
REMARK  Name = *****
REMARK                            x       y       z     vdW  Elec       q    Type
REMARK                         _______ _______ _______ _____ _____    ______ ____
ROOT
ATOM      1  C   LIG    1       23.198 -31.441  11.008  0.00  0.00    +0.132 C 
ATOM      2  C   LIG    1       23.665 -31.529   9.503  0.00  0.00    +0.017 C 
ATOM      3  C   LIG    1       25.090 -32.192   9.571  0.00  0.00    +0.003 C 
ATOM      4  C   LIG    1       26.216 -31.371   8.882  0.00  0.00    +0.001 C 
ATOM      5  C   LIG    1       25.809 -30.959   7.441  0.00  0.00    +0.025 C 
ATOM      6  C   LIG    1       24.525 -30.128   7.508  0.00  0.00    -0.072 C 
ATOM      7  C   LIG    1       24.147 -29.282   6.534  0.00  0.00    +0.008 C 
ATOM      8  C   LIG    1       25.787 -32.201   6.473  0.00  0.00    +0.023 C 
ATOM      9  C   LIG    1       27.072 -33.022   6.580  0.00  0.00    -0.063 C 
ATOM     10  C   LIG    1       27.729 -33.518   5.517  0.00  0.00    +0.045 C 
ATOM     11  C   LIG    1       27.175 -33.406   4.149  0.00  0.00    +0.156 C 
ATOM     12  O   LIG    1       27.825 -33.822   3.193  0.00  0.00    -0.293 OA
ATOM     13  C   LIG    1       25.770 -32.886   4.009  0.00  0.00    +0.079 C 
ATOM     14  C   LIG    1       27.574 -33.325   7.969  0.00  0.00    +0.031 C 
ATOM     15  C   LIG    1       25.521 -31.772   5.014  0.00  0.00    +0.016 C 
ATOM     16  C   LIG    1       27.572 -32.094   8.863  0.00  0.00    +0.009 C 
ATOM     17  C   LIG    1       25.376 -32.445  11.059  0.00  0.00    +0.008 C 
ATOM     18  C   LIG    1       23.762 -30.133   8.821  0.00  0.00    +0.041 C 
ATOM     19  C   LIG    1       24.004 -32.544  11.704  0.00  0.00    +0.049 C 
ENDROOT
BRANCH   1  21
ATOM     20  C   LIG    1       23.715 -29.115  12.244  0.00  0.00    +0.007 C 
ATOM     21  C   LIG    1       23.476 -30.148  11.678  0.00  0.00    -0.070 C 
ENDBRANCH   1  21
BRANCH   1  22
ATOM     22  O   LIG    1       21.811 -31.701  11.168  0.00  0.00    -0.376 OA
ATOM     23  H   LIG    1       21.687 -32.661  11.071  0.00  0.00    +0.211 HD
ENDBRANCH   1  22
BRANCH   2  24
ATOM     24  C   LIG    1       22.671 -32.380   8.627  0.00  0.00    +0.008 C 
ATOM     25  C   LIG    1       23.068 -33.806   8.260  0.00  0.00    +0.004 C 
ENDBRANCH   2  24
TORSDOF 3
ENDMDL
MODEL 9
REMARK VINA RESULT:      -4.6      2.271      3.987
REMARK  Name = *****
REMARK                            x       y       z     vdW  Elec       q    Type
REMARK                         _______ _______ _______ _____ _____    ______ ____
ROOT
ATOM      1  C   LIG    1       25.995 -28.117  14.150  0.00  0.00    +0.132 C 
ATOM      2  C   LIG    1       24.476 -28.511  13.982  0.00  0.00    +0.017 C 
ATOM      3  C   LIG    1       24.478 -29.624  12.870  0.00  0.00    +0.003 C 
ATOM      4  C   LIG    1       23.553 -29.325  11.658  0.00  0.00    +0.001 C 
ATOM      5  C   LIG    1       22.122 -28.940  12.125  0.00  0.00    +0.025 C 
ATOM      6  C   LIG    1       22.212 -27.707  13.028  0.00  0.00    -0.072 C 
ATOM      7  C   LIG    1       21.174 -26.882  13.249  0.00  0.00    +0.008 C 
ATOM      8  C   LIG    1       21.357 -30.183  12.715  0.00  0.00    +0.023 C 
ATOM      9  C   LIG    1       21.436 -31.390  11.779  0.00  0.00    -0.063 C 
ATOM     10  C   LIG    1       20.390 -32.188  11.503  0.00  0.00    +0.045 C 
ATOM     11  C   LIG    1       19.092 -32.022  12.195  0.00  0.00    +0.156 C 
ATOM     12  O   LIG    1       18.141 -32.733  11.882  0.00  0.00    -0.293 OA
ATOM     13  C   LIG    1       19.038 -31.057  13.347  0.00  0.00    +0.079 C 
ATOM     14  C   LIG    1       22.789 -31.712  11.196  0.00  0.00    +0.031 C 
ATOM     15  C   LIG    1       19.890 -29.834  13.048  0.00  0.00    +0.016 C 
ATOM     16  C   LIG    1       23.486 -30.478  10.644  0.00  0.00    +0.009 C 
ATOM     17  C   LIG    1       25.945 -29.813  12.455  0.00  0.00    +0.008 C 
ATOM     18  C   LIG    1       23.590 -27.314  13.532  0.00  0.00    +0.041 C 
ATOM     19  C   LIG    1       26.749 -29.359  13.662  0.00  0.00    +0.049 C 
ENDROOT
BRANCH   1  21
ATOM     20  C   LIG    1       26.814 -25.997  12.720  0.00  0.00    +0.007 C 
ATOM     21  C   LIG    1       26.432 -26.946  13.353  0.00  0.00    -0.070 C 
ENDBRANCH   1  21
BRANCH   1  22
ATOM     22  O   LIG    1       26.348 -27.854  15.500  0.00  0.00    -0.376 OA
ATOM     23  H   LIG    1       26.776 -26.980  15.519  0.00  0.00    +0.211 HD
ENDBRANCH   1  22
BRANCH   2  24
ATOM     24  C   LIG    1       23.853 -29.039  15.329  0.00  0.00    +0.008 C 
ATOM     25  C   LIG    1       23.635 -30.540  15.488  0.00  0.00    +0.004 C 
ENDBRANCH   2  24
TORSDOF 3
ENDMDL
