MODEL 1
REMARK VINA RESULT:      -4.7      0.000      0.000
REMARK  Name = *****
REMARK                            x       y       z     vdW  Elec       q    Type
REMARK                         _______ _______ _______ _____ _____    ______ ____
ROOT
ATOM      1  C   LIG    1       25.624 -18.744   3.718  0.00  0.00    +0.118 C 
ENDROOT
BRANCH   1   2
ATOM      2  C   LIG    1       24.290 -19.445   4.055  0.00  0.00    +0.007 A 
ATOM      3  C   LIG    1       23.103 -18.782   4.429  0.00  0.00    +0.047 A 
ATOM      4 CL   LIG    1       22.867 -17.072   4.304  0.00  0.00    -0.083 Cl
ATOM      5  C   LIG    1       21.991 -19.501   4.899  0.00  0.00    +0.020 A 
ATOM      6  C   LIG    1       21.999 -20.892   4.915  0.00  0.00    +0.001 A 
ATOM      7  C   LIG    1       23.105 -21.571   4.429  0.00  0.00    +0.001 A 
ATOM      8  C   LIG    1       24.236 -20.860   4.015  0.00  0.00    +0.008 A 
ENDBRANCH   1   2
BRANCH   1   9
ATOM      9  C   LIG    1       26.776 -19.106   4.694  0.00  0.00    -0.012 A 
ATOM     10  C   LIG    1       28.026 -18.446   4.653  0.00  0.00    +0.007 A 
ATOM     11  C   LIG    1       29.038 -18.756   5.565  0.00  0.00    +0.000 A 
ATOM     12  C   LIG    1       28.837 -19.720   6.534  0.00  0.00    +0.000 A 
ATOM     13  C   LIG    1       27.614 -20.394   6.600  0.00  0.00    +0.000 A 
ATOM     14  C   LIG    1       26.600 -20.095   5.679  0.00  0.00    +0.007 A 
ENDBRANCH   1   9
BRANCH   1  15
ATOM     15  O   LIG    1       26.080 -19.234   2.434  0.00  0.00    -0.379 OA
ATOM     16  H   LIG    1       25.476 -18.874   1.762  0.00  0.00    +0.211 HD
ENDBRANCH   1  15
BRANCH   1  17
ATOM     17  C   LIG    1       25.438 -17.207   3.537  0.00  0.00    +0.060 C 
BRANCH  17  18
ATOM     18  C   LIG    1       26.709 -16.368   3.287  0.00  0.00    +0.087 C 
BRANCH  18  20
ATOM     19  C   LIG    1       25.232 -14.486   3.656  0.00  0.00    +0.104 C 
ATOM     20  N   LIG    1       26.423 -14.955   2.936  0.00  0.00    -0.308 NA
ATOM     21  C   LIG    1       27.539 -14.054   3.236  0.00  0.00    +0.104 C 
ENDBRANCH  18  20
ENDBRANCH  17  18
ENDBRANCH   1  17
TORSDOF 6
ENDMDL
MODEL 2
REMARK VINA RESULT:      -3.9      1.298      1.883
REMARK  Name = *****
REMARK                            x       y       z     vdW  Elec       q    Type
REMARK                         _______ _______ _______ _____ _____    ______ ____
ROOT
ATOM      1  C   LIG    1       25.795 -18.680   3.648  0.00  0.00    +0.118 C 
ENDROOT
BRANCH   1   2
ATOM      2  C   LIG    1       24.320 -18.831   4.078  0.00  0.00    +0.007 A 
ATOM      3  C   LIG    1       23.678 -20.059   4.340  0.00  0.00    +0.047 A 
ATOM      4 CL   LIG    1       24.505 -21.572   4.493  0.00  0.00    -0.083 Cl
ATOM      5  C   LIG    1       22.290 -20.120   4.542  0.00  0.00    +0.020 A 
ATOM      6  C   LIG    1       21.526 -18.958   4.586  0.00  0.00    +0.001 A 
ATOM      7  C   LIG    1       22.151 -17.728   4.462  0.00  0.00    +0.001 A 
ATOM      8  C   LIG    1       23.524 -17.665   4.203  0.00  0.00    +0.008 A 
ENDBRANCH   1   2
BRANCH   1   9
ATOM      9  C   LIG    1       26.805 -19.146   4.731  0.00  0.00    -0.012 A 
ATOM     10  C   LIG    1       28.124 -18.641   4.791  0.00  0.00    +0.007 A 
ATOM     11  C   LIG    1       29.007 -19.040   5.797  0.00  0.00    +0.000 A 
ATOM     12  C   LIG    1       28.607 -19.944   6.763  0.00  0.00    +0.000 A 
ATOM     13  C   LIG    1       27.310 -20.466   6.731  0.00  0.00    +0.000 A 
ATOM     14  C   LIG    1       26.425 -20.078   5.716  0.00  0.00    +0.007 A 
ENDBRANCH   1   9
BRANCH   1  15
ATOM     15  O   LIG    1       26.034 -19.573   2.533  0.00  0.00    -0.379 OA
ATOM     16  H   LIG    1       26.739 -19.175   1.995  0.00  0.00    +0.211 HD
ENDBRANCH   1  15
BRANCH   1  17
ATOM     17  C   LIG    1       26.096 -17.249   3.109  0.00  0.00    +0.060 C 
BRANCH  17  18
ATOM     18  C   LIG    1       27.156 -16.420   3.863  0.00  0.00    +0.087 C 
BRANCH  18  20
ATOM     19  C   LIG    1       27.860 -14.111   3.694  0.00  0.00    +0.104 C 
ATOM     20  N   LIG    1       26.759 -15.006   4.074  0.00  0.00    -0.308 NA
ATOM     21  C   LIG    1       25.563 -14.628   3.318  0.00  0.00    +0.104 C 
ENDBRANCH  18  20
ENDBRANCH  17  18
ENDBRANCH   1  17
TORSDOF 6
ENDMDL
MODEL 3
REMARK VINA RESULT:      -3.3      2.146      4.688
REMARK  Name = *****
REMARK                            x       y       z     vdW  Elec       q    Type
REMARK                         _______ _______ _______ _____ _____    ______ ____
ROOT
ATOM      1  C   LIG    1       25.262 -18.962   4.024  0.00  0.00    +0.118 C 
ENDROOT
BRANCH   1   2
ATOM      2  C   LIG    1       24.698 -17.527   3.945  0.00  0.00    +0.007 A 
ATOM      3  C   LIG    1       25.469 -16.370   3.711  0.00  0.00    +0.047 A 
ATOM      4 CL   LIG    1       27.123 -16.394   3.199  0.00  0.00    -0.083 Cl
ATOM      5  C   LIG    1       24.908 -15.089   3.840  0.00  0.00    +0.020 A 
ATOM      6  C   LIG    1       23.552 -14.930   4.107  0.00  0.00    +0.001 A 
ATOM      7  C   LIG    1       22.744 -16.051   4.213  0.00  0.00    +0.001 A 
ATOM      8  C   LIG    1       23.309 -17.329   4.142  0.00  0.00    +0.008 A 
ENDBRANCH   1   2
BRANCH   1   9
ATOM      9  C   LIG    1       24.416 -19.910   4.917  0.00  0.00    -0.012 A 
ATOM     10  C   LIG    1       24.815 -20.257   6.227  0.00  0.00    +0.007 A 
ATOM     11  C   LIG    1       24.022 -21.079   7.033  0.00  0.00    +0.000 A 
ATOM     12  C   LIG    1       22.820 -21.572   6.562  0.00  0.00    +0.000 A 
ATOM     13  C   LIG    1       22.397 -21.250   5.268  0.00  0.00    +0.000 A 
ATOM     14  C   LIG    1       23.195 -20.437   4.453  0.00  0.00    +0.007 A 
ENDBRANCH   1   9
BRANCH   1  15
ATOM     15  O   LIG    1       25.181 -19.552   2.705  0.00  0.00    -0.379 OA
ATOM     16  H   LIG    1       25.316 -18.834   2.063  0.00  0.00    +0.211 HD
ENDBRANCH   1  15
BRANCH   1  17
ATOM     17  C   LIG    1       26.776 -18.968   4.392  0.00  0.00    +0.060 C 
BRANCH  17  18
ATOM     18  C   LIG    1       27.249 -20.023   5.414  0.00  0.00    +0.087 C 
BRANCH  18  20
ATOM     19  C   LIG    1       29.176 -20.740   6.690  0.00  0.00    +0.104 C 
ATOM     20  N   LIG    1       28.406 -19.577   6.230  0.00  0.00    -0.308 NA
ATOM     21  C   LIG    1       29.304 -18.675   5.506  0.00  0.00    +0.104 C 
ENDBRANCH  18  20
ENDBRANCH  17  18
ENDBRANCH   1  17
TORSDOF 6
ENDMDL
MODEL 4
REMARK VINA RESULT:      -3.2      1.999      5.401
REMARK  Name = *****
REMARK                            x       y       z     vdW  Elec       q    Type
REMARK                         _______ _______ _______ _____ _____    ______ ____
ROOT
ATOM      1  C   LIG    1       25.979 -18.249   3.881  0.00  0.00    +0.118 C 
ENDROOT
BRANCH   1   2
ATOM      2  C   LIG    1       27.181 -18.757   4.707  0.00  0.00    +0.007 A 
ATOM      3  C   LIG    1       27.170 -19.910   5.519  0.00  0.00    +0.047 A 
ATOM      4 CL   LIG    1       25.908 -21.094   5.507  0.00  0.00    -0.083 Cl
ATOM      5  C   LIG    1       28.242 -20.197   6.381  0.00  0.00    +0.020 A 
ATOM      6  C   LIG    1       29.384 -19.402   6.384  0.00  0.00    +0.001 A 
ATOM      7  C   LIG    1       29.474 -18.337   5.501  0.00  0.00    +0.001 A 
ATOM      8  C   LIG    1       28.387 -18.014   4.683  0.00  0.00    +0.008 A 
ENDBRANCH   1   2
BRANCH   1   9
ATOM      9  C   LIG    1       25.966 -16.708   3.693  0.00  0.00    -0.012 A 
ATOM     10  C   LIG    1       24.784 -15.947   3.836  0.00  0.00    +0.007 A 
ATOM     11  C   LIG    1       24.797 -14.556   3.704  0.00  0.00    +0.000 A 
ATOM     12  C   LIG    1       25.976 -13.890   3.430  0.00  0.00    +0.000 A 
ATOM     13  C   LIG    1       27.163 -14.612   3.279  0.00  0.00    +0.000 A 
ATOM     14  C   LIG    1       27.152 -16.009   3.398  0.00  0.00    +0.007 A 
ENDBRANCH   1   9
BRANCH   1  15
ATOM     15  O   LIG    1       26.105 -18.769   2.536  0.00  0.00    -0.379 OA
ATOM     16  H   LIG    1       25.305 -18.501   2.051  0.00  0.00    +0.211 HD
ENDBRANCH   1  15
BRANCH   1  17
ATOM     17  C   LIG    1       24.629 -18.809   4.422  0.00  0.00    +0.060 C 
BRANCH  17  18
ATOM     18  C   LIG    1       23.724 -19.553   3.419  0.00  0.00    +0.087 C 
BRANCH  18  20
ATOM     19  C   LIG    1       22.258 -20.678   4.982  0.00  0.00    +0.104 C 
ATOM     20  N   LIG    1       22.323 -19.702   3.886  0.00  0.00    -0.308 NA
ATOM     21  C   LIG    1       21.735 -18.441   4.344  0.00  0.00    +0.104 C 
ENDBRANCH  18  20
ENDBRANCH  17  18
ENDBRANCH   1  17
TORSDOF 6
ENDMDL
MODEL 5
REMARK VINA RESULT:      -3.0      2.000      4.952
REMARK  Name = *****
REMARK                            x       y       z     vdW  Elec       q    Type
REMARK                         _______ _______ _______ _____ _____    ______ ____
ROOT
ATOM      1  C   LIG    1       25.626 -18.120   3.666  0.00  0.00    +0.118 C 
ENDROOT
BRANCH   1   2
ATOM      2  C   LIG    1       25.079 -16.681   3.786  0.00  0.00    +0.007 A 
ATOM      3  C   LIG    1       25.862 -15.512   3.708  0.00  0.00    +0.047 A 
ATOM      4 CL   LIG    1       27.513 -15.483   3.189  0.00  0.00    -0.083 Cl
ATOM      5  C   LIG    1       25.316 -14.254   4.014  0.00  0.00    +0.020 A 
ATOM      6  C   LIG    1       23.962 -14.119   4.308  0.00  0.00    +0.001 A 
ATOM      7  C   LIG    1       23.142 -15.235   4.264  0.00  0.00    +0.001 A 
ATOM      8  C   LIG    1       23.692 -16.497   4.016  0.00  0.00    +0.008 A 
ENDBRANCH   1   2
BRANCH   1   9
ATOM      9  C   LIG    1       24.617 -19.206   4.126  0.00  0.00    -0.012 A 
ATOM     10  C   LIG    1       23.307 -18.880   4.545  0.00  0.00    +0.007 A 
ATOM     11  C   LIG    1       22.397 -19.873   4.917  0.00  0.00    +0.000 A 
ATOM     12  C   LIG    1       22.762 -21.205   4.882  0.00  0.00    +0.000 A 
ATOM     13  C   LIG    1       24.051 -21.562   4.475  0.00  0.00    +0.000 A 
ATOM     14  C   LIG    1       24.970 -20.569   4.113  0.00  0.00    +0.007 A 
ENDBRANCH   1   9
BRANCH   1  15
ATOM     15  O   LIG    1       25.839 -18.405   2.262  0.00  0.00    -0.379 OA
ATOM     16  H   LIG    1       26.801 -18.430   2.119  0.00  0.00    +0.211 HD
ENDBRANCH   1  15
BRANCH   1  17
ATOM     17  C   LIG    1       27.025 -18.263   4.338  0.00  0.00    +0.060 C 
BRANCH  17  18
ATOM     18  C   LIG    1       27.227 -19.452   5.299  0.00  0.00    +0.087 C 
BRANCH  18  20
ATOM     19  C   LIG    1       29.400 -18.522   5.817  0.00  0.00    +0.104 C 
ATOM     20  N   LIG    1       28.654 -19.761   5.564  0.00  0.00    -0.308 NA
ATOM     21  C   LIG    1       28.842 -20.664   6.702  0.00  0.00    +0.104 C 
ENDBRANCH  18  20
ENDBRANCH  17  18
ENDBRANCH   1  17
TORSDOF 6
ENDMDL
MODEL 6
REMARK VINA RESULT:      -2.9      2.433      4.850
REMARK  Name = *****
REMARK                            x       y       z     vdW  Elec       q    Type
REMARK                         _______ _______ _______ _____ _____    ______ ____
ROOT
ATOM      1  C   LIG    1       26.123 -15.467   3.626  0.00  0.00    +0.118 C 
ENDROOT
BRANCH   1   2
ATOM      2  C   LIG    1       26.626 -16.886   3.969  0.00  0.00    +0.007 A 
ATOM      3  C   LIG    1       25.838 -18.054   3.918  0.00  0.00    +0.047 A 
ATOM      4 CL   LIG    1       24.266 -18.133   3.199  0.00  0.00    -0.083 Cl
ATOM      5  C   LIG    1       26.319 -19.273   4.425  0.00  0.00    +0.020 A 
ATOM      6  C   LIG    1       27.621 -19.380   4.903  0.00  0.00    +0.001 A 
ATOM      7  C   LIG    1       28.460 -18.279   4.843  0.00  0.00    +0.001 A 
ATOM      8  C   LIG    1       27.968 -17.049   4.393  0.00  0.00    +0.008 A 
ENDBRANCH   1   2
BRANCH   1   9
ATOM      9  C   LIG    1       27.090 -14.342   4.082  0.00  0.00    -0.012 A 
ATOM     10  C   LIG    1       28.072 -13.803   3.220  0.00  0.00    +0.007 A 
ATOM     11  C   LIG    1       28.907 -12.762   3.633  0.00  0.00    +0.000 A 
ATOM     12  C   LIG    1       28.790 -12.232   4.904  0.00  0.00    +0.000 A 
ATOM     13  C   LIG    1       27.831 -12.744   5.784  0.00  0.00    +0.000 A 
ATOM     14  C   LIG    1       27.000 -13.797   5.377  0.00  0.00    +0.007 A 
ENDBRANCH   1   9
BRANCH   1  15
ATOM     15  O   LIG    1       26.086 -15.339   2.184  0.00  0.00    -0.379 OA
ATOM     16  H   LIG    1       26.327 -16.206   1.814  0.00  0.00    +0.211 HD
ENDBRANCH   1  15
BRANCH   1  17
ATOM     17  C   LIG    1       24.657 -15.243   4.103  0.00  0.00    +0.060 C 
BRANCH  17  18
ATOM     18  C   LIG    1       23.847 -14.138   3.395  0.00  0.00    +0.087 C 
BRANCH  18  20
ATOM     19  C   LIG    1       24.529 -12.223   2.080  0.00  0.00    +0.104 C 
ATOM     20  N   LIG    1       24.508 -12.809   3.427  0.00  0.00    -0.308 NA
ATOM     21  C   LIG    1       23.856 -11.867   4.340  0.00  0.00    +0.104 C 
ENDBRANCH  18  20
ENDBRANCH  17  18
ENDBRANCH   1  17
TORSDOF 6
ENDMDL
MODEL 7
REMARK VINA RESULT:      -2.8      2.213      5.022
REMARK  Name = *****
REMARK                            x       y       z     vdW  Elec       q    Type
REMARK                         _______ _______ _______ _____ _____    ______ ____
ROOT
ATOM      1  C   LIG    1       25.370 -19.123   3.690  0.00  0.00    +0.118 C 
ENDROOT
BRANCH   1   2
ATOM      2  C   LIG    1       26.167 -19.714   4.873  0.00  0.00    +0.007 A 
ATOM      3  C   LIG    1       27.483 -19.346   5.222  0.00  0.00    +0.047 A 
ATOM      4 CL   LIG    1       28.317 -17.982   4.559  0.00  0.00    -0.083 Cl
ATOM      5  C   LIG    1       28.201 -20.064   6.193  0.00  0.00    +0.020 A 
ATOM      6  C   LIG    1       27.597 -21.096   6.905  0.00  0.00    +0.001 A 
ATOM      7  C   LIG    1       26.263 -21.392   6.674  0.00  0.00    +0.001 A 
ATOM      8  C   LIG    1       25.562 -20.718   5.668  0.00  0.00    +0.008 A 
ENDBRANCH   1   2
BRANCH   1   9
ATOM      9  C   LIG    1       25.272 -17.574   3.724  0.00  0.00    -0.012 A 
ATOM     10  C   LIG    1       26.339 -16.747   3.305  0.00  0.00    +0.007 A 
ATOM     11  C   LIG    1       26.220 -15.355   3.303  0.00  0.00    +0.000 A 
ATOM     12  C   LIG    1       25.046 -14.752   3.714  0.00  0.00    +0.000 A 
ATOM     13  C   LIG    1       23.971 -15.541   4.138  0.00  0.00    +0.000 A 
ATOM     14  C   LIG    1       24.092 -16.937   4.153  0.00  0.00    +0.007 A 
ENDBRANCH   1   9
BRANCH   1  15
ATOM     15  O   LIG    1       26.097 -19.405   2.470  0.00  0.00    -0.379 OA
ATOM     16  H   LIG    1       27.034 -19.499   2.712  0.00  0.00    +0.211 HD
ENDBRANCH   1  15
BRANCH   1  17
ATOM     17  C   LIG    1       23.986 -19.819   3.522  0.00  0.00    +0.060 C 
BRANCH  17  18
ATOM     18  C   LIG    1       22.765 -19.119   4.154  0.00  0.00    +0.087 C 
BRANCH  18  20
ATOM     19  C   LIG    1       21.898 -21.305   4.730  0.00  0.00    +0.104 C 
ATOM     20  N   LIG    1       22.098 -19.929   5.204  0.00  0.00    -0.308 NA
ATOM     21  C   LIG    1       22.851 -19.969   6.460  0.00  0.00    +0.104 C 
ENDBRANCH  18  20
ENDBRANCH  17  18
ENDBRANCH   1  17
TORSDOF 6
ENDMDL
MODEL 8
REMARK VINA RESULT:      -2.7      2.789      4.860
REMARK  Name = *****
REMARK                            x       y       z     vdW  Elec       q    Type
REMARK                         _______ _______ _______ _____ _____    ______ ____
ROOT
ATOM      1  C   LIG    1       25.416 -14.787   3.310  0.00  0.00    +0.118 C 
ENDROOT
BRANCH   1   2
ATOM      2  C   LIG    1       25.434 -16.310   3.562  0.00  0.00    +0.007 A 
ATOM      3  C   LIG    1       26.599 -17.081   3.754  0.00  0.00    +0.047 A 
ATOM      4 CL   LIG    1       28.173 -16.411   4.015  0.00  0.00    -0.083 Cl
ATOM      5  C   LIG    1       26.539 -18.484   3.791  0.00  0.00    +0.020 A 
ATOM      6  C   LIG    1       25.316 -19.145   3.735  0.00  0.00    +0.001 A 
ATOM      7  C   LIG    1       24.145 -18.406   3.678  0.00  0.00    +0.001 A 
ATOM      8  C   LIG    1       24.203 -17.011   3.584  0.00  0.00    +0.008 A 
ENDBRANCH   1   2
BRANCH   1   9
ATOM      9  C   LIG    1       26.600 -14.036   3.976  0.00  0.00    -0.012 A 
ATOM     10  C   LIG    1       27.732 -13.622   3.238  0.00  0.00    +0.007 A 
ATOM     11  C   LIG    1       28.772 -12.911   3.844  0.00  0.00    +0.000 A 
ATOM     12  C   LIG    1       28.713 -12.594   5.188  0.00  0.00    +0.000 A 
ATOM     13  C   LIG    1       27.609 -12.992   5.948  0.00  0.00    +0.000 A 
ATOM     14  C   LIG    1       26.570 -13.716   5.346  0.00  0.00    +0.007 A 
ENDBRANCH   1   9
BRANCH   1  15
ATOM     15  O   LIG    1       25.606 -14.562   1.892  0.00  0.00    -0.379 OA
ATOM     16  H   LIG    1       24.818 -14.911   1.440  0.00  0.00    +0.211 HD
ENDBRANCH   1  15
BRANCH   1  17
ATOM     17  C   LIG    1       24.029 -14.162   3.649  0.00  0.00    +0.060 C 
BRANCH  17  18
ATOM     18  C   LIG    1       23.371 -13.278   2.570  0.00  0.00    +0.087 C 
BRANCH  18  20
ATOM     19  C   LIG    1       23.828 -11.489   4.135  0.00  0.00    +0.104 C 
ATOM     20  N   LIG    1       23.690 -11.835   2.714  0.00  0.00    -0.308 NA
ATOM     21  C   LIG    1       24.916 -11.447   2.013  0.00  0.00    +0.104 C 
ENDBRANCH  18  20
ENDBRANCH  17  18
ENDBRANCH   1  17
TORSDOF 6
ENDMDL
MODEL 9
REMARK VINA RESULT:      -1.9      2.394      5.909
REMARK  Name = *****
REMARK                            x       y       z     vdW  Elec       q    Type
REMARK                         _______ _______ _______ _____ _____    ______ ____
ROOT
ATOM      1  C   LIG    1       25.850 -18.285   3.548  0.00  0.00    +0.118 C 
ENDROOT
BRANCH   1   2
ATOM      2  C   LIG    1       26.370 -16.831   3.539  0.00  0.00    +0.007 A 
ATOM      3  C   LIG    1       27.577 -16.404   4.131  0.00  0.00    +0.047 A 
ATOM      4 CL   LIG    1       28.802 -17.476   4.719  0.00  0.00    -0.083 Cl
ATOM      5  C   LIG    1       27.884 -15.037   4.240  0.00  0.00    +0.020 A 
ATOM      6  C   LIG    1       27.050 -14.074   3.680  0.00  0.00    +0.001 A 
ATOM      7  C   LIG    1       25.924 -14.474   2.978  0.00  0.00    +0.001 A 
ATOM      8  C   LIG    1       25.585 -15.830   2.916  0.00  0.00    +0.008 A 
ENDBRANCH   1   2
BRANCH   1   9
ATOM      9  C   LIG    1       24.328 -18.394   3.836  0.00  0.00    -0.012 A 
ATOM     10  C   LIG    1       23.637 -19.624   3.748  0.00  0.00    +0.007 A 
ATOM     11  C   LIG    1       22.276 -19.713   4.051  0.00  0.00    +0.000 A 
ATOM     12  C   LIG    1       21.571 -18.592   4.446  0.00  0.00    +0.000 A 
ATOM     13  C   LIG    1       22.224 -17.359   4.541  0.00  0.00    +0.000 A 
ATOM     14  C   LIG    1       23.586 -17.263   4.226  0.00  0.00    +0.007 A 
ENDBRANCH   1   9
BRANCH   1  15
ATOM     15  O   LIG    1       25.997 -18.825   2.212  0.00  0.00    -0.379 OA
ATOM     16  H   LIG    1       25.308 -19.502   2.101  0.00  0.00    +0.211 HD
ENDBRANCH   1  15
BRANCH   1  17
ATOM     17  C   LIG    1       26.713 -19.201   4.467  0.00  0.00    +0.060 C 
BRANCH  17  18
ATOM     18  C   LIG    1       26.096 -19.626   5.816  0.00  0.00    +0.087 C 
BRANCH  18  20
ATOM     19  C   LIG    1       27.240 -21.571   6.692  0.00  0.00    +0.104 C 
ATOM     20  N   LIG    1       26.035 -21.098   5.999  0.00  0.00    -0.308 NA
ATOM     21  C   LIG    1       24.857 -21.532   6.753  0.00  0.00    +0.104 C 
ENDBRANCH  18  20
ENDBRANCH  17  18
ENDBRANCH   1  17
TORSDOF 6
ENDMDL
