MODEL 1
REMARK VINA RESULT:      -5.2      0.000      0.000
REMARK  Name = *****
REMARK                            x       y       z     vdW  Elec       q    Type
REMARK                         _______ _______ _______ _____ _____    ______ ____
ROOT
ATOM      1  C   LIG    1       24.286 -20.826   4.494  0.00  0.00    +0.161 C 
ENDROOT
BRANCH   1   2
ATOM      2  C   LIG    1       25.588 -20.682   5.263  0.00  0.00    -0.018 A 
ATOM      3  C   LIG    1       26.583 -19.772   4.875  0.00  0.00    +0.006 A 
ATOM      4  C   LIG    1       27.798 -19.697   5.563  0.00  0.00    +0.000 A 
ATOM      5  C   LIG    1       28.033 -20.529   6.656  0.00  0.00    +0.000 A 
ATOM      6  C   LIG    1       27.053 -21.430   7.062  0.00  0.00    +0.000 A 
ATOM      7  C   LIG    1       25.840 -21.507   6.372  0.00  0.00    +0.006 A 
ENDBRANCH   1   2
BRANCH   1   9
ATOM      8  C   LIG    1       22.351 -19.125   4.812  0.00  0.00    +0.027 C 
ATOM      9  C   LIG    1       22.972 -20.448   5.245  0.00  0.00    +0.081 C 
BRANCH   9  10
ATOM     10  N   LIG    1       21.983 -21.546   5.187  0.00  0.00    -0.325 NA
ATOM     11  H   LIG    1       21.312 -21.350   4.444  0.00  0.00    +0.118 HD
ATOM     12  H   LIG    1       22.464 -22.401   4.896  0.00  0.00    +0.118 HD
ENDBRANCH   9  10
ENDBRANCH   1   9
BRANCH   1  13
ATOM     13  O   LIG    1       24.351 -20.027   3.300  0.00  0.00    -0.386 OA
ATOM     14  H   LIG    1       24.739 -20.627   2.630  0.00  0.00    +0.210 HD
ENDBRANCH   1  13
TORSDOF 4
ENDMDL
MODEL 2
REMARK VINA RESULT:      -5.1      2.594      4.521
REMARK  Name = *****
REMARK                            x       y       z     vdW  Elec       q    Type
REMARK                         _______ _______ _______ _____ _____    ______ ____
ROOT
ATOM      1  C   LIG    1       26.477 -20.807   5.834  0.00  0.00    +0.161 C 
ENDROOT
BRANCH   1   2
ATOM      2  C   LIG    1       25.141 -20.285   5.334  0.00  0.00    -0.018 A 
ATOM      3  C   LIG    1       25.021 -19.592   4.119  0.00  0.00    +0.006 A 
ATOM      4  C   LIG    1       23.792 -19.070   3.706  0.00  0.00    +0.000 A 
ATOM      5  C   LIG    1       22.660 -19.239   4.502  0.00  0.00    +0.000 A 
ATOM      6  C   LIG    1       22.757 -19.932   5.703  0.00  0.00    +0.000 A 
ATOM      7  C   LIG    1       23.986 -20.453   6.118  0.00  0.00    +0.006 A 
ENDBRANCH   1   2
BRANCH   1   9
ATOM      8  C   LIG    1       28.708 -20.247   7.036  0.00  0.00    +0.027 C 
ATOM      9  C   LIG    1       27.585 -19.750   6.134  0.00  0.00    +0.081 C 
BRANCH   9  10
ATOM     10  N   LIG    1       28.121 -19.163   4.886  0.00  0.00    -0.325 NA
ATOM     11  H   LIG    1       28.721 -18.372   5.123  0.00  0.00    +0.118 HD
ATOM     12  H   LIG    1       28.740 -19.848   4.445  0.00  0.00    +0.118 HD
ENDBRANCH   9  10
ENDBRANCH   1   9
BRANCH   1  13
ATOM     13  O   LIG    1       26.267 -21.571   7.033  0.00  0.00    -0.386 OA
ATOM     14  H   LIG    1       27.039 -22.173   7.073  0.00  0.00    +0.210 HD
ENDBRANCH   1  13
TORSDOF 4
ENDMDL
MODEL 3
REMARK VINA RESULT:      -5.0      2.890      4.801
REMARK  Name = *****
REMARK                            x       y       z     vdW  Elec       q    Type
REMARK                         _______ _______ _______ _____ _____    ______ ____
ROOT
ATOM      1  C   LIG    1       27.448 -20.583   5.826  0.00  0.00    +0.161 C 
ENDROOT
BRANCH   1   2
ATOM      2  C   LIG    1       25.936 -20.449   5.789  0.00  0.00    -0.018 A 
ATOM      3  C   LIG    1       25.137 -20.737   6.907  0.00  0.00    +0.006 A 
ATOM      4  C   LIG    1       23.744 -20.663   6.835  0.00  0.00    +0.000 A 
ATOM      5  C   LIG    1       23.126 -20.293   5.641  0.00  0.00    +0.000 A 
ATOM      6  C   LIG    1       23.901 -19.993   4.526  0.00  0.00    +0.000 A 
ATOM      7  C   LIG    1       25.295 -20.069   4.598  0.00  0.00    +0.006 A 
ENDBRANCH   1   2
BRANCH   1   9
ATOM      8  C   LIG    1       29.474 -19.504   7.038  0.00  0.00    +0.027 C 
ATOM      9  C   LIG    1       28.269 -19.291   6.131  0.00  0.00    +0.081 C 
BRANCH   9  10
ATOM     10  N   LIG    1       28.654 -18.592   4.885  0.00  0.00    -0.325 NA
ATOM     11  H   LIG    1       28.148 -19.007   4.102  0.00  0.00    +0.118 HD
ATOM     12  H   LIG    1       28.320 -17.626   4.939  0.00  0.00    +0.118 HD
ENDBRANCH   9  10
ENDBRANCH   1   9
BRANCH   1  13
ATOM     13  O   LIG    1       27.812 -21.572   6.804  0.00  0.00    -0.386 OA
ATOM     14  H   LIG    1       28.503 -21.133   7.344  0.00  0.00    +0.210 HD
ENDBRANCH   1  13
TORSDOF 4
ENDMDL
MODEL 4
REMARK VINA RESULT:      -5.0      2.650      4.745
REMARK  Name = *****
REMARK                            x       y       z     vdW  Elec       q    Type
REMARK                         _______ _______ _______ _____ _____    ______ ____
ROOT
ATOM      1  C   LIG    1       26.675 -20.756   5.822  0.00  0.00    +0.161 C 
ENDROOT
BRANCH   1   2
ATOM      2  C   LIG    1       25.300 -20.275   5.391  0.00  0.00    -0.018 A 
ATOM      3  C   LIG    1       24.163 -20.463   6.192  0.00  0.00    +0.006 A 
ATOM      4  C   LIG    1       22.898 -20.064   5.751  0.00  0.00    +0.000 A 
ATOM      5  C   LIG    1       22.752 -19.464   4.501  0.00  0.00    +0.000 A 
ATOM      6  C   LIG    1       23.870 -19.259   3.699  0.00  0.00    +0.000 A 
ATOM      7  C   LIG    1       25.134 -19.660   4.138  0.00  0.00    +0.006 A 
ENDBRANCH   1   2
BRANCH   1   9
ATOM      8  C   LIG    1       28.982 -20.170   6.858  0.00  0.00    +0.027 C 
ATOM      9  C   LIG    1       27.748 -19.663   6.121  0.00  0.00    +0.081 C 
BRANCH   9  10
ATOM     10  N   LIG    1       28.124 -18.927   4.894  0.00  0.00    -0.325 NA
ATOM     11  H   LIG    1       27.283 -18.753   4.341  0.00  0.00    +0.118 HD
ATOM     12  H   LIG    1       28.465 -18.000   5.163  0.00  0.00    +0.118 HD
ENDBRANCH   9  10
ENDBRANCH   1   9
BRANCH   1  13
ATOM     13  O   LIG    1       26.544 -21.572   6.998  0.00  0.00    -0.386 OA
ATOM     14  H   LIG    1       27.458 -21.868   7.189  0.00  0.00    +0.210 HD
ENDBRANCH   1  13
TORSDOF 4
ENDMDL
MODEL 5
REMARK VINA RESULT:      -4.3      2.658      3.695
REMARK  Name = *****
REMARK                            x       y       z     vdW  Elec       q    Type
REMARK                         _______ _______ _______ _____ _____    ______ ____
ROOT
ATOM      1  C   LIG    1       25.518 -19.990   3.782  0.00  0.00    +0.161 C 
ENDROOT
BRANCH   1   2
ATOM      2  C   LIG    1       24.558 -20.578   4.801  0.00  0.00    -0.018 A 
ATOM      3  C   LIG    1       23.199 -20.777   4.514  0.00  0.00    +0.006 A 
ATOM      4  C   LIG    1       22.321 -21.266   5.486  0.00  0.00    +0.000 A 
ATOM      5  C   LIG    1       22.793 -21.569   6.762  0.00  0.00    +0.000 A 
ATOM      6  C   LIG    1       24.139 -21.390   7.062  0.00  0.00    +0.000 A 
ATOM      7  C   LIG    1       25.017 -20.899   6.091  0.00  0.00    +0.006 A 
ENDBRANCH   1   2
BRANCH   1   9
ATOM      8  C   LIG    1       24.031 -17.870   3.949  0.00  0.00    +0.027 C 
ATOM      9  C   LIG    1       25.216 -18.547   3.272  0.00  0.00    +0.081 C 
BRANCH   9  10
ATOM     10  N   LIG    1       26.423 -17.693   3.328  0.00  0.00    -0.325 NA
ATOM     11  H   LIG    1       26.138 -16.726   3.487  0.00  0.00    +0.118 HD
ATOM     12  H   LIG    1       26.967 -17.953   4.155  0.00  0.00    +0.118 HD
ENDBRANCH   9  10
ENDBRANCH   1   9
BRANCH   1  13
ATOM     13  O   LIG    1       26.848 -19.991   4.329  0.00  0.00    -0.386 OA
ATOM     14  H   LIG    1       27.086 -20.939   4.381  0.00  0.00    +0.210 HD
ENDBRANCH   1  13
TORSDOF 4
ENDMDL
MODEL 6
REMARK VINA RESULT:      -4.2      6.243      7.696
REMARK  Name = *****
REMARK                            x       y       z     vdW  Elec       q    Type
REMARK                         _______ _______ _______ _____ _____    ______ ____
ROOT
ATOM      1  C   LIG    1       27.225 -14.717   4.084  0.00  0.00    +0.161 C 
ENDROOT
BRANCH   1   2
ATOM      2  C   LIG    1       26.058 -13.834   3.679  0.00  0.00    -0.018 A 
ATOM      3  C   LIG    1       25.897 -13.371   2.363  0.00  0.00    +0.006 A 
ATOM      4  C   LIG    1       24.847 -12.513   2.024  0.00  0.00    +0.000 A 
ATOM      5  C   LIG    1       23.937 -12.108   2.999  0.00  0.00    +0.000 A 
ATOM      6  C   LIG    1       24.072 -12.565   4.305  0.00  0.00    +0.000 A 
ATOM      7  C   LIG    1       25.124 -13.421   4.644  0.00  0.00    +0.006 A 
ENDBRANCH   1   2
BRANCH   1   9
ATOM      8  C   LIG    1       27.963 -17.183   4.418  0.00  0.00    +0.027 C 
ATOM      9  C   LIG    1       27.236 -16.177   3.533  0.00  0.00    +0.081 C 
BRANCH   9  10
ATOM     10  N   LIG    1       25.869 -16.640   3.208  0.00  0.00    -0.325 NA
ATOM     11  H   LIG    1       25.352 -16.782   4.076  0.00  0.00    +0.118 HD
ATOM     12  H   LIG    1       25.378 -15.885   2.722  0.00  0.00    +0.118 HD
ENDBRANCH   9  10
ENDBRANCH   1   9
BRANCH   1  13
ATOM     13  O   LIG    1       28.455 -14.090   3.681  0.00  0.00    -0.386 OA
ATOM     14  H   LIG    1       29.036 -14.838   3.433  0.00  0.00    +0.210 HD
ENDBRANCH   1  13
TORSDOF 4
ENDMDL
MODEL 7
REMARK VINA RESULT:      -3.9      6.871      7.547
REMARK  Name = *****
REMARK                            x       y       z     vdW  Elec       q    Type
REMARK                         _______ _______ _______ _____ _____    ______ ____
ROOT
ATOM      1  C   LIG    1       24.855 -14.172   4.391  0.00  0.00    +0.161 C 
ENDROOT
BRANCH   1   2
ATOM      2  C   LIG    1       26.301 -13.712   4.324  0.00  0.00    -0.018 A 
ATOM      3  C   LIG    1       26.975 -13.212   5.449  0.00  0.00    +0.006 A 
ATOM      4  C   LIG    1       28.287 -12.741   5.352  0.00  0.00    +0.000 A 
ATOM      5  C   LIG    1       28.949 -12.768   4.126  0.00  0.00    +0.000 A 
ATOM      6  C   LIG    1       28.302 -13.271   3.002  0.00  0.00    +0.000 A 
ATOM      7  C   LIG    1       26.988 -13.740   3.099  0.00  0.00    +0.006 A 
ENDBRANCH   1   2
BRANCH   1   9
ATOM      8  C   LIG    1       23.819 -11.793   4.489  0.00  0.00    +0.027 C 
ATOM      9  C   LIG    1       23.770 -13.182   3.863  0.00  0.00    +0.081 C 
BRANCH   9  10
ATOM     10  N   LIG    1       23.786 -13.104   2.386  0.00  0.00    -0.325 NA
ATOM     11  H   LIG    1       23.569 -14.024   2.002  0.00  0.00    +0.118 HD
ATOM     12  H   LIG    1       23.019 -12.498   2.084  0.00  0.00    +0.118 HD
ENDBRANCH   9  10
ENDBRANCH   1   9
BRANCH   1  13
ATOM     13  O   LIG    1       24.715 -15.402   3.661  0.00  0.00    -0.386 OA
ATOM     14  H   LIG    1       23.747 -15.517   3.567  0.00  0.00    +0.210 HD
ENDBRANCH   1  13
TORSDOF 4
ENDMDL
MODEL 8
REMARK VINA RESULT:      -3.9      5.780      7.224
REMARK  Name = *****
REMARK                            x       y       z     vdW  Elec       q    Type
REMARK                         _______ _______ _______ _____ _____    ______ ____
ROOT
ATOM      1  C   LIG    1       26.423 -13.805   3.271  0.00  0.00    +0.161 C 
ENDROOT
BRANCH   1   2
ATOM      2  C   LIG    1       25.331 -14.817   3.571  0.00  0.00    -0.018 A 
ATOM      3  C   LIG    1       24.086 -14.434   4.096  0.00  0.00    +0.006 A 
ATOM      4  C   LIG    1       23.116 -15.387   4.418  0.00  0.00    +0.000 A 
ATOM      5  C   LIG    1       23.375 -16.741   4.215  0.00  0.00    +0.000 A 
ATOM      6  C   LIG    1       24.598 -17.140   3.686  0.00  0.00    +0.000 A 
ATOM      7  C   LIG    1       25.569 -16.187   3.365  0.00  0.00    +0.006 A 
ENDBRANCH   1   2
BRANCH   1   9
ATOM      8  C   LIG    1       28.797 -12.900   3.806  0.00  0.00    +0.027 C 
ATOM      9  C   LIG    1       27.598 -13.704   4.294  0.00  0.00    +0.081 C 
BRANCH   9  10
ATOM     10  N   LIG    1       27.126 -13.217   5.609  0.00  0.00    -0.325 NA
ATOM     11  H   LIG    1       27.460 -12.263   5.748  0.00  0.00    +0.118 HD
ATOM     12  H   LIG    1       26.106 -13.144   5.581  0.00  0.00    +0.118 HD
ENDBRANCH   9  10
ENDBRANCH   1   9
BRANCH   1  13
ATOM     13  O   LIG    1       26.991 -14.091   1.982  0.00  0.00    -0.386 OA
ATOM     14  H   LIG    1       27.749 -13.475   1.911  0.00  0.00    +0.210 HD
ENDBRANCH   1  13
TORSDOF 4
ENDMDL
MODEL 9
REMARK VINA RESULT:      -3.9      0.387      1.496
REMARK  Name = *****
REMARK                            x       y       z     vdW  Elec       q    Type
REMARK                         _______ _______ _______ _____ _____    ______ ____
ROOT
ATOM      1  C   LIG    1       24.321 -20.358   4.295  0.00  0.00    +0.161 C 
ENDROOT
BRANCH   1   2
ATOM      2  C   LIG    1       25.581 -20.467   5.136  0.00  0.00    -0.018 A 
ATOM      3  C   LIG    1       25.649 -21.294   6.269  0.00  0.00    +0.006 A 
ATOM      4  C   LIG    1       26.799 -21.336   7.062  0.00  0.00    +0.000 A 
ATOM      5  C   LIG    1       27.904 -20.554   6.729  0.00  0.00    +0.000 A 
ATOM      6  C   LIG    1       27.860 -19.738   5.604  0.00  0.00    +0.000 A 
ATOM      7  C   LIG    1       26.709 -19.694   4.812  0.00  0.00    +0.006 A 
ENDBRANCH   1   2
BRANCH   1   9
ATOM      8  C   LIG    1       22.347 -18.746   4.791  0.00  0.00    +0.027 C 
ATOM      9  C   LIG    1       22.981 -20.107   5.054  0.00  0.00    +0.081 C 
BRANCH   9  10
ATOM     10  N   LIG    1       22.015 -21.202   4.815  0.00  0.00    -0.325 NA
ATOM     11  H   LIG    1       21.599 -21.478   5.706  0.00  0.00    +0.118 HD
ATOM     12  H   LIG    1       21.239 -20.834   4.259  0.00  0.00    +0.118 HD
ENDBRANCH   9  10
ENDBRANCH   1   9
BRANCH   1  13
ATOM     13  O   LIG    1       24.484 -19.299   3.337  0.00  0.00    -0.386 OA
ATOM     14  H   LIG    1       24.484 -19.757   2.470  0.00  0.00    +0.210 HD
ENDBRANCH   1  13
TORSDOF 4
ENDMDL
