MODEL 1
REMARK VINA RESULT:      -5.9      0.000      0.000
REMARK  Name = *****
REMARK                            x       y       z     vdW  Elec       q    Type
REMARK                         _______ _______ _______ _____ _____    ______ ____
ROOT
ATOM      1  C   LIG    1       23.247 -20.815   4.816  0.00  0.00    +0.146 C 
ATOM      2  C   LIG    1       23.113 -19.357   4.531  0.00  0.00    +0.033 C 
ATOM      3  N   LIG    1       24.269 -18.853   4.004  0.00  0.00    -0.341 NA
ATOM      4  C   LIG    1       24.204 -17.504   3.838  0.00  0.00    +0.090 C 
ATOM      5  C   LIG    1       22.871 -17.185   4.104  0.00  0.00    +0.031 C 
ATOM      6  C   LIG    1       25.284 -19.872   3.780  0.00  0.00    +0.123 C 
ATOM      7  C   LIG    1       22.183 -18.354   4.545  0.00  0.00    +0.024 C 
ATOM      8  C   LIG    1       24.474 -21.176   3.931  0.00  0.00    +0.042 C 
ENDROOT
BRANCH   1  10
ATOM      9  O   LIG    1       22.682 -21.571   7.056  0.00  0.00    -0.250 OA
ATOM     10  C   LIG    1       23.523 -21.112   6.287  0.00  0.00    +0.314 C 
BRANCH  10  11
ATOM     11  O   LIG    1       24.750 -20.759   6.733  0.00  0.00    -0.480 OA
ATOM     12  H   LIG    1       24.775 -19.874   7.141  0.00  0.00    +0.295 HD
ENDBRANCH  10  11
ENDBRANCH   1  10
BRANCH   4  13
ATOM     13  C   LIG    1       25.315 -16.663   3.415  0.00  0.00    +0.209 C 
ATOM     14  O   LIG    1       26.395 -17.132   3.062  0.00  0.00    -0.285 OA
BRANCH  13  15
ATOM     15  C   LIG    1       25.168 -15.170   3.419  0.00  0.00    +0.024 C 
ATOM     16  C   LIG    1       26.102 -14.391   2.720  0.00  0.00    +0.012 C 
ATOM     17  C   LIG    1       25.988 -12.997   2.702  0.00  0.00    +0.001 C 
ATOM     18  C   LIG    1       24.947 -12.371   3.387  0.00  0.00    +0.000 C 
ATOM     19  C   LIG    1       24.037 -13.135   4.114  0.00  0.00    +0.001 C 
ATOM     20  C   LIG    1       24.153 -14.528   4.145  0.00  0.00    +0.012 C 
ENDBRANCH  13  15
ENDBRANCH   4  13
TORSDOF 4
ENDMDL
MODEL 2
REMARK VINA RESULT:      -5.7      2.217      6.574
REMARK  Name = *****
REMARK                            x       y       z     vdW  Elec       q    Type
REMARK                         _______ _______ _______ _____ _____    ______ ____
ROOT
ATOM      1  C   LIG    1       25.366 -13.238   3.698  0.00  0.00    +0.146 C 
ATOM      2  C   LIG    1       24.540 -14.449   3.972  0.00  0.00    +0.033 C 
ATOM      3  N   LIG    1       25.240 -15.591   3.699  0.00  0.00    -0.341 NA
ATOM      4  C   LIG    1       24.469 -16.704   3.839  0.00  0.00    +0.090 C 
ATOM      5  C   LIG    1       23.283 -16.236   4.410  0.00  0.00    +0.031 C 
ATOM      6  C   LIG    1       26.615 -15.334   3.301  0.00  0.00    +0.123 C 
ATOM      7  C   LIG    1       23.326 -14.812   4.490  0.00  0.00    +0.024 C 
ATOM      8  C   LIG    1       26.795 -13.852   3.690  0.00  0.00    +0.042 C 
ENDROOT
BRANCH   1  10
ATOM      9  O   LIG    1       25.750 -11.739   1.824  0.00  0.00    -0.250 OA
ATOM     10  C   LIG    1       25.039 -12.585   2.357  0.00  0.00    +0.314 C 
BRANCH  10  11
ATOM     11  O   LIG    1       23.853 -12.938   1.812  0.00  0.00    -0.480 OA
ATOM     12  H   LIG    1       23.130 -12.318   2.022  0.00  0.00    +0.295 HD
ENDBRANCH  10  11
ENDBRANCH   1  10
BRANCH   4  13
ATOM     13  C   LIG    1       24.889 -18.056   3.501  0.00  0.00    +0.209 C 
ATOM     14  O   LIG    1       25.716 -18.284   2.621  0.00  0.00    -0.285 OA
BRANCH  13  15
ATOM     15  C   LIG    1       24.293 -19.228   4.223  0.00  0.00    +0.024 C 
ATOM     16  C   LIG    1       25.143 -20.231   4.713  0.00  0.00    +0.012 C 
ATOM     17  C   LIG    1       24.617 -21.334   5.394  0.00  0.00    +0.001 C 
ATOM     18  C   LIG    1       23.241 -21.446   5.585  0.00  0.00    +0.000 C 
ATOM     19  C   LIG    1       22.387 -20.473   5.071  0.00  0.00    +0.001 C 
ATOM     20  C   LIG    1       22.907 -19.375   4.378  0.00  0.00    +0.012 C 
ENDBRANCH  13  15
ENDBRANCH   4  13
TORSDOF 4
ENDMDL
MODEL 3
REMARK VINA RESULT:      -5.3      2.130      6.467
REMARK  Name = *****
REMARK                            x       y       z     vdW  Elec       q    Type
REMARK                         _______ _______ _______ _____ _____    ______ ____
ROOT
ATOM      1  C   LIG    1       25.190 -14.072   3.888  0.00  0.00    +0.146 C 
ATOM      2  C   LIG    1       24.156 -15.103   4.186  0.00  0.00    +0.033 C 
ATOM      3  N   LIG    1       24.630 -16.360   3.931  0.00  0.00    -0.341 NA
ATOM      4  C   LIG    1       23.666 -17.308   4.093  0.00  0.00    +0.090 C 
ATOM      5  C   LIG    1       22.592 -16.618   4.659  0.00  0.00    +0.031 C 
ATOM      6  C   LIG    1       26.026 -16.369   3.524  0.00  0.00    +0.123 C 
ATOM      7  C   LIG    1       22.899 -15.226   4.714  0.00  0.00    +0.024 C 
ATOM      8  C   LIG    1       26.480 -14.940   3.887  0.00  0.00    +0.042 C 
ENDROOT
BRANCH   1  10
ATOM      9  O   LIG    1       25.903 -13.026   1.812  0.00  0.00    -0.250 OA
ATOM     10  C   LIG    1       24.982 -13.392   2.537  0.00  0.00    +0.314 C 
BRANCH  10  11
ATOM     11  O   LIG    1       23.696 -13.135   2.207  0.00  0.00    -0.480 OA
ATOM     12  H   LIG    1       23.149 -13.937   2.123  0.00  0.00    +0.295 HD
ENDBRANCH  10  11
ENDBRANCH   1  10
BRANCH   4  13
ATOM     13  C   LIG    1       23.826 -18.720   3.778  0.00  0.00    +0.209 C 
ATOM     14  O   LIG    1       23.774 -19.144   2.625  0.00  0.00    -0.285 OA
BRANCH  13  15
ATOM     15  C   LIG    1       24.044 -19.714   4.880  0.00  0.00    +0.024 C 
ATOM     16  C   LIG    1       22.959 -20.085   5.688  0.00  0.00    +0.012 C 
ATOM     17  C   LIG    1       23.131 -21.013   6.721  0.00  0.00    +0.001 C 
ATOM     18  C   LIG    1       24.386 -21.571   6.958  0.00  0.00    +0.000 C 
ATOM     19  C   LIG    1       25.477 -21.180   6.184  0.00  0.00    +0.001 C 
ATOM     20  C   LIG    1       25.313 -20.243   5.159  0.00  0.00    +0.012 C 
ENDBRANCH  13  15
ENDBRANCH   4  13
TORSDOF 4
ENDMDL
MODEL 4
REMARK VINA RESULT:      -5.1      2.255      6.505
REMARK  Name = *****
REMARK                            x       y       z     vdW  Elec       q    Type
REMARK                         _______ _______ _______ _____ _____    ______ ____
ROOT
ATOM      1  C   LIG    1       25.612 -13.829   3.791  0.00  0.00    +0.146 C 
ATOM      2  C   LIG    1       25.790 -15.299   3.608  0.00  0.00    +0.033 C 
ATOM      3  N   LIG    1       24.603 -15.959   3.762  0.00  0.00    -0.341 NA
ATOM      4  C   LIG    1       24.763 -17.309   3.706  0.00  0.00    +0.090 C 
ATOM      5  C   LIG    1       26.091 -17.486   3.312  0.00  0.00    +0.031 C 
ATOM      6  C   LIG    1       23.477 -15.062   3.974  0.00  0.00    +0.123 C 
ATOM      7  C   LIG    1       26.740 -16.217   3.253  0.00  0.00    +0.024 C 
ATOM      8  C   LIG    1       24.076 -13.693   3.592  0.00  0.00    +0.042 C 
ENDROOT
BRANCH   1  10
ATOM      9  O   LIG    1       26.872 -13.917   5.867  0.00  0.00    -0.250 OA
ATOM     10  C   LIG    1       26.034 -13.346   5.175  0.00  0.00    +0.314 C 
BRANCH  10  11
ATOM     11  O   LIG    1       25.361 -12.272   5.648  0.00  0.00    -0.480 OA
ATOM     12  H   LIG    1       24.503 -12.499   6.053  0.00  0.00    +0.295 HD
ENDBRANCH  10  11
ENDBRANCH   1  10
BRANCH   4  13
ATOM     13  C   LIG    1       23.710 -18.283   3.958  0.00  0.00    +0.209 C 
ATOM     14  O   LIG    1       22.599 -18.196   3.439  0.00  0.00    -0.285 OA
BRANCH  13  15
ATOM     15  C   LIG    1       23.959 -19.430   4.892  0.00  0.00    +0.024 C 
ATOM     16  C   LIG    1       22.925 -19.855   5.740  0.00  0.00    +0.012 C 
ATOM     17  C   LIG    1       23.125 -20.925   6.619  0.00  0.00    +0.001 C 
ATOM     18  C   LIG    1       24.360 -21.572   6.663  0.00  0.00    +0.000 C 
ATOM     19  C   LIG    1       25.403 -21.133   5.851  0.00  0.00    +0.001 C 
ATOM     20  C   LIG    1       25.211 -20.056   4.979  0.00  0.00    +0.012 C 
ENDBRANCH  13  15
ENDBRANCH   4  13
TORSDOF 4
ENDMDL
MODEL 5
REMARK VINA RESULT:      -4.8      1.773      2.480
REMARK  Name = *****
REMARK                            x       y       z     vdW  Elec       q    Type
REMARK                         _______ _______ _______ _____ _____    ______ ____
ROOT
ATOM      1  C   LIG    1       24.695 -19.596   3.722  0.00  0.00    +0.146 C 
ATOM      2  C   LIG    1       23.734 -18.507   4.060  0.00  0.00    +0.033 C 
ATOM      3  N   LIG    1       24.298 -17.277   3.864  0.00  0.00    -0.341 NA
ATOM      4  C   LIG    1       23.476 -16.271   4.269  0.00  0.00    +0.090 C 
ATOM      5  C   LIG    1       22.266 -16.907   4.557  0.00  0.00    +0.031 C 
ATOM      6  C   LIG    1       25.638 -17.349   3.302  0.00  0.00    +0.123 C 
ATOM      7  C   LIG    1       22.429 -18.318   4.429  0.00  0.00    +0.024 C 
ATOM      8  C   LIG    1       25.721 -18.821   2.847  0.00  0.00    +0.042 C 
ENDROOT
BRANCH   1  10
ATOM      9  O   LIG    1       24.758 -20.511   5.973  0.00  0.00    -0.250 OA
ATOM     10  C   LIG    1       25.366 -20.201   4.952  0.00  0.00    +0.314 C 
BRANCH  10  11
ATOM     11  O   LIG    1       26.712 -20.308   4.888  0.00  0.00    -0.480 OA
ATOM     12  H   LIG    1       27.043 -20.522   3.996  0.00  0.00    +0.295 HD
ENDBRANCH  10  11
ENDBRANCH   1  10
BRANCH   4  13
ATOM     13  C   LIG    1       23.839 -14.862   4.304  0.00  0.00    +0.209 C 
ATOM     14  O   LIG    1       23.023 -13.982   4.574  0.00  0.00    -0.285 OA
BRANCH  13  15
ATOM     15  C   LIG    1       25.242 -14.442   3.985  0.00  0.00    +0.024 C 
ATOM     16  C   LIG    1       26.118 -14.135   5.037  0.00  0.00    +0.012 C 
ATOM     17  C   LIG    1       27.435 -13.745   4.771  0.00  0.00    +0.001 C 
ATOM     18  C   LIG    1       27.884 -13.651   3.454  0.00  0.00    +0.000 C 
ATOM     19  C   LIG    1       27.010 -13.918   2.402  0.00  0.00    +0.001 C 
ATOM     20  C   LIG    1       25.689 -14.297   2.663  0.00  0.00    +0.012 C 
ENDBRANCH  13  15
ENDBRANCH   4  13
TORSDOF 4
ENDMDL
MODEL 6
REMARK VINA RESULT:      -4.2      2.505      6.271
REMARK  Name = *****
REMARK                            x       y       z     vdW  Elec       q    Type
REMARK                         _______ _______ _______ _____ _____    ______ ____
ROOT
ATOM      1  C   LIG    1       27.226 -14.068   3.932  0.00  0.00    +0.146 C 
ATOM      2  C   LIG    1       27.427 -15.536   4.105  0.00  0.00    +0.033 C 
ATOM      3  N   LIG    1       26.479 -16.243   3.419  0.00  0.00    -0.341 NA
ATOM      4  C   LIG    1       26.578 -17.581   3.651  0.00  0.00    +0.090 C 
ATOM      5  C   LIG    1       27.767 -17.721   4.371  0.00  0.00    +0.031 C 
ATOM      6  C   LIG    1       25.589 -15.396   2.641  0.00  0.00    +0.123 C 
ATOM      7  C   LIG    1       28.300 -16.430   4.661  0.00  0.00    +0.024 C 
ATOM      8  C   LIG    1       26.327 -14.042   2.664  0.00  0.00    +0.042 C 
ENDROOT
BRANCH   1  10
ATOM      9  O   LIG    1       25.419 -12.886   5.047  0.00  0.00    -0.250 OA
ATOM     10  C   LIG    1       26.522 -13.419   5.121  0.00  0.00    +0.314 C 
BRANCH  10  11
ATOM     11  O   LIG    1       27.231 -13.389   6.272  0.00  0.00    -0.480 OA
ATOM     12  H   LIG    1       27.243 -14.243   6.743  0.00  0.00    +0.295 HD
ENDBRANCH  10  11
ENDBRANCH   1  10
BRANCH   4  13
ATOM     13  C   LIG    1       25.640 -18.582   3.165  0.00  0.00    +0.209 C 
ATOM     14  O   LIG    1       25.634 -18.961   1.995  0.00  0.00    -0.285 OA
BRANCH  13  15
ATOM     15  C   LIG    1       24.624 -19.172   4.097  0.00  0.00    +0.024 C 
ATOM     16  C   LIG    1       25.014 -20.195   4.972  0.00  0.00    +0.012 C 
ATOM     17  C   LIG    1       24.090 -20.762   5.857  0.00  0.00    +0.001 C 
ATOM     18  C   LIG    1       22.770 -20.314   5.868  0.00  0.00    +0.000 C 
ATOM     19  C   LIG    1       22.364 -19.323   4.977  0.00  0.00    +0.001 C 
ATOM     20  C   LIG    1       23.282 -18.763   4.083  0.00  0.00    +0.012 C 
ENDBRANCH  13  15
ENDBRANCH   4  13
TORSDOF 4
ENDMDL
MODEL 7
REMARK VINA RESULT:      -3.5      2.081      2.612
REMARK  Name = *****
REMARK                            x       y       z     vdW  Elec       q    Type
REMARK                         _______ _______ _______ _____ _____    ______ ____
ROOT
ATOM      1  C   LIG    1       27.023 -20.469   4.903  0.00  0.00    +0.146 C 
ATOM      2  C   LIG    1       26.377 -19.368   4.133  0.00  0.00    +0.033 C 
ATOM      3  N   LIG    1       27.063 -18.195   4.287  0.00  0.00    -0.341 NA
ATOM      4  C   LIG    1       26.429 -17.154   3.681  0.00  0.00    +0.090 C 
ATOM      5  C   LIG    1       25.395 -17.751   2.956  0.00  0.00    +0.031 C 
ATOM      6  C   LIG    1       28.273 -18.344   5.080  0.00  0.00    +0.123 C 
ATOM      7  C   LIG    1       25.360 -19.148   3.244  0.00  0.00    +0.024 C 
ATOM      8  C   LIG    1       28.443 -19.876   5.129  0.00  0.00    +0.042 C 
ENDROOT
BRANCH   1  10
ATOM      9  O   LIG    1       26.752 -21.553   7.062  0.00  0.00    -0.250 OA
ATOM     10  C   LIG    1       26.327 -20.756   6.231  0.00  0.00    +0.314 C 
BRANCH  10  11
ATOM     11  O   LIG    1       25.143 -20.129   6.414  0.00  0.00    -0.480 OA
ATOM     12  H   LIG    1       24.604 -20.518   7.129  0.00  0.00    +0.295 HD
ENDBRANCH  10  11
ENDBRANCH   1  10
BRANCH   4  13
ATOM     13  C   LIG    1       26.843 -15.761   3.771  0.00  0.00    +0.209 C 
ATOM     14  O   LIG    1       27.983 -15.436   4.097  0.00  0.00    -0.285 OA
BRANCH  13  15
ATOM     15  C   LIG    1       25.859 -14.667   3.480  0.00  0.00    +0.024 C 
ATOM     16  C   LIG    1       26.232 -13.626   2.618  0.00  0.00    +0.012 C 
ATOM     17  C   LIG    1       25.335 -12.593   2.325  0.00  0.00    +0.001 C 
ATOM     18  C   LIG    1       24.062 -12.591   2.895  0.00  0.00    +0.000 C 
ATOM     19  C   LIG    1       23.696 -13.602   3.781  0.00  0.00    +0.001 C 
ATOM     20  C   LIG    1       24.595 -14.629   4.087  0.00  0.00    +0.012 C 
ENDBRANCH  13  15
ENDBRANCH   4  13
TORSDOF 4
ENDMDL
MODEL 8
REMARK VINA RESULT:      -3.3      3.077      6.479
REMARK  Name = *****
REMARK                            x       y       z     vdW  Elec       q    Type
REMARK                         _______ _______ _______ _____ _____    ______ ____
ROOT
ATOM      1  C   LIG    1       24.598 -12.948   3.754  0.00  0.00    +0.146 C 
ATOM      2  C   LIG    1       25.704 -13.886   3.406  0.00  0.00    +0.033 C 
ATOM      3  N   LIG    1       25.314 -15.185   3.573  0.00  0.00    -0.341 NA
ATOM      4  C   LIG    1       26.341 -16.054   3.365  0.00  0.00    +0.090 C 
ATOM      5  C   LIG    1       27.372 -15.258   2.862  0.00  0.00    +0.031 C 
ATOM      6  C   LIG    1       23.916 -15.315   3.956  0.00  0.00    +0.123 C 
ATOM      7  C   LIG    1       26.972 -13.889   2.891  0.00  0.00    +0.024 C 
ATOM      8  C   LIG    1       23.371 -13.900   3.679  0.00  0.00    +0.042 C 
ENDROOT
BRANCH   1  10
ATOM      9  O   LIG    1       24.004 -11.471   5.591  0.00  0.00    -0.250 OA
ATOM     10  C   LIG    1       24.744 -12.345   5.148  0.00  0.00    +0.314 C 
BRANCH  10  11
ATOM     11  O   LIG    1       25.809 -12.777   5.861  0.00  0.00    -0.480 OA
ATOM     12  H   LIG    1       26.265 -13.539   5.455  0.00  0.00    +0.295 HD
ENDBRANCH  10  11
ENDBRANCH   1  10
BRANCH   4  13
ATOM     13  C   LIG    1       26.274 -17.491   3.587  0.00  0.00    +0.209 C 
ATOM     14  O   LIG    1       25.398 -18.192   3.084  0.00  0.00    -0.285 OA
BRANCH  13  15
ATOM     15  C   LIG    1       27.284 -18.161   4.470  0.00  0.00    +0.024 C 
ATOM     16  C   LIG    1       26.987 -19.419   5.014  0.00  0.00    +0.012 C 
ATOM     17  C   LIG    1       27.912 -20.070   5.838  0.00  0.00    +0.001 C 
ATOM     18  C   LIG    1       29.135 -19.467   6.130  0.00  0.00    +0.000 C 
ATOM     19  C   LIG    1       29.423 -18.202   5.624  0.00  0.00    +0.001 C 
ATOM     20  C   LIG    1       28.497 -17.542   4.810  0.00  0.00    +0.012 C 
ENDBRANCH  13  15
ENDBRANCH   4  13
TORSDOF 4
ENDMDL
MODEL 9
REMARK VINA RESULT:      -3.2      2.802      6.265
REMARK  Name = *****
REMARK                            x       y       z     vdW  Elec       q    Type
REMARK                         _______ _______ _______ _____ _____    ______ ____
ROOT
ATOM      1  C   LIG    1       24.070 -13.219   3.634  0.00  0.00    +0.146 C 
ATOM      2  C   LIG    1       25.370 -13.829   3.229  0.00  0.00    +0.033 C 
ATOM      3  N   LIG    1       25.484 -15.103   3.710  0.00  0.00    -0.341 NA
ATOM      4  C   LIG    1       26.707 -15.637   3.444  0.00  0.00    +0.090 C 
ATOM      5  C   LIG    1       27.312 -14.712   2.590  0.00  0.00    +0.031 C 
ATOM      6  C   LIG    1       24.291 -15.557   4.408  0.00  0.00    +0.123 C 
ATOM      7  C   LIG    1       26.470 -13.568   2.458  0.00  0.00    +0.024 C 
ATOM      8  C   LIG    1       23.253 -14.489   4.005  0.00  0.00    +0.042 C 
ENDROOT
BRANCH   1  10
ATOM      9  O   LIG    1       23.350 -11.448   5.134  0.00  0.00    -0.250 OA
ATOM     10  C   LIG    1       24.200 -12.279   4.829  0.00  0.00    +0.314 C 
BRANCH  10  11
ATOM     11  O   LIG    1       25.368 -12.356   5.506  0.00  0.00    -0.480 OA
ATOM     12  H   LIG    1       25.634 -13.270   5.719  0.00  0.00    +0.295 HD
ENDBRANCH  10  11
ENDBRANCH   1  10
BRANCH   4  13
ATOM     13  C   LIG    1       27.177 -16.926   3.932  0.00  0.00    +0.209 C 
ATOM     14  O   LIG    1       28.319 -17.089   4.357  0.00  0.00    -0.285 OA
BRANCH  13  15
ATOM     15  C   LIG    1       26.263 -18.115   3.908  0.00  0.00    +0.024 C 
ATOM     16  C   LIG    1       26.591 -19.243   4.674  0.00  0.00    +0.012 C 
ATOM     17  C   LIG    1       25.756 -20.365   4.676  0.00  0.00    +0.001 C 
ATOM     18  C   LIG    1       24.592 -20.371   3.908  0.00  0.00    +0.000 C 
ATOM     19  C   LIG    1       24.277 -19.269   3.116  0.00  0.00    +0.001 C 
ATOM     20  C   LIG    1       25.116 -18.150   3.101  0.00  0.00    +0.012 C 
ENDBRANCH  13  15
ENDBRANCH   4  13
TORSDOF 4
ENDMDL
