MODEL 1
REMARK VINA RESULT:      -5.2      0.000      0.000
REMARK  Name = *****
REMARK                            x       y       z     vdW  Elec       q    Type
REMARK                         _______ _______ _______ _____ _____    ______ ____
ROOT
ATOM      1  C   LIG    1       26.419 -17.211   3.285  0.00  0.00    +0.158 C 
ENDROOT
BRANCH   1   2
ATOM      2  C   LIG    1       26.356 -15.723   3.574  0.00  0.00    -0.011 A 
ATOM      3  C   LIG    1       27.535 -14.986   3.761  0.00  0.00    +0.051 A 
ATOM      4  C   LIG    1       27.478 -13.611   4.020  0.00  0.00    +0.121 A 
ATOM      5  C   LIG    1       26.263 -12.949   4.101  0.00  0.00    +0.090 A 
ATOM      6  C   LIG    1       25.094 -13.677   3.930  0.00  0.00    +0.121 A 
ATOM      7  C   LIG    1       25.129 -15.050   3.665  0.00  0.00    +0.051 A 
BRANCH   4   8
ATOM      8  O   LIG    1       28.659 -12.944   4.168  0.00  0.00    -0.507 OA
ATOM      9  H   LIG    1       29.213 -13.443   4.789  0.00  0.00    +0.292 HD
ENDBRANCH   4   8
BRANCH   6  10
ATOM     10  O   LIG    1       23.905 -13.012   4.022  0.00  0.00    -0.507 OA
ATOM     11  H   LIG    1       23.361 -13.437   4.702  0.00  0.00    +0.292 HD
ENDBRANCH   6  10
ENDBRANCH   1   2
BRANCH   1  12
ATOM     12  O   LIG    1       27.473 -17.783   4.060  0.00  0.00    -0.386 OA
ATOM     13  H   LIG    1       27.713 -18.603   3.584  0.00  0.00    +0.210 HD
ENDBRANCH   1  12
BRANCH   1  14
ATOM     14  C   LIG    1       25.092 -17.963   3.596  0.00  0.00    +0.117 C 
BRANCH  14  15
ATOM     15  N   LIG    1       25.312 -19.429   3.573  0.00  0.00    -0.308 NA
ATOM     16  H   LIG    1       25.210 -19.754   2.608  0.00  0.00    +0.122 HD
BRANCH  15  18
ATOM     17  C   LIG    1       23.043 -19.549   4.641  0.00  0.00    +0.027 C 
ATOM     18  C   LIG    1       24.407 -20.229   4.433  0.00  0.00    +0.011 C 
ATOM     19  C   LIG    1       24.166 -21.569   3.704  0.00  0.00    +0.027 C 
ATOM     20  C   LIG    1       25.053 -20.543   5.793  0.00  0.00    +0.027 C 
ENDBRANCH  15  18
ENDBRANCH  14  15
ENDBRANCH   1  14
TORSDOF 7
ENDMDL
MODEL 2
REMARK VINA RESULT:      -4.8      2.707      6.623
REMARK  Name = *****
REMARK                            x       y       z     vdW  Elec       q    Type
REMARK                         _______ _______ _______ _____ _____    ______ ____
ROOT
ATOM      1  C   LIG    1       25.572 -18.696   3.528  0.00  0.00    +0.158 C 
ENDROOT
BRANCH   1   2
ATOM      2  C   LIG    1       25.669 -19.630   4.720  0.00  0.00    -0.011 A 
ATOM      3  C   LIG    1       24.510 -20.181   5.286  0.00  0.00    +0.051 A 
ATOM      4  C   LIG    1       24.599 -21.048   6.382  0.00  0.00    +0.121 A 
ATOM      5  C   LIG    1       25.828 -21.379   6.932  0.00  0.00    +0.090 A 
ATOM      6  C   LIG    1       26.975 -20.825   6.384  0.00  0.00    +0.121 A 
ATOM      7  C   LIG    1       26.909 -19.962   5.287  0.00  0.00    +0.051 A 
BRANCH   4   8
ATOM      8  O   LIG    1       23.439 -21.571   6.873  0.00  0.00    -0.507 OA
ATOM      9  H   LIG    1       23.568 -22.524   7.002  0.00  0.00    +0.292 HD
ENDBRANCH   4   8
BRANCH   6  10
ATOM     10  O   LIG    1       28.177 -21.155   6.943  0.00  0.00    -0.507 OA
ATOM     11  H   LIG    1       28.279 -22.119   6.920  0.00  0.00    +0.292 HD
ENDBRANCH   6  10
ENDBRANCH   1   2
BRANCH   1  12
ATOM     12  O   LIG    1       24.209 -18.300   3.367  0.00  0.00    -0.386 OA
ATOM     13  H   LIG    1       24.257 -17.409   2.967  0.00  0.00    +0.210 HD
ENDBRANCH   1  12
BRANCH   1  14
ATOM     14  C   LIG    1       26.461 -17.425   3.658  0.00  0.00    +0.117 C 
BRANCH  14  15
ATOM     15  N   LIG    1       25.820 -16.275   2.975  0.00  0.00    -0.308 NA
ATOM     16  H   LIG    1       26.052 -16.322   1.980  0.00  0.00    +0.122 HD
BRANCH  15  18
ATOM     17  C   LIG    1       27.553 -14.943   4.211  0.00  0.00    +0.027 C 
ATOM     18  C   LIG    1       26.198 -14.934   3.481  0.00  0.00    +0.011 C 
ATOM     19  C   LIG    1       26.327 -14.012   2.249  0.00  0.00    +0.027 C 
ATOM     20  C   LIG    1       25.111 -14.348   4.396  0.00  0.00    +0.027 C 
ENDBRANCH  15  18
ENDBRANCH  14  15
ENDBRANCH   1  14
TORSDOF 7
ENDMDL
MODEL 3
REMARK VINA RESULT:      -4.7      2.844      6.256
REMARK  Name = *****
REMARK                            x       y       z     vdW  Elec       q    Type
REMARK                         _______ _______ _______ _____ _____    ______ ____
ROOT
ATOM      1  C   LIG    1       25.982 -18.422   3.312  0.00  0.00    +0.158 C 
ENDROOT
BRANCH   1   2
ATOM      2  C   LIG    1       25.297 -19.394   4.255  0.00  0.00    -0.011 A 
ATOM      3  C   LIG    1       26.035 -20.070   5.237  0.00  0.00    +0.051 A 
ATOM      4  C   LIG    1       25.403 -20.962   6.111  0.00  0.00    +0.121 A 
ATOM      5  C   LIG    1       24.039 -21.198   6.028  0.00  0.00    +0.090 A 
ATOM      6  C   LIG    1       23.307 -20.541   5.049  0.00  0.00    +0.121 A 
ATOM      7  C   LIG    1       23.919 -19.643   4.169  0.00  0.00    +0.051 A 
BRANCH   4   8
ATOM      8  O   LIG    1       26.170 -21.571   7.061  0.00  0.00    -0.507 OA
ATOM      9  H   LIG    1       26.685 -22.272   6.630  0.00  0.00    +0.292 HD
ENDBRANCH   4   8
BRANCH   6  10
ATOM     10  O   LIG    1       21.967 -20.791   4.975  0.00  0.00    -0.507 OA
ATOM     11  H   LIG    1       21.490 -19.948   5.000  0.00  0.00    +0.292 HD
ENDBRANCH   6  10
ENDBRANCH   1   2
BRANCH   1  12
ATOM     12  O   LIG    1       25.930 -18.956   1.988  0.00  0.00    -0.386 OA
ATOM     13  H   LIG    1       26.739 -19.499   1.909  0.00  0.00    +0.210 HD
ENDBRANCH   1  12
BRANCH   1  14
ATOM     14  C   LIG    1       25.349 -17.000   3.314  0.00  0.00    +0.117 C 
BRANCH  14  15
ATOM     15  N   LIG    1       26.409 -15.964   3.312  0.00  0.00    -0.308 NA
ATOM     16  H   LIG    1       27.095 -16.204   4.031  0.00  0.00    +0.122 HD
BRANCH  15  18
ATOM     17  C   LIG    1       24.501 -14.514   4.064  0.00  0.00    +0.027 C 
ATOM     18  C   LIG    1       25.950 -14.574   3.550  0.00  0.00    +0.011 C 
ATOM     19  C   LIG    1       26.868 -13.981   4.642  0.00  0.00    +0.027 C 
ATOM     20  C   LIG    1       26.098 -13.707   2.289  0.00  0.00    +0.027 C 
ENDBRANCH  15  18
ENDBRANCH  14  15
ENDBRANCH   1  14
TORSDOF 7
ENDMDL
MODEL 4
REMARK VINA RESULT:      -4.7      2.703      6.170
REMARK  Name = *****
REMARK                            x       y       z     vdW  Elec       q    Type
REMARK                         _______ _______ _______ _____ _____    ______ ____
ROOT
ATOM      1  C   LIG    1       25.579 -18.643   3.444  0.00  0.00    +0.158 C 
ENDROOT
BRANCH   1   2
ATOM      2  C   LIG    1       25.784 -19.521   4.664  0.00  0.00    -0.011 A 
ATOM      3  C   LIG    1       27.070 -19.727   5.182  0.00  0.00    +0.051 A 
ATOM      4  C   LIG    1       27.259 -20.532   6.312  0.00  0.00    +0.121 A 
ATOM      5  C   LIG    1       26.186 -21.144   6.940  0.00  0.00    +0.090 A 
ATOM      6  C   LIG    1       24.913 -20.954   6.422  0.00  0.00    +0.121 A 
ATOM      7  C   LIG    1       24.702 -20.150   5.298  0.00  0.00    +0.051 A 
BRANCH   4   8
ATOM      8  O   LIG    1       28.532 -20.675   6.784  0.00  0.00    -0.507 OA
ATOM      9  H   LIG    1       28.509 -21.292   7.532  0.00  0.00    +0.292 HD
ENDBRANCH   4   8
BRANCH   6  10
ATOM     10  O   LIG    1       23.867 -21.571   7.048  0.00  0.00    -0.507 OA
ATOM     11  H   LIG    1       23.366 -20.908   7.547  0.00  0.00    +0.292 HD
ENDBRANCH   6  10
ENDBRANCH   1   2
BRANCH   1  12
ATOM     12  O   LIG    1       24.210 -18.239   3.396  0.00  0.00    -0.386 OA
ATOM     13  H   LIG    1       24.003 -18.180   2.442  0.00  0.00    +0.210 HD
ENDBRANCH   1  12
BRANCH   1  14
ATOM     14  C   LIG    1       26.485 -17.377   3.428  0.00  0.00    +0.117 C 
BRANCH  14  15
ATOM     15  N   LIG    1       25.710 -16.193   2.985  0.00  0.00    -0.308 NA
ATOM     16  H   LIG    1       25.675 -16.196   1.963  0.00  0.00    +0.122 HD
BRANCH  15  18
ATOM     17  C   LIG    1       26.346 -13.870   2.276  0.00  0.00    +0.027 C 
ATOM     18  C   LIG    1       26.230 -14.880   3.432  0.00  0.00    +0.011 C 
ATOM     19  C   LIG    1       25.217 -14.320   4.454  0.00  0.00    +0.027 C 
ATOM     20  C   LIG    1       27.586 -15.022   4.144  0.00  0.00    +0.027 C 
ENDBRANCH  15  18
ENDBRANCH  14  15
ENDBRANCH   1  14
TORSDOF 7
ENDMDL
MODEL 5
REMARK VINA RESULT:      -4.5      2.978      6.876
REMARK  Name = *****
REMARK                            x       y       z     vdW  Elec       q    Type
REMARK                         _______ _______ _______ _____ _____    ______ ____
ROOT
ATOM      1  C   LIG    1       22.822 -16.774   4.139  0.00  0.00    +0.158 C 
ENDROOT
BRANCH   1   2
ATOM      2  C   LIG    1       23.250 -18.226   4.248  0.00  0.00    -0.011 A 
ATOM      3  C   LIG    1       22.329 -19.211   4.632  0.00  0.00    +0.051 A 
ATOM      4  C   LIG    1       22.721 -20.551   4.727  0.00  0.00    +0.121 A 
ATOM      5  C   LIG    1       24.023 -20.936   4.447  0.00  0.00    +0.090 A 
ATOM      6  C   LIG    1       24.941 -19.963   4.080  0.00  0.00    +0.121 A 
ATOM      7  C   LIG    1       24.569 -18.619   3.975  0.00  0.00    +0.051 A 
BRANCH   4   8
ATOM      8  O   LIG    1       21.773 -21.467   5.082  0.00  0.00    -0.507 OA
ATOM      9  H   LIG    1       21.883 -21.666   6.025  0.00  0.00    +0.292 HD
ENDBRANCH   4   8
BRANCH   6  10
ATOM     10  O   LIG    1       26.222 -20.356   3.816  0.00  0.00    -0.507 OA
ATOM     11  H   LIG    1       26.573 -19.816   3.092  0.00  0.00    +0.292 HD
ENDBRANCH   6  10
ENDBRANCH   1   2
BRANCH   1  12
ATOM     12  O   LIG    1       21.964 -16.467   5.238  0.00  0.00    -0.386 OA
ATOM     13  H   LIG    1       22.564 -16.394   6.007  0.00  0.00    +0.210 HD
ENDBRANCH   1  12
BRANCH   1  14
ATOM     14  C   LIG    1       24.013 -15.773   4.125  0.00  0.00    +0.117 C 
BRANCH  14  15
ATOM     15  N   LIG    1       23.514 -14.380   4.033  0.00  0.00    -0.308 NA
ATOM     16  H   LIG    1       22.881 -14.317   3.232  0.00  0.00    +0.122 HD
BRANCH  15  18
ATOM     17  C   LIG    1       24.881 -13.029   2.416  0.00  0.00    +0.027 C 
ATOM     18  C   LIG    1       24.554 -13.333   3.888  0.00  0.00    +0.011 C 
ATOM     19  C   LIG    1       23.984 -12.046   4.525  0.00  0.00    +0.027 C 
ATOM     20  C   LIG    1       25.838 -13.704   4.647  0.00  0.00    +0.027 C 
ENDBRANCH  15  18
ENDBRANCH  14  15
ENDBRANCH   1  14
TORSDOF 7
ENDMDL
MODEL 6
REMARK VINA RESULT:      -4.5      2.920      6.570
REMARK  Name = *****
REMARK                            x       y       z     vdW  Elec       q    Type
REMARK                         _______ _______ _______ _____ _____    ______ ____
ROOT
ATOM      1  C   LIG    1       22.860 -16.841   4.072  0.00  0.00    +0.158 C 
ENDROOT
BRANCH   1   2
ATOM      2  C   LIG    1       23.272 -18.293   4.229  0.00  0.00    -0.011 A 
ATOM      3  C   LIG    1       24.596 -18.686   3.988  0.00  0.00    +0.051 A 
ATOM      4  C   LIG    1       24.978 -20.024   4.139  0.00  0.00    +0.121 A 
ATOM      5  C   LIG    1       24.062 -20.989   4.527  0.00  0.00    +0.090 A 
ATOM      6  C   LIG    1       22.747 -20.607   4.754  0.00  0.00    +0.121 A 
ATOM      7  C   LIG    1       22.346 -19.275   4.613  0.00  0.00    +0.051 A 
BRANCH   4   8
ATOM      8  O   LIG    1       26.287 -20.340   3.914  0.00  0.00    -0.507 OA
ATOM      9  H   LIG    1       26.839 -19.672   4.348  0.00  0.00    +0.292 HD
ENDBRANCH   4   8
BRANCH   6  10
ATOM     10  O   LIG    1       21.855 -21.571   5.127  0.00  0.00    -0.507 OA
ATOM     11  H   LIG    1       21.784 -22.224   4.414  0.00  0.00    +0.292 HD
ENDBRANCH   6  10
ENDBRANCH   1   2
BRANCH   1  12
ATOM     12  O   LIG    1       21.983 -16.496   5.145  0.00  0.00    -0.386 OA
ATOM     13  H   LIG    1       21.223 -17.103   5.047  0.00  0.00    +0.210 HD
ENDBRANCH   1  12
BRANCH   1  14
ATOM     14  C   LIG    1       24.061 -15.851   4.056  0.00  0.00    +0.117 C 
BRANCH  14  15
ATOM     15  N   LIG    1       23.575 -14.451   4.106  0.00  0.00    -0.308 NA
ATOM     16  H   LIG    1       22.827 -14.345   3.417  0.00  0.00    +0.122 HD
BRANCH  15  18
ATOM     17  C   LIG    1       24.607 -12.942   2.384  0.00  0.00    +0.027 C 
ATOM     18  C   LIG    1       24.596 -13.407   3.851  0.00  0.00    +0.011 C 
ATOM     19  C   LIG    1       24.227 -12.194   4.733  0.00  0.00    +0.027 C 
ATOM     20  C   LIG    1       26.001 -13.878   4.264  0.00  0.00    +0.027 C 
ENDBRANCH  15  18
ENDBRANCH  14  15
ENDBRANCH   1  14
TORSDOF 7
ENDMDL
MODEL 7
REMARK VINA RESULT:      -4.4      2.754      6.383
REMARK  Name = *****
REMARK                            x       y       z     vdW  Elec       q    Type
REMARK                         _______ _______ _______ _____ _____    ______ ____
ROOT
ATOM      1  C   LIG    1       25.808 -18.038   3.468  0.00  0.00    +0.158 C 
ENDROOT
BRANCH   1   2
ATOM      2  C   LIG    1       24.613 -18.761   4.062  0.00  0.00    -0.011 A 
ATOM      3  C   LIG    1       23.309 -18.344   3.761  0.00  0.00    +0.051 A 
ATOM      4  C   LIG    1       22.206 -19.015   4.303  0.00  0.00    +0.121 A 
ATOM      5  C   LIG    1       22.376 -20.100   5.149  0.00  0.00    +0.090 A 
ATOM      6  C   LIG    1       23.665 -20.507   5.461  0.00  0.00    +0.121 A 
ATOM      7  C   LIG    1       24.780 -19.854   4.926  0.00  0.00    +0.051 A 
BRANCH   4   8
ATOM      8  O   LIG    1       20.962 -18.578   3.953  0.00  0.00    -0.507 OA
ATOM      9  H   LIG    1       20.323 -19.274   4.177  0.00  0.00    +0.292 HD
ENDBRANCH   4   8
BRANCH   6  10
ATOM     10  O   LIG    1       23.816 -21.572   6.303  0.00  0.00    -0.507 OA
ATOM     11  H   LIG    1       23.808 -21.251   7.218  0.00  0.00    +0.292 HD
ENDBRANCH   6  10
ENDBRANCH   1   2
BRANCH   1  12
ATOM     12  O   LIG    1       26.088 -18.598   2.184  0.00  0.00    -0.386 OA
ATOM     13  H   LIG    1       25.711 -17.958   1.548  0.00  0.00    +0.210 HD
ENDBRANCH   1  12
BRANCH   1  14
ATOM     14  C   LIG    1       25.597 -16.503   3.320  0.00  0.00    +0.117 C 
BRANCH  14  15
ATOM     15  N   LIG    1       26.891 -15.791   3.446  0.00  0.00    -0.308 NA
ATOM     16  H   LIG    1       27.350 -16.107   4.303  0.00  0.00    +0.122 HD
BRANCH  15  18
ATOM     17  C   LIG    1       26.016 -13.740   2.291  0.00  0.00    +0.027 C 
ATOM     18  C   LIG    1       26.809 -14.311   3.479  0.00  0.00    +0.011 C 
ATOM     19  C   LIG    1       26.062 -13.932   4.776  0.00  0.00    +0.027 C 
ATOM     20  C   LIG    1       28.206 -13.670   3.536  0.00  0.00    +0.027 C 
ENDBRANCH  15  18
ENDBRANCH  14  15
ENDBRANCH   1  14
TORSDOF 7
ENDMDL
MODEL 8
REMARK VINA RESULT:      -4.0      1.662      2.734
REMARK  Name = *****
REMARK                            x       y       z     vdW  Elec       q    Type
REMARK                         _______ _______ _______ _____ _____    ______ ____
ROOT
ATOM      1  C   LIG    1       24.177 -16.432   4.281  0.00  0.00    +0.158 C 
ENDROOT
BRANCH   1   2
ATOM      2  C   LIG    1       24.749 -15.140   3.728  0.00  0.00    -0.011 A 
ATOM      3  C   LIG    1       23.919 -14.031   3.512  0.00  0.00    +0.051 A 
ATOM      4  C   LIG    1       24.448 -12.837   3.008  0.00  0.00    +0.121 A 
ATOM      5  C   LIG    1       25.797 -12.723   2.710  0.00  0.00    +0.090 A 
ATOM      6  C   LIG    1       26.619 -13.822   2.909  0.00  0.00    +0.121 A 
ATOM      7  C   LIG    1       26.112 -15.022   3.416  0.00  0.00    +0.051 A 
BRANCH   4   8
ATOM      8  O   LIG    1       23.595 -11.785   2.842  0.00  0.00    -0.507 OA
ATOM      9  H   LIG    1       22.701 -12.080   3.077  0.00  0.00    +0.292 HD
ENDBRANCH   4   8
BRANCH   6  10
ATOM     10  O   LIG    1       27.944 -13.696   2.602  0.00  0.00    -0.507 OA
ATOM     11  H   LIG    1       28.454 -13.669   3.426  0.00  0.00    +0.292 HD
ENDBRANCH   6  10
ENDBRANCH   1   2
BRANCH   1  12
ATOM     12  O   LIG    1       22.756 -16.398   4.143  0.00  0.00    -0.386 OA
ATOM     13  H   LIG    1       22.453 -17.261   4.491  0.00  0.00    +0.210 HD
ENDBRANCH   1  12
BRANCH   1  14
ATOM     14  C   LIG    1       24.728 -17.708   3.581  0.00  0.00    +0.117 C 
BRANCH  14  15
ATOM     15  N   LIG    1       23.739 -18.810   3.665  0.00  0.00    -0.308 NA
ATOM     16  H   LIG    1       22.885 -18.444   4.094  0.00  0.00    +0.122 HD
BRANCH  15  18
ATOM     17  C   LIG    1       23.340 -20.215   5.708  0.00  0.00    +0.027 C 
ATOM     18  C   LIG    1       24.170 -20.005   4.429  0.00  0.00    +0.011 C 
ATOM     19  C   LIG    1       23.949 -21.227   3.511  0.00  0.00    +0.027 C 
ATOM     20  C   LIG    1       25.667 -19.942   4.777  0.00  0.00    +0.027 C 
ENDBRANCH  15  18
ENDBRANCH  14  15
ENDBRANCH   1  14
TORSDOF 7
ENDMDL
MODEL 9
REMARK VINA RESULT:      -3.9      1.785      2.089
REMARK  Name = *****
REMARK                            x       y       z     vdW  Elec       q    Type
REMARK                         _______ _______ _______ _____ _____    ______ ____
ROOT
ATOM      1  C   LIG    1       23.969 -16.468   4.370  0.00  0.00    +0.158 C 
ENDROOT
BRANCH   1   2
ATOM      2  C   LIG    1       24.530 -15.201   3.753  0.00  0.00    -0.011 A 
ATOM      3  C   LIG    1       25.837 -15.177   3.244  0.00  0.00    +0.051 A 
ATOM      4  C   LIG    1       26.353 -14.010   2.669  0.00  0.00    +0.121 A 
ATOM      5  C   LIG    1       25.591 -12.855   2.590  0.00  0.00    +0.090 A 
ATOM      6  C   LIG    1       24.302 -12.870   3.104  0.00  0.00    +0.121 A 
ATOM      7  C   LIG    1       23.766 -14.027   3.678  0.00  0.00    +0.051 A 
BRANCH   4   8
ATOM      8  O   LIG    1       27.622 -14.057   2.169  0.00  0.00    -0.507 OA
ATOM      9  H   LIG    1       28.114 -13.299   2.524  0.00  0.00    +0.292 HD
ENDBRANCH   4   8
BRANCH   6  10
ATOM     10  O   LIG    1       23.568 -11.722   3.027  0.00  0.00    -0.507 OA
ATOM     11  H   LIG    1       23.702 -11.323   2.154  0.00  0.00    +0.292 HD
ENDBRANCH   6  10
ENDBRANCH   1   2
BRANCH   1  12
ATOM     12  O   LIG    1       22.543 -16.386   4.366  0.00  0.00    -0.386 OA
ATOM     13  H   LIG    1       22.267 -16.839   5.188  0.00  0.00    +0.210 HD
ENDBRANCH   1  12
BRANCH   1  14
ATOM     14  C   LIG    1       24.406 -17.767   3.633  0.00  0.00    +0.117 C 
BRANCH  14  15
ATOM     15  N   LIG    1       23.468 -18.874   3.938  0.00  0.00    -0.308 NA
ATOM     16  H   LIG    1       22.734 -18.514   4.552  0.00  0.00    +0.122 HD
BRANCH  15  18
ATOM     17  C   LIG    1       23.395 -20.418   5.917  0.00  0.00    +0.027 C 
ATOM     18  C   LIG    1       24.069 -20.068   4.579  0.00  0.00    +0.011 C 
ATOM     19  C   LIG    1       23.850 -21.253   3.612  0.00  0.00    +0.027 C 
ATOM     20  C   LIG    1       25.584 -19.899   4.780  0.00  0.00    +0.027 C 
ENDBRANCH  15  18
ENDBRANCH  14  15
ENDBRANCH   1  14
TORSDOF 7
ENDMDL
