MODEL 1
REMARK VINA RESULT:      -6.4      0.000      0.000
REMARK  Name = *****
REMARK                            x       y       z     vdW  Elec       q    Type
REMARK                         _______ _______ _______ _____ _____    ______ ____
ROOT
ATOM      1  C   LIG    1       22.046 -18.632   4.428  0.00  0.00    +0.027 C 
ENDROOT
BRANCH   1   3
ATOM      2  C   LIG    1       22.716 -15.839   4.759  0.00  0.00    -0.031 C 
ATOM      3  C   LIG    1       22.445 -17.151   4.559  0.00  0.00    -0.031 C 
BRANCH   2   4
ATOM      4  C   LIG    1       23.707 -14.880   4.078  0.00  0.00    +0.027 C 
BRANCH   4   5
ATOM      5  C   LIG    1       23.884 -13.441   4.636  0.00  0.00    +0.004 C 
BRANCH   5   6
ATOM      6  C   LIG    1       24.012 -12.301   3.573  0.00  0.00    +0.000 C 
BRANCH   6   7
ATOM      7  C   LIG    1       24.689 -12.691   2.248  0.00  0.00    +0.000 C 
BRANCH   7   8
ATOM      8  C   LIG    1       26.219 -12.909   2.317  0.00  0.00    -0.000 C 
BRANCH   8   9
ATOM      9  C   LIG    1       26.690 -14.363   2.461  0.00  0.00    -0.000 C 
BRANCH   9  11
ATOM     10  C   LIG    1       28.134 -13.285   4.235  0.00  0.00    +0.004 C 
ATOM     11  C   LIG    1       27.545 -14.583   3.710  0.00  0.00    -0.003 C 
ENDBRANCH   9  11
ENDBRANCH   8   9
ENDBRANCH   7   8
ENDBRANCH   6   7
ENDBRANCH   5   6
ENDBRANCH   4   5
ENDBRANCH   2   4
ENDBRANCH   1   3
BRANCH   1  12
ATOM     12  C   LIG    1       23.073 -19.779   4.664  0.00  0.00    +0.004 C 
BRANCH  12  13
ATOM     13  C   LIG    1       22.677 -20.797   5.797  0.00  0.00    +0.000 C 
BRANCH  13  14
ATOM     14  C   LIG    1       23.599 -20.761   7.062  0.00  0.00    +0.000 C 
BRANCH  14  15
ATOM     15  C   LIG    1       24.992 -21.322   6.743  0.00  0.00    +0.000 C 
BRANCH  15  16
ATOM     16  C   LIG    1       26.227 -20.429   6.917  0.00  0.00    +0.011 C 
BRANCH  16  17
ATOM     17  C   LIG    1       27.063 -20.232   5.664  0.00  0.00    +0.120 C 
BRANCH  17  18
ATOM     18  C   LIG    1       28.468 -19.747   5.867  0.00  0.00    +0.305 C 
ATOM     19  O   LIG    1       29.350 -20.220   6.563  0.00  0.00    -0.251 OA
BRANCH  18  20
ATOM     20  O   LIG    1       28.682 -18.656   5.102  0.00  0.00    -0.481 OA
ATOM     21  H   LIG    1       28.557 -17.896   5.703  0.00  0.00    +0.295 HD
ENDBRANCH  18  20
ENDBRANCH  17  18
ENDBRANCH  16  17
ENDBRANCH  15  16
ENDBRANCH  14  15
ENDBRANCH  13  14
ENDBRANCH  12  13
ENDBRANCH   1  12
TORSDOF 16
ENDMDL
MODEL 2
REMARK VINA RESULT:      -6.1      1.962      6.786
REMARK  Name = *****
REMARK                            x       y       z     vdW  Elec       q    Type
REMARK                         _______ _______ _______ _____ _____    ______ ____
ROOT
ATOM      1  C   LIG    1       22.354 -16.295   4.841  0.00  0.00    +0.027 C 
ENDROOT
BRANCH   1   3
ATOM      2  C   LIG    1       22.175 -19.088   4.117  0.00  0.00    -0.031 C 
ATOM      3  C   LIG    1       22.236 -17.794   4.511  0.00  0.00    -0.031 C 
BRANCH   2   4
ATOM      4  C   LIG    1       21.685 -20.358   4.832  0.00  0.00    +0.027 C 
BRANCH   4   5
ATOM      5  C   LIG    1       22.687 -21.202   5.667  0.00  0.00    +0.004 C 
BRANCH   5   6
ATOM      6  C   LIG    1       23.405 -20.456   6.839  0.00  0.00    +0.000 C 
BRANCH   6   7
ATOM      7  C   LIG    1       24.883 -20.818   7.061  0.00  0.00    +0.000 C 
BRANCH   7   8
ATOM      8  C   LIG    1       25.696 -21.127   5.781  0.00  0.00    -0.000 C 
BRANCH   8   9
ATOM      9  C   LIG    1       26.281 -19.916   5.042  0.00  0.00    -0.000 C 
BRANCH   9  11
ATOM     10  C   LIG    1       25.680 -18.154   3.330  0.00  0.00    +0.004 C 
ATOM     11  C   LIG    1       25.542 -19.611   3.738  0.00  0.00    -0.003 C 
ENDBRANCH   9  11
ENDBRANCH   8   9
ENDBRANCH   7   8
ENDBRANCH   6   7
ENDBRANCH   5   6
ENDBRANCH   4   5
ENDBRANCH   2   4
ENDBRANCH   1   3
BRANCH   1  12
ATOM     12  C   LIG    1       23.249 -15.340   3.997  0.00  0.00    +0.004 C 
BRANCH  12  13
ATOM     13  C   LIG    1       23.965 -14.206   4.819  0.00  0.00    +0.000 C 
BRANCH  13  14
ATOM     14  C   LIG    1       23.913 -12.787   4.161  0.00  0.00    +0.000 C 
BRANCH  14  15
ATOM     15  C   LIG    1       24.257 -12.860   2.666  0.00  0.00    +0.000 C 
BRANCH  15  16
ATOM     16  C   LIG    1       25.726 -12.874   2.225  0.00  0.00    +0.011 C 
BRANCH  16  17
ATOM     17  C   LIG    1       26.458 -14.184   2.459  0.00  0.00    +0.120 C 
BRANCH  17  18
ATOM     18  C   LIG    1       27.602 -14.147   3.428  0.00  0.00    +0.305 C 
ATOM     19  O   LIG    1       27.902 -14.951   4.292  0.00  0.00    -0.251 OA
BRANCH  18  20
ATOM     20  O   LIG    1       28.352 -13.048   3.196  0.00  0.00    -0.481 OA
ATOM     21  H   LIG    1       29.262 -13.304   3.443  0.00  0.00    +0.295 HD
ENDBRANCH  18  20
ENDBRANCH  17  18
ENDBRANCH  16  17
ENDBRANCH  15  16
ENDBRANCH  14  15
ENDBRANCH  13  14
ENDBRANCH  12  13
ENDBRANCH   1  12
TORSDOF 16
ENDMDL
MODEL 3
REMARK VINA RESULT:      -6.1      1.542      7.034
REMARK  Name = *****
REMARK                            x       y       z     vdW  Elec       q    Type
REMARK                         _______ _______ _______ _____ _____    ______ ____
ROOT
ATOM      1  C   LIG    1       22.642 -15.870   4.869  0.00  0.00    +0.027 C 
ENDROOT
BRANCH   1   3
ATOM      2  C   LIG    1       22.069 -18.600   4.110  0.00  0.00    -0.031 C 
ATOM      3  C   LIG    1       22.389 -17.342   4.494  0.00  0.00    -0.031 C 
BRANCH   2   4
ATOM      4  C   LIG    1       22.762 -19.953   4.345  0.00  0.00    +0.027 C 
BRANCH   4   5
ATOM      5  C   LIG    1       22.490 -20.733   5.662  0.00  0.00    +0.004 C 
BRANCH   5   6
ATOM      6  C   LIG    1       23.495 -20.477   6.832  0.00  0.00    +0.000 C 
BRANCH   6   7
ATOM      7  C   LIG    1       24.552 -21.571   7.062  0.00  0.00    +0.000 C 
BRANCH   7   8
ATOM      8  C   LIG    1       25.756 -21.552   6.090  0.00  0.00    -0.000 C 
BRANCH   8   9
ATOM      9  C   LIG    1       26.296 -20.167   5.708  0.00  0.00    -0.000 C 
BRANCH   9  11
ATOM     10  C   LIG    1       28.293 -20.984   7.026  0.00  0.00    +0.004 C 
ATOM     11  C   LIG    1       27.800 -20.035   5.947  0.00  0.00    -0.003 C 
ENDBRANCH   9  11
ENDBRANCH   8   9
ENDBRANCH   7   8
ENDBRANCH   6   7
ENDBRANCH   5   6
ENDBRANCH   4   5
ENDBRANCH   2   4
ENDBRANCH   1   3
BRANCH   1  12
ATOM     12  C   LIG    1       23.806 -15.053   4.234  0.00  0.00    +0.004 C 
BRANCH  12  13
ATOM     13  C   LIG    1       23.925 -13.568   4.740  0.00  0.00    +0.000 C 
BRANCH  13  14
ATOM     14  C   LIG    1       23.857 -12.484   3.614  0.00  0.00    +0.000 C 
BRANCH  14  15
ATOM     15  C   LIG    1       24.604 -12.950   2.356  0.00  0.00    +0.000 C 
BRANCH  15  16
ATOM     16  C   LIG    1       26.128 -12.795   2.278  0.00  0.00    +0.011 C 
BRANCH  16  17
ATOM     17  C   LIG    1       26.920 -14.069   2.518  0.00  0.00    +0.120 C 
BRANCH  17  18
ATOM     18  C   LIG    1       27.523 -14.235   3.882  0.00  0.00    +0.305 C 
ATOM     19  O   LIG    1       27.668 -13.405   4.762  0.00  0.00    -0.251 OA
BRANCH  18  20
ATOM     20  O   LIG    1       27.886 -15.523   4.059  0.00  0.00    -0.481 OA
ATOM     21  H   LIG    1       27.213 -16.045   3.579  0.00  0.00    +0.295 HD
ENDBRANCH  18  20
ENDBRANCH  17  18
ENDBRANCH  16  17
ENDBRANCH  15  16
ENDBRANCH  14  15
ENDBRANCH  13  14
ENDBRANCH  12  13
ENDBRANCH   1  12
TORSDOF 16
ENDMDL
MODEL 4
REMARK VINA RESULT:      -5.7      1.220      1.943
REMARK  Name = *****
REMARK                            x       y       z     vdW  Elec       q    Type
REMARK                         _______ _______ _______ _____ _____    ______ ____
ROOT
ATOM      1  C   LIG    1       22.216 -17.505   4.711  0.00  0.00    +0.027 C 
ENDROOT
BRANCH   1   3
ATOM      2  C   LIG    1       23.476 -14.911   4.508  0.00  0.00    -0.031 C 
ATOM      3  C   LIG    1       22.863 -16.117   4.547  0.00  0.00    -0.031 C 
BRANCH   2   4
ATOM      4  C   LIG    1       23.512 -13.810   3.435  0.00  0.00    +0.027 C 
BRANCH   4   5
ATOM      5  C   LIG    1       24.647 -12.749   3.464  0.00  0.00    +0.004 C 
BRANCH   5   6
ATOM      6  C   LIG    1       25.759 -12.900   2.376  0.00  0.00    +0.000 C 
BRANCH   6   7
ATOM      7  C   LIG    1       27.191 -13.100   2.900  0.00  0.00    +0.000 C 
BRANCH   7   8
ATOM      8  C   LIG    1       27.309 -13.822   4.264  0.00  0.00    -0.000 C 
BRANCH   8   9
ATOM      9  C   LIG    1       27.342 -15.355   4.218  0.00  0.00    -0.000 C 
BRANCH   9  11
ATOM     10  C   LIG    1       26.205 -17.429   3.322  0.00  0.00    +0.004 C 
ATOM     11  C   LIG    1       26.400 -15.931   3.159  0.00  0.00    -0.003 C 
ENDBRANCH   9  11
ENDBRANCH   8   9
ENDBRANCH   7   8
ENDBRANCH   6   7
ENDBRANCH   5   6
ENDBRANCH   4   5
ENDBRANCH   2   4
ENDBRANCH   1   3
BRANCH   1  12
ATOM     12  C   LIG    1       22.824 -18.774   4.045  0.00  0.00    +0.004 C 
BRANCH  12  13
ATOM     13  C   LIG    1       22.336 -20.139   4.656  0.00  0.00    +0.000 C 
BRANCH  13  14
ATOM     14  C   LIG    1       23.481 -21.148   5.006  0.00  0.00    +0.000 C 
BRANCH  14  15
ATOM     15  C   LIG    1       23.762 -21.159   6.516  0.00  0.00    +0.000 C 
BRANCH  15  16
ATOM     16  C   LIG    1       25.056 -20.532   7.051  0.00  0.00    +0.011 C 
BRANCH  16  17
ATOM     17  C   LIG    1       26.329 -21.287   6.709  0.00  0.00    +0.120 C 
BRANCH  17  18
ATOM     18  C   LIG    1       27.485 -20.464   6.224  0.00  0.00    +0.305 C 
ATOM     19  O   LIG    1       28.466 -20.082   6.837  0.00  0.00    -0.251 OA
BRANCH  18  20
ATOM     20  O   LIG    1       27.325 -20.197   4.910  0.00  0.00    -0.481 OA
ATOM     21  H   LIG    1       26.763 -19.399   4.880  0.00  0.00    +0.295 HD
ENDBRANCH  18  20
ENDBRANCH  17  18
ENDBRANCH  16  17
ENDBRANCH  15  16
ENDBRANCH  14  15
ENDBRANCH  13  14
ENDBRANCH  12  13
ENDBRANCH   1  12
TORSDOF 16
ENDMDL
MODEL 5
REMARK VINA RESULT:      -5.7      1.379      2.896
REMARK  Name = *****
REMARK                            x       y       z     vdW  Elec       q    Type
REMARK                         _______ _______ _______ _____ _____    ______ ____
ROOT
ATOM      1  C   LIG    1       24.705 -18.985   3.416  0.00  0.00    +0.027 C 
ENDROOT
BRANCH   1   3
ATOM      2  C   LIG    1       26.711 -16.904   3.366  0.00  0.00    -0.031 C 
ATOM      3  C   LIG    1       25.734 -17.840   3.418  0.00  0.00    -0.031 C 
BRANCH   2   4
ATOM      4  C   LIG    1       26.775 -15.455   3.876  0.00  0.00    +0.027 C 
BRANCH   4   5
ATOM      5  C   LIG    1       27.712 -14.435   3.171  0.00  0.00    +0.004 C 
BRANCH   5   6
ATOM      6  C   LIG    1       27.079 -13.051   2.815  0.00  0.00    +0.000 C 
BRANCH   6   7
ATOM      7  C   LIG    1       25.697 -13.097   2.140  0.00  0.00    +0.000 C 
BRANCH   7   8
ATOM      8  C   LIG    1       24.679 -12.038   2.627  0.00  0.00    -0.000 C 
BRANCH   8   9
ATOM      9  C   LIG    1       23.603 -12.533   3.602  0.00  0.00    -0.000 C 
BRANCH   9  11
ATOM     10  C   LIG    1       23.306 -14.950   4.284  0.00  0.00    +0.004 C 
ATOM     11  C   LIG    1       24.098 -13.671   4.496  0.00  0.00    -0.003 C 
ENDBRANCH   9  11
ENDBRANCH   8   9
ENDBRANCH   7   8
ENDBRANCH   6   7
ENDBRANCH   5   6
ENDBRANCH   4   5
ENDBRANCH   2   4
ENDBRANCH   1   3
BRANCH   1  12
ATOM     12  C   LIG    1       23.185 -18.719   3.622  0.00  0.00    +0.004 C 
BRANCH  12  13
ATOM     13  C   LIG    1       22.604 -19.228   4.992  0.00  0.00    +0.000 C 
BRANCH  13  14
ATOM     14  C   LIG    1       22.959 -20.712   5.344  0.00  0.00    +0.000 C 
BRANCH  14  15
ATOM     15  C   LIG    1       23.472 -20.827   6.787  0.00  0.00    +0.000 C 
BRANCH  15  16
ATOM     16  C   LIG    1       24.981 -20.789   7.061  0.00  0.00    +0.011 C 
BRANCH  16  17
ATOM     17  C   LIG    1       25.864 -20.936   5.834  0.00  0.00    +0.120 C 
BRANCH  17  18
ATOM     18  C   LIG    1       27.303 -20.545   5.995  0.00  0.00    +0.305 C 
ATOM     19  O   LIG    1       27.891 -19.579   5.541  0.00  0.00    -0.251 OA
BRANCH  18  20
ATOM     20  O   LIG    1       27.924 -21.436   6.798  0.00  0.00    -0.481 OA
ATOM     21  H   LIG    1       28.360 -22.064   6.189  0.00  0.00    +0.295 HD
ENDBRANCH  18  20
ENDBRANCH  17  18
ENDBRANCH  16  17
ENDBRANCH  15  16
ENDBRANCH  14  15
ENDBRANCH  13  14
ENDBRANCH  12  13
ENDBRANCH   1  12
TORSDOF 16
ENDMDL
MODEL 6
REMARK VINA RESULT:      -5.6      2.634      4.300
REMARK  Name = *****
REMARK                            x       y       z     vdW  Elec       q    Type
REMARK                         _______ _______ _______ _____ _____    ______ ____
ROOT
ATOM      1  C   LIG    1       25.257 -18.435   3.451  0.00  0.00    +0.027 C 
ENDROOT
BRANCH   1   3
ATOM      2  C   LIG    1       26.917 -16.069   3.500  0.00  0.00    -0.031 C 
ATOM      3  C   LIG    1       26.109 -17.153   3.430  0.00  0.00    -0.031 C 
BRANCH   2   4
ATOM      4  C   LIG    1       26.964 -14.767   2.683  0.00  0.00    +0.027 C 
BRANCH   4   5
ATOM      5  C   LIG    1       27.668 -13.516   3.277  0.00  0.00    +0.004 C 
BRANCH   5   6
ATOM      6  C   LIG    1       27.658 -13.396   4.836  0.00  0.00    +0.000 C 
BRANCH   6   7
ATOM      7  C   LIG    1       26.278 -13.494   5.509  0.00  0.00    +0.000 C 
BRANCH   7   8
ATOM      8  C   LIG    1       25.171 -12.602   4.898  0.00  0.00    -0.000 C 
BRANCH   8   9
ATOM      9  C   LIG    1       23.947 -13.334   4.333  0.00  0.00    -0.000 C 
BRANCH   9  11
ATOM     10  C   LIG    1       24.460 -11.980   2.260  0.00  0.00    +0.004 C 
ATOM     11  C   LIG    1       23.877 -13.272   2.807  0.00  0.00    -0.003 C 
ENDBRANCH   9  11
ENDBRANCH   8   9
ENDBRANCH   7   8
ENDBRANCH   6   7
ENDBRANCH   5   6
ENDBRANCH   4   5
ENDBRANCH   2   4
ENDBRANCH   1   3
BRANCH   1  12
ATOM     12  C   LIG    1       25.800 -19.768   4.045  0.00  0.00    +0.004 C 
BRANCH  12  13
ATOM     13  C   LIG    1       26.997 -19.603   5.053  0.00  0.00    +0.000 C 
BRANCH  13  14
ATOM     14  C   LIG    1       26.774 -20.270   6.451  0.00  0.00    +0.000 C 
BRANCH  14  15
ATOM     15  C   LIG    1       25.624 -21.287   6.398  0.00  0.00    +0.000 C 
BRANCH  15  16
ATOM     16  C   LIG    1       24.283 -20.950   7.062  0.00  0.00    +0.011 C 
BRANCH  16  17
ATOM     17  C   LIG    1       23.062 -21.569   6.402  0.00  0.00    +0.120 C 
BRANCH  17  18
ATOM     18  C   LIG    1       22.338 -20.717   5.403  0.00  0.00    +0.305 C 
ATOM     19  O   LIG    1       22.487 -19.535   5.152  0.00  0.00    -0.251 OA
BRANCH  18  20
ATOM     20  O   LIG    1       21.449 -21.476   4.726  0.00  0.00    -0.481 OA
ATOM     21  H   LIG    1       21.314 -22.266   5.284  0.00  0.00    +0.295 HD
ENDBRANCH  18  20
ENDBRANCH  17  18
ENDBRANCH  16  17
ENDBRANCH  15  16
ENDBRANCH  14  15
ENDBRANCH  13  14
ENDBRANCH  12  13
ENDBRANCH   1  12
TORSDOF 16
ENDMDL
MODEL 7
REMARK VINA RESULT:      -5.5      2.353      7.386
REMARK  Name = *****
REMARK                            x       y       z     vdW  Elec       q    Type
REMARK                         _______ _______ _______ _____ _____    ______ ____
ROOT
ATOM      1  C   LIG    1       25.512 -16.130   3.555  0.00  0.00    +0.027 C 
ENDROOT
BRANCH   1   3
ATOM      2  C   LIG    1       25.337 -18.997   3.236  0.00  0.00    -0.031 C 
ATOM      3  C   LIG    1       25.443 -17.663   3.441  0.00  0.00    -0.031 C 
BRANCH   2   4
ATOM      4  C   LIG    1       25.693 -20.205   4.119  0.00  0.00    +0.027 C 
BRANCH   4   5
ATOM      5  C   LIG    1       26.303 -19.968   5.529  0.00  0.00    +0.004 C 
BRANCH   5   6
ATOM      6  C   LIG    1       25.745 -20.867   6.680  0.00  0.00    +0.000 C 
BRANCH   6   7
ATOM      7  C   LIG    1       24.223 -20.814   6.896  0.00  0.00    +0.000 C 
BRANCH   7   8
ATOM      8  C   LIG    1       23.372 -21.572   5.848  0.00  0.00    -0.000 C 
BRANCH   8   9
ATOM      9  C   LIG    1       22.261 -20.763   5.165  0.00  0.00    -0.000 C 
BRANCH   9  11
ATOM     10  C   LIG    1       21.879 -18.473   4.161  0.00  0.00    +0.004 C 
ATOM     11  C   LIG    1       22.444 -19.253   5.335  0.00  0.00    -0.003 C 
ENDBRANCH   9  11
ENDBRANCH   8   9
ENDBRANCH   7   8
ENDBRANCH   6   7
ENDBRANCH   5   6
ENDBRANCH   4   5
ENDBRANCH   2   4
ENDBRANCH   1   3
BRANCH   1  12
ATOM     12  C   LIG    1       24.321 -15.297   4.114  0.00  0.00    +0.004 C 
BRANCH  12  13
ATOM     13  C   LIG    1       23.923 -14.047   3.245  0.00  0.00    +0.000 C 
BRANCH  13  14
ATOM     14  C   LIG    1       24.816 -12.782   3.467  0.00  0.00    +0.000 C 
BRANCH  14  15
ATOM     15  C   LIG    1       26.018 -12.781   2.510  0.00  0.00    +0.000 C 
BRANCH  15  16
ATOM     16  C   LIG    1       27.197 -13.727   2.774  0.00  0.00    +0.011 C 
BRANCH  16  17
ATOM     17  C   LIG    1       28.329 -13.134   3.596  0.00  0.00    +0.120 C 
BRANCH  17  18
ATOM     18  C   LIG    1       28.058 -12.930   5.057  0.00  0.00    +0.305 C 
ATOM     19  O   LIG    1       27.235 -13.478   5.769  0.00  0.00    -0.251 OA
BRANCH  18  20
ATOM     20  O   LIG    1       28.924 -12.019   5.551  0.00  0.00    -0.481 OA
ATOM     21  H   LIG    1       29.620 -12.544   5.992  0.00  0.00    +0.295 HD
ENDBRANCH  18  20
ENDBRANCH  17  18
ENDBRANCH  16  17
ENDBRANCH  15  16
ENDBRANCH  14  15
ENDBRANCH  13  14
ENDBRANCH  12  13
ENDBRANCH   1  12
TORSDOF 16
ENDMDL
MODEL 8
REMARK VINA RESULT:      -5.4      1.296      1.780
REMARK  Name = *****
REMARK                            x       y       z     vdW  Elec       q    Type
REMARK                         _______ _______ _______ _____ _____    ______ ____
ROOT
ATOM      1  C   LIG    1       24.294 -20.396   3.408  0.00  0.00    +0.027 C 
ENDROOT
BRANCH   1   3
ATOM      2  C   LIG    1       25.664 -17.851   3.392  0.00  0.00    -0.031 C 
ATOM      3  C   LIG    1       24.969 -19.013   3.393  0.00  0.00    -0.031 C 
BRANCH   2   4
ATOM      4  C   LIG    1       25.214 -16.385   3.274  0.00  0.00    +0.027 C 
BRANCH   4   5
ATOM      5  C   LIG    1       24.280 -15.781   4.359  0.00  0.00    +0.004 C 
BRANCH   5   6
ATOM      6  C   LIG    1       23.483 -14.501   3.946  0.00  0.00    +0.000 C 
BRANCH   6   7
ATOM      7  C   LIG    1       24.294 -13.195   3.881  0.00  0.00    +0.000 C 
BRANCH   7   8
ATOM      8  C   LIG    1       24.931 -12.871   2.509  0.00  0.00    -0.000 C 
BRANCH   8   9
ATOM      9  C   LIG    1       26.465 -12.838   2.466  0.00  0.00    -0.000 C 
BRANCH   9  11
ATOM     10  C   LIG    1       28.617 -13.286   3.716  0.00  0.00    +0.004 C 
ATOM     11  C   LIG    1       27.100 -13.357   3.757  0.00  0.00    -0.003 C 
ENDBRANCH   9  11
ENDBRANCH   8   9
ENDBRANCH   7   8
ENDBRANCH   6   7
ENDBRANCH   5   6
ENDBRANCH   4   5
ENDBRANCH   2   4
ENDBRANCH   1   3
BRANCH   1  12
ATOM     12  C   LIG    1       23.213 -20.767   4.465  0.00  0.00    +0.004 C 
BRANCH  12  13
ATOM     13  C   LIG    1       23.312 -19.972   5.819  0.00  0.00    +0.000 C 
BRANCH  13  14
ATOM     14  C   LIG    1       23.777 -20.823   7.048  0.00  0.00    +0.000 C 
BRANCH  14  15
ATOM     15  C   LIG    1       25.179 -21.406   6.814  0.00  0.00    +0.000 C 
BRANCH  15  16
ATOM     16  C   LIG    1       26.415 -20.533   7.062  0.00  0.00    +0.011 C 
BRANCH  16  17
ATOM     17  C   LIG    1       27.233 -20.204   5.825  0.00  0.00    +0.120 C 
BRANCH  17  18
ATOM     18  C   LIG    1       28.548 -19.521   6.055  0.00  0.00    +0.305 C 
ATOM     19  O   LIG    1       29.354 -19.692   6.951  0.00  0.00    -0.251 OA
BRANCH  18  20
ATOM     20  O   LIG    1       28.780 -18.645   5.054  0.00  0.00    -0.481 OA
ATOM     21  H   LIG    1       28.515 -17.775   5.412  0.00  0.00    +0.295 HD
ENDBRANCH  18  20
ENDBRANCH  17  18
ENDBRANCH  16  17
ENDBRANCH  15  16
ENDBRANCH  14  15
ENDBRANCH  13  14
ENDBRANCH  12  13
ENDBRANCH   1  12
TORSDOF 16
ENDMDL
MODEL 9
REMARK VINA RESULT:      -5.3      2.507      4.260
REMARK  Name = *****
REMARK                            x       y       z     vdW  Elec       q    Type
REMARK                         _______ _______ _______ _____ _____    ______ ____
ROOT
ATOM      1  C   LIG    1       25.390 -18.586   3.559  0.00  0.00    +0.027 C 
ENDROOT
BRANCH   1   3
ATOM      2  C   LIG    1       27.227 -16.356   3.662  0.00  0.00    -0.031 C 
ATOM      3  C   LIG    1       26.320 -17.361   3.607  0.00  0.00    -0.031 C 
BRANCH   2   4
ATOM      4  C   LIG    1       27.074 -14.828   3.580  0.00  0.00    +0.027 C 
BRANCH   4   5
ATOM      5  C   LIG    1       26.620 -14.175   2.245  0.00  0.00    +0.004 C 
BRANCH   5   6
ATOM      6  C   LIG    1       26.118 -12.697   2.337  0.00  0.00    +0.000 C 
BRANCH   6   7
ATOM      7  C   LIG    1       24.593 -12.507   2.389  0.00  0.00    +0.000 C 
BRANCH   7   8
ATOM      8  C   LIG    1       23.993 -12.287   3.798  0.00  0.00    -0.000 C 
BRANCH   8   9
ATOM      9  C   LIG    1       23.936 -13.520   4.710  0.00  0.00    -0.000 C 
BRANCH   9  11
ATOM     10  C   LIG    1       22.710 -15.729   4.830  0.00  0.00    +0.004 C 
ATOM     11  C   LIG    1       23.523 -14.787   3.959  0.00  0.00    -0.003 C 
ENDBRANCH   9  11
ENDBRANCH   8   9
ENDBRANCH   7   8
ENDBRANCH   6   7
ENDBRANCH   5   6
ENDBRANCH   4   5
ENDBRANCH   2   4
ENDBRANCH   1   3
BRANCH   1  12
ATOM     12  C   LIG    1       25.738 -19.907   4.307  0.00  0.00    +0.004 C 
BRANCH  12  13
ATOM     13  C   LIG    1       27.076 -19.865   5.134  0.00  0.00    +0.000 C 
BRANCH  13  14
ATOM     14  C   LIG    1       26.945 -20.340   6.619  0.00  0.00    +0.000 C 
BRANCH  14  15
ATOM     15  C   LIG    1       25.469 -20.477   7.024  0.00  0.00    +0.000 C 
BRANCH  15  16
ATOM     16  C   LIG    1       24.606 -21.571   6.385  0.00  0.00    +0.011 C 
BRANCH  16  17
ATOM     17  C   LIG    1       23.108 -21.410   6.582  0.00  0.00    +0.120 C 
BRANCH  17  18
ATOM     18  C   LIG    1       22.376 -20.628   5.532  0.00  0.00    +0.305 C 
ATOM     19  O   LIG    1       22.444 -19.440   5.274  0.00  0.00    -0.251 OA
BRANCH  18  20
ATOM     20  O   LIG    1       21.591 -21.463   4.817  0.00  0.00    -0.481 OA
ATOM     21  H   LIG    1       22.211 -22.061   4.356  0.00  0.00    +0.295 HD
ENDBRANCH  18  20
ENDBRANCH  17  18
ENDBRANCH  16  17
ENDBRANCH  15  16
ENDBRANCH  14  15
ENDBRANCH  13  14
ENDBRANCH  12  13
ENDBRANCH   1  12
TORSDOF 16
ENDMDL
