MODEL 1
REMARK VINA RESULT:      -7.8      0.000      0.000
REMARK  Name = *****
REMARK                            x       y       z     vdW  Elec       q    Type
REMARK                         _______ _______ _______ _____ _____    ______ ____
ROOT
ATOM      1  C   LIG    1       24.399 -19.904   3.606  0.00  0.00    +0.011 C 
ATOM      2  C   LIG    1       24.479 -20.691   4.919  0.00  0.00    -0.030 C 
ATOM      3  C   LIG    1       25.803 -20.369   5.651  0.00  0.00    +0.013 C 
ATOM      4  C   LIG    1       25.900 -21.153   6.981  0.00  0.00    -0.030 C 
ATOM      5  C   LIG    1       27.213 -20.821   7.694  0.00  0.00    +0.011 C 
ATOM      6  C   LIG    1       24.696 -20.771   7.872  0.00  0.00    +0.010 C 
ATOM      7  C   LIG    1       23.374 -21.102   7.159  0.00  0.00    -0.008 C 
ATOM      8  C   LIG    1       23.321 -22.608   6.858  0.00  0.00    +0.025 C 
ATOM      9  C   LIG    1       24.505 -23.008   5.952  0.00  0.00    +0.018 C 
ATOM     10  C   LIG    1       25.828 -22.667   6.670  0.00  0.00    +0.028 C 
ATOM     11  C   LIG    1       24.426 -22.210   4.634  0.00  0.00    +0.028 C 
ATOM     12  C   LIG    1       23.297 -20.316   5.841  0.00  0.00    +0.010 C 
ENDROOT
BRANCH   9  13
ATOM     13  N   LIG    1       24.460 -24.441   5.662  0.00  0.00    -0.325 NA
ATOM     14  H   LIG    1       25.407 -24.817   5.629  0.00  0.00    +0.119 HD
ATOM     15  H   LIG    1       23.986 -24.933   6.419  0.00  0.00    +0.119 HD
ENDBRANCH   9  13
TORSDOF 1
ENDMDL
MODEL 2
REMARK VINA RESULT:      -7.6      1.376      3.134
REMARK  Name = *****
REMARK                            x       y       z     vdW  Elec       q    Type
REMARK                         _______ _______ _______ _____ _____    ______ ____
ROOT
ATOM      1  C   LIG    1       27.167 -20.756   7.978  0.00  0.00    +0.011 C 
ATOM      2  C   LIG    1       25.896 -21.150   7.218  0.00  0.00    -0.030 C 
ATOM      3  C   LIG    1       25.795 -22.689   7.113  0.00  0.00    +0.013 C 
ATOM      4  C   LIG    1       24.516 -23.105   6.350  0.00  0.00    -0.030 C 
ATOM      5  C   LIG    1       24.429 -24.631   6.258  0.00  0.00    +0.011 C 
ATOM      6  C   LIG    1       23.286 -22.544   7.100  0.00  0.00    +0.010 C 
ATOM      7  C   LIG    1       23.369 -21.012   7.196  0.00  0.00    -0.008 C 
ATOM      8  C   LIG    1       23.412 -20.415   5.780  0.00  0.00    +0.025 C 
ATOM      9  C   LIG    1       24.645 -20.947   5.019  0.00  0.00    +0.018 C 
ATOM     10  C   LIG    1       24.559 -22.486   4.933  0.00  0.00    +0.028 C 
ATOM     11  C   LIG    1       25.923 -20.555   5.790  0.00  0.00    +0.028 C 
ATOM     12  C   LIG    1       24.646 -20.619   7.954  0.00  0.00    +0.010 C 
ENDROOT
BRANCH   9  13
ATOM     13  N   LIG    1       24.692 -20.383   3.671  0.00  0.00    -0.325 NA
ATOM     14  H   LIG    1       24.971 -19.403   3.715  0.00  0.00    +0.119 HD
ATOM     15  H   LIG    1       25.409 -20.857   3.122  0.00  0.00    +0.119 HD
ENDBRANCH   9  13
TORSDOF 1
ENDMDL
MODEL 3
REMARK VINA RESULT:      -7.6      1.528      3.183
REMARK  Name = *****
REMARK                            x       y       z     vdW  Elec       q    Type
REMARK                         _______ _______ _______ _____ _____    ______ ____
ROOT
ATOM      1  C   LIG    1       24.386 -24.673   6.132  0.00  0.00    +0.011 C 
ATOM      2  C   LIG    1       24.513 -23.163   6.356  0.00  0.00    -0.030 C 
ATOM      3  C   LIG    1       24.692 -22.438   5.002  0.00  0.00    +0.013 C 
ATOM      4  C   LIG    1       24.818 -20.911   5.208  0.00  0.00    -0.030 C 
ATOM      5  C   LIG    1       24.992 -20.208   3.859  0.00  0.00    +0.011 C 
ATOM      6  C   LIG    1       23.545 -20.398   5.918  0.00  0.00    +0.010 C 
ATOM      7  C   LIG    1       23.365 -21.101   7.273  0.00  0.00    -0.008 C 
ATOM      8  C   LIG    1       24.587 -20.814   8.161  0.00  0.00    +0.025 C 
ATOM      9  C   LIG    1       25.870 -21.336   7.480  0.00  0.00    +0.018 C 
ATOM     10  C   LIG    1       26.039 -20.632   6.116  0.00  0.00    +0.028 C 
ATOM     11  C   LIG    1       25.737 -22.856   7.249  0.00  0.00    +0.028 C 
ATOM     12  C   LIG    1       23.244 -22.616   7.048  0.00  0.00    +0.010 C 
ENDROOT
BRANCH   9  13
ATOM     13  N   LIG    1       27.036 -21.067   8.319  0.00  0.00    -0.325 NA
ATOM     14  H   LIG    1       27.869 -20.982   7.738  0.00  0.00    +0.119 HD
ATOM     15  H   LIG    1       26.925 -20.167   8.787  0.00  0.00    +0.119 HD
ENDBRANCH   9  13
TORSDOF 1
ENDMDL
MODEL 4
REMARK VINA RESULT:      -6.5      1.109      3.289
REMARK  Name = *****
REMARK                            x       y       z     vdW  Elec       q    Type
REMARK                         _______ _______ _______ _____ _____    ______ ____
ROOT
ATOM      1  C   LIG    1       25.673 -20.691   8.853  0.00  0.00    +0.011 C 
ATOM      2  C   LIG    1       25.035 -21.135   7.533  0.00  0.00    -0.030 C 
ATOM      3  C   LIG    1       24.005 -20.082   7.060  0.00  0.00    +0.013 C 
ATOM      4  C   LIG    1       23.353 -20.512   5.726  0.00  0.00    -0.030 C 
ATOM      5  C   LIG    1       22.339 -19.459   5.270  0.00  0.00    +0.011 C 
ATOM      6  C   LIG    1       24.461 -20.684   4.662  0.00  0.00    +0.010 C 
ATOM      7  C   LIG    1       25.482 -21.740   5.116  0.00  0.00    -0.008 C 
ATOM      8  C   LIG    1       24.766 -23.085   5.319  0.00  0.00    +0.025 C 
ATOM      9  C   LIG    1       23.666 -22.942   6.392  0.00  0.00    +0.018 C 
ATOM     10  C   LIG    1       22.650 -21.875   5.934  0.00  0.00    +0.028 C 
ATOM     11  C   LIG    1       24.311 -22.488   7.719  0.00  0.00    +0.028 C 
ATOM     12  C   LIG    1       26.117 -21.296   6.443  0.00  0.00    +0.010 C 
ENDROOT
BRANCH   9  13
ATOM     13  N   LIG    1       22.981 -24.219   6.590  0.00  0.00    -0.325 NA
ATOM     14  H   LIG    1       22.715 -24.321   7.569  0.00  0.00    +0.119 HD
ATOM     15  H   LIG    1       22.112 -24.231   6.057  0.00  0.00    +0.119 HD
ENDBRANCH   9  13
TORSDOF 1
ENDMDL
MODEL 5
REMARK VINA RESULT:      -6.4      1.755      3.279
REMARK  Name = *****
REMARK                            x       y       z     vdW  Elec       q    Type
REMARK                         _______ _______ _______ _____ _____    ______ ____
ROOT
ATOM      1  C   LIG    1       22.419 -19.596   5.590  0.00  0.00    +0.011 C 
ATOM      2  C   LIG    1       23.512 -20.581   6.016  0.00  0.00    -0.030 C 
ATOM      3  C   LIG    1       22.931 -22.012   6.110  0.00  0.00    +0.013 C 
ATOM      4  C   LIG    1       24.022 -23.021   6.536  0.00  0.00    -0.030 C 
ATOM      5  C   LIG    1       23.432 -24.432   6.621  0.00  0.00    +0.011 C 
ATOM      6  C   LIG    1       25.168 -22.983   5.500  0.00  0.00    +0.010 C 
ATOM      7  C   LIG    1       25.763 -21.568   5.410  0.00  0.00    -0.008 C 
ATOM      8  C   LIG    1       26.314 -21.160   6.786  0.00  0.00    +0.025 C 
ATOM      9  C   LIG    1       25.181 -21.172   7.834  0.00  0.00    +0.018 C 
ATOM     10  C   LIG    1       24.583 -22.593   7.913  0.00  0.00    +0.028 C 
ATOM     11  C   LIG    1       24.078 -20.184   7.399  0.00  0.00    +0.028 C 
ATOM     12  C   LIG    1       24.665 -20.580   4.987  0.00  0.00    +0.010 C 
ENDROOT
BRANCH   9  13
ATOM     13  N   LIG    1       25.698 -20.785   9.146  0.00  0.00    -0.325 NA
ATOM     14  H   LIG    1       26.033 -19.822   9.116  0.00  0.00    +0.119 HD
ATOM     15  H   LIG    1       24.945 -20.802   9.834  0.00  0.00    +0.119 HD
ENDBRANCH   9  13
TORSDOF 1
ENDMDL
MODEL 6
REMARK VINA RESULT:      -6.4      1.795      3.637
REMARK  Name = *****
REMARK                            x       y       z     vdW  Elec       q    Type
REMARK                         _______ _______ _______ _____ _____    ______ ____
ROOT
ATOM      1  C   LIG    1       25.669 -24.542   7.104  0.00  0.00    +0.011 C 
ATOM      2  C   LIG    1       25.473 -23.025   7.029  0.00  0.00    -0.030 C 
ATOM      3  C   LIG    1       24.145 -22.696   6.307  0.00  0.00    +0.013 C 
ATOM      4  C   LIG    1       23.928 -21.167   6.225  0.00  0.00    -0.030 C 
ATOM      5  C   LIG    1       22.609 -20.859   5.511  0.00  0.00    +0.011 C 
ATOM      6  C   LIG    1       23.907 -20.590   7.659  0.00  0.00    +0.010 C 
ATOM      7  C   LIG    1       25.229 -20.898   8.381  0.00  0.00    -0.008 C 
ATOM      8  C   LIG    1       26.394 -20.267   7.601  0.00  0.00    +0.025 C 
ATOM      9  C   LIG    1       26.446 -20.844   6.170  0.00  0.00    +0.018 C 
ATOM     10  C   LIG    1       25.113 -20.538   5.454  0.00  0.00    +0.028 C 
ATOM     11  C   LIG    1       26.637 -22.373   6.248  0.00  0.00    +0.028 C 
ATOM     12  C   LIG    1       25.428 -22.421   8.450  0.00  0.00    +0.010 C 
ENDROOT
BRANCH   9  13
ATOM     13  N   LIG    1       27.552 -20.248   5.421  0.00  0.00    -0.325 NA
ATOM     14  H   LIG    1       27.187 -19.677   4.660  0.00  0.00    +0.119 HD
ATOM     15  H   LIG    1       28.076 -19.614   6.025  0.00  0.00    +0.119 HD
ENDBRANCH   9  13
TORSDOF 1
ENDMDL
MODEL 7
REMARK VINA RESULT:      -6.0      1.598      3.062
REMARK  Name = *****
REMARK                            x       y       z     vdW  Elec       q    Type
REMARK                         _______ _______ _______ _____ _____    ______ ____
ROOT
ATOM      1  C   LIG    1       24.765 -24.674   6.333  0.00  0.00    +0.011 C 
ATOM      2  C   LIG    1       24.951 -23.154   6.363  0.00  0.00    -0.030 C 
ATOM      3  C   LIG    1       26.332 -22.798   6.962  0.00  0.00    +0.013 C 
ATOM      4  C   LIG    1       26.538 -21.266   6.997  0.00  0.00    -0.030 C 
ATOM      5  C   LIG    1       27.910 -20.932   7.589  0.00  0.00    +0.011 C 
ATOM      6  C   LIG    1       26.430 -20.717   5.556  0.00  0.00    +0.010 C 
ATOM      7  C   LIG    1       25.054 -21.051   4.956  0.00  0.00    -0.008 C 
ATOM      8  C   LIG    1       23.954 -20.416   5.822  0.00  0.00    +0.025 C 
ATOM      9  C   LIG    1       24.031 -20.966   7.262  0.00  0.00    +0.018 C 
ATOM     10  C   LIG    1       25.417 -20.634   7.855  0.00  0.00    +0.028 C 
ATOM     11  C   LIG    1       23.850 -22.498   7.229  0.00  0.00    +0.028 C 
ATOM     12  C   LIG    1       24.867 -22.576   4.932  0.00  0.00    +0.010 C 
ENDROOT
BRANCH   9  13
ATOM     13  N   LIG    1       22.987 -20.366   8.091  0.00  0.00    -0.325 NA
ATOM     14  H   LIG    1       22.480 -21.095   8.592  0.00  0.00    +0.119 HD
ATOM     15  H   LIG    1       23.410 -19.773   8.805  0.00  0.00    +0.119 HD
ENDBRANCH   9  13
TORSDOF 1
ENDMDL
MODEL 8
REMARK VINA RESULT:      -5.9      1.540      2.874
REMARK  Name = *****
REMARK                            x       y       z     vdW  Elec       q    Type
REMARK                         _______ _______ _______ _____ _____    ______ ____
ROOT
ATOM      1  C   LIG    1       24.778 -20.233   3.618  0.00  0.00    +0.011 C 
ATOM      2  C   LIG    1       24.964 -20.871   4.999  0.00  0.00    -0.030 C 
ATOM      3  C   LIG    1       24.909 -22.413   4.884  0.00  0.00    +0.013 C 
ATOM      4  C   LIG    1       25.099 -23.074   6.268  0.00  0.00    -0.030 C 
ATOM      5  C   LIG    1       25.046 -24.599   6.137  0.00  0.00    +0.011 C 
ATOM      6  C   LIG    1       26.463 -22.634   6.847  0.00  0.00    +0.010 C 
ATOM      7  C   LIG    1       26.521 -21.104   6.981  0.00  0.00    -0.008 C 
ATOM      8  C   LIG    1       25.400 -20.632   7.919  0.00  0.00    +0.025 C 
ATOM      9  C   LIG    1       24.025 -21.043   7.350  0.00  0.00    +0.018 C 
ATOM     10  C   LIG    1       23.976 -22.580   7.212  0.00  0.00    +0.028 C 
ATOM     11  C   LIG    1       23.843 -20.405   5.957  0.00  0.00    +0.028 C 
ATOM     12  C   LIG    1       26.330 -20.465   5.596  0.00  0.00    +0.010 C 
ENDROOT
BRANCH   9  13
ATOM     13  N   LIG    1       22.953 -20.597   8.239  0.00  0.00    -0.325 NA
ATOM     14  H   LIG    1       22.239 -21.321   8.311  0.00  0.00    +0.119 HD
ATOM     15  H   LIG    1       23.318 -20.463   9.182  0.00  0.00    +0.119 HD
ENDBRANCH   9  13
TORSDOF 1
ENDMDL
MODEL 9
REMARK VINA RESULT:      -5.9      1.781      3.230
REMARK  Name = *****
REMARK                            x       y       z     vdW  Elec       q    Type
REMARK                         _______ _______ _______ _____ _____    ______ ____
ROOT
ATOM      1  C   LIG    1       23.483 -24.513   6.652  0.00  0.00    +0.011 C 
ATOM      2  C   LIG    1       23.991 -23.081   6.450  0.00  0.00    -0.030 C 
ATOM      3  C   LIG    1       24.648 -22.561   7.750  0.00  0.00    +0.013 C 
ATOM      4  C   LIG    1       25.170 -21.118   7.563  0.00  0.00    -0.030 C 
ATOM      5  C   LIG    1       25.819 -20.620   8.857  0.00  0.00    +0.011 C 
ATOM      6  C   LIG    1       26.199 -21.107   6.410  0.00  0.00    +0.010 C 
ATOM      7  C   LIG    1       25.552 -21.607   5.109  0.00  0.00    -0.008 C 
ATOM      8  C   LIG    1       24.374 -20.691   4.741  0.00  0.00    +0.025 C 
ATOM      9  C   LIG    1       23.323 -20.702   5.872  0.00  0.00    +0.018 C 
ATOM     10  C   LIG    1       23.981 -20.207   7.177  0.00  0.00    +0.028 C 
ATOM     11  C   LIG    1       22.818 -22.146   6.078  0.00  0.00    +0.028 C 
ATOM     12  C   LIG    1       25.038 -23.041   5.314  0.00  0.00    +0.010 C 
ENDROOT
BRANCH   9  13
ATOM     13  N   LIG    1       22.199 -19.833   5.529  0.00  0.00    -0.325 NA
ATOM     14  H   LIG    1       21.669 -19.604   6.369  0.00  0.00    +0.119 HD
ATOM     15  H   LIG    1       22.546 -18.946   5.162  0.00  0.00    +0.119 HD
ENDBRANCH   9  13
TORSDOF 1
ENDMDL
