MODEL 1
REMARK VINA RESULT:      -9.5      0.000      0.000
REMARK  Name = *****
REMARK                            x       y       z     vdW  Elec       q    Type
REMARK                         _______ _______ _______ _____ _____    ______ ____
ROOT
ATOM      1  O   LIG    1       26.734 -19.826   4.883  0.00  0.00    -0.283 OA
ATOM      2  C   LIG    1       25.650 -20.325   5.187  0.00  0.00    +0.228 C 
ATOM      3  C   LIG    1       25.641 -21.555   6.019  0.00  0.00    +0.171 C 
ATOM      4  C   LIG    1       24.515 -22.204   6.365  0.00  0.00    +0.048 C 
ATOM      5  C   LIG    1       23.212 -21.680   5.815  0.00  0.00    +0.194 C 
ATOM      6  O   LIG    1       22.164 -22.312   5.927  0.00  0.00    -0.287 OA
ATOM      7  C   LIG    1       23.192 -20.385   5.102  0.00  0.00    +0.033 A 
ATOM      8  C   LIG    1       21.974 -19.806   4.721  0.00  0.00    +0.012 A 
ATOM      9  C   LIG    1       21.959 -18.594   4.023  0.00  0.00    +0.001 A 
ATOM     10  C   LIG    1       23.158 -17.962   3.692  0.00  0.00    +0.001 A 
ATOM     11  C   LIG    1       24.370 -18.533   4.070  0.00  0.00    +0.012 A 
ATOM     12  C   LIG    1       24.378 -19.741   4.780  0.00  0.00    +0.036 A 
ENDROOT
BRANCH   4  13
ATOM     13  C   LIG    1       24.397 -23.506   7.175  0.00  0.00    +0.026 C 
ATOM     14  C   LIG    1       23.385 -24.573   6.696  0.00  0.00    +0.009 C 
ATOM     15  C   LIG    1       23.878 -25.495   5.565  0.00  0.00    +0.009 C 
ATOM     16  C   LIG    1       25.284 -26.087   5.778  0.00  0.00    +0.019 C 
ATOM     17  C   LIG    1       26.255 -24.968   6.200  0.00  0.00    +0.009 C 
ATOM     18  C   LIG    1       25.756 -24.200   7.420  0.00  0.00    +0.009 C 
BRANCH  16  19
ATOM     19  C   LIG    1       25.361 -27.318   6.680  0.00  0.00    -0.044 A 
ATOM     20  C   LIG    1       24.471 -28.386   6.458  0.00  0.00    +0.005 A 
ATOM     21  C   LIG    1       24.484 -29.520   7.277  0.00  0.00    +0.020 A 
ATOM     22  C   LIG    1       25.378 -29.596   8.338  0.00  0.00    +0.041 A 
ATOM     23 CL   LIG    1       25.393 -30.982   9.356  0.00  0.00    -0.084 Cl
ATOM     24  C   LIG    1       26.256 -28.549   8.588  0.00  0.00    +0.020 A 
ATOM     25  C   LIG    1       26.243 -27.419   7.766  0.00  0.00    +0.005 A 
ENDBRANCH  16  19
ENDBRANCH   4  13
BRANCH   3  26
ATOM     26  O   LIG    1       26.902 -21.984   6.382  0.00  0.00    -0.503 OA
ATOM     27  H   LIG    1       27.503 -21.678   5.668  0.00  0.00    +0.292 HD
ENDBRANCH   3  26
TORSDOF 3
ENDMDL
MODEL 2
REMARK VINA RESULT:      -9.4      1.838      3.329
REMARK  Name = *****
REMARK                            x       y       z     vdW  Elec       q    Type
REMARK                         _______ _______ _______ _____ _____    ______ ____
ROOT
ATOM      1  O   LIG    1       25.308 -19.684   3.843  0.00  0.00    -0.283 OA
ATOM      2  C   LIG    1       25.799 -20.345   4.759  0.00  0.00    +0.228 C 
ATOM      3  C   LIG    1       25.114 -21.593   5.182  0.00  0.00    +0.171 C 
ATOM      4  C   LIG    1       25.541 -22.361   6.201  0.00  0.00    +0.048 C 
ATOM      5  C   LIG    1       26.735 -21.877   6.984  0.00  0.00    +0.194 C 
ATOM      6  O   LIG    1       27.078 -22.414   8.035  0.00  0.00    -0.287 OA
ATOM      7  C   LIG    1       27.505 -20.715   6.493  0.00  0.00    +0.033 A 
ATOM      8  C   LIG    1       28.706 -20.346   7.116  0.00  0.00    +0.012 A 
ATOM      9  C   LIG    1       29.418 -19.230   6.666  0.00  0.00    +0.001 A 
ATOM     10  C   LIG    1       28.931 -18.470   5.602  0.00  0.00    +0.001 A 
ATOM     11  C   LIG    1       27.739 -18.834   4.979  0.00  0.00    +0.012 A 
ATOM     12  C   LIG    1       27.037 -19.961   5.426  0.00  0.00    +0.036 A 
ENDROOT
BRANCH   4  13
ATOM     13  C   LIG    1       24.881 -23.637   6.751  0.00  0.00    +0.026 C 
ATOM     14  C   LIG    1       23.906 -24.407   5.830  0.00  0.00    +0.009 C 
ATOM     15  C   LIG    1       24.565 -25.362   4.817  0.00  0.00    +0.009 C 
ATOM     16  C   LIG    1       25.653 -26.282   5.406  0.00  0.00    +0.019 C 
ATOM     17  C   LIG    1       26.621 -25.448   6.267  0.00  0.00    +0.009 C 
ATOM     18  C   LIG    1       25.893 -24.645   7.341  0.00  0.00    +0.009 C 
BRANCH  16  19
ATOM     19  C   LIG    1       25.152 -27.539   6.116  0.00  0.00    -0.044 A 
ATOM     20  C   LIG    1       25.615 -27.823   7.414  0.00  0.00    +0.005 A 
ATOM     21  C   LIG    1       25.208 -28.977   8.092  0.00  0.00    +0.020 A 
ATOM     22  C   LIG    1       24.343 -29.872   7.474  0.00  0.00    +0.041 A 
ATOM     23 CL   LIG    1       23.847 -31.298   8.295  0.00  0.00    -0.084 Cl
ATOM     24  C   LIG    1       23.883 -29.623   6.187  0.00  0.00    +0.020 A 
ATOM     25  C   LIG    1       24.289 -28.468   5.514  0.00  0.00    +0.005 A 
ENDBRANCH  16  19
ENDBRANCH   4  13
BRANCH   3  26
ATOM     26  O   LIG    1       23.982 -21.878   4.445  0.00  0.00    -0.503 OA
ATOM     27  H   LIG    1       23.232 -21.825   5.078  0.00  0.00    +0.292 HD
ENDBRANCH   3  26
TORSDOF 3
ENDMDL
MODEL 3
REMARK VINA RESULT:      -8.7      1.318      2.652
REMARK  Name = *****
REMARK                            x       y       z     vdW  Elec       q    Type
REMARK                         _______ _______ _______ _____ _____    ______ ____
ROOT
ATOM      1  O   LIG    1       23.530 -19.888   3.939  0.00  0.00    -0.283 OA
ATOM      2  C   LIG    1       24.393 -20.393   4.657  0.00  0.00    +0.228 C 
ATOM      3  C   LIG    1       24.071 -21.650   5.381  0.00  0.00    +0.171 C 
ATOM      4  C   LIG    1       24.926 -22.255   6.225  0.00  0.00    +0.048 C 
ATOM      5  C   LIG    1       26.244 -21.573   6.490  0.00  0.00    +0.194 C 
ATOM      6  O   LIG    1       27.001 -21.955   7.379  0.00  0.00    -0.287 OA
ATOM      7  C   LIG    1       26.632 -20.400   5.678  0.00  0.00    +0.033 A 
ATOM      8  C   LIG    1       27.915 -19.848   5.799  0.00  0.00    +0.012 A 
ATOM      9  C   LIG    1       28.270 -18.723   5.049  0.00  0.00    +0.001 A 
ATOM     10  C   LIG    1       27.345 -18.136   4.185  0.00  0.00    +0.001 A 
ATOM     11  C   LIG    1       26.070 -18.682   4.060  0.00  0.00    +0.012 A 
ATOM     12  C   LIG    1       25.724 -19.818   4.804  0.00  0.00    +0.036 A 
ENDROOT
BRANCH   4  13
ATOM     13  C   LIG    1       24.675 -23.523   7.060  0.00  0.00    +0.026 C 
ATOM     14  C   LIG    1       23.558 -24.488   6.600  0.00  0.00    +0.009 C 
ATOM     15  C   LIG    1       23.952 -25.477   5.487  0.00  0.00    +0.009 C 
ATOM     16  C   LIG    1       25.289 -26.208   5.713  0.00  0.00    +0.019 C 
ATOM     17  C   LIG    1       26.371 -25.187   6.115  0.00  0.00    +0.009 C 
ATOM     18  C   LIG    1       25.955 -24.349   7.320  0.00  0.00    +0.009 C 
BRANCH  16  19
ATOM     19  C   LIG    1       25.239 -27.423   6.639  0.00  0.00    -0.044 A 
ATOM     20  C   LIG    1       24.276 -28.422   6.406  0.00  0.00    +0.005 A 
ATOM     21  C   LIG    1       24.172 -29.537   7.245  0.00  0.00    +0.020 A 
ATOM     22  C   LIG    1       25.022 -29.661   8.337  0.00  0.00    +0.041 A 
ATOM     23 CL   LIG    1       24.894 -31.023   9.379  0.00  0.00    -0.084 Cl
ATOM     24  C   LIG    1       25.972 -28.681   8.598  0.00  0.00    +0.020 A 
ATOM     25  C   LIG    1       26.075 -27.571   7.757  0.00  0.00    +0.005 A 
ENDBRANCH  16  19
ENDBRANCH   4  13
BRANCH   3  26
ATOM     26  O   LIG    1       22.801 -22.124   5.123  0.00  0.00    -0.503 OA
ATOM     27  H   LIG    1       22.634 -22.819   5.797  0.00  0.00    +0.292 HD
ENDBRANCH   3  26
TORSDOF 3
ENDMDL
MODEL 4
REMARK VINA RESULT:      -8.6      3.699      8.748
REMARK  Name = *****
REMARK                            x       y       z     vdW  Elec       q    Type
REMARK                         _______ _______ _______ _____ _____    ______ ____
ROOT
ATOM      1  O   LIG    1       23.650 -30.978   6.687  0.00  0.00    -0.283 OA
ATOM      2  C   LIG    1       24.303 -29.980   6.995  0.00  0.00    +0.228 C 
ATOM      3  C   LIG    1       24.227 -28.782   6.119  0.00  0.00    +0.171 C 
ATOM      4  C   LIG    1       24.936 -27.660   6.340  0.00  0.00    +0.048 C 
ATOM      5  C   LIG    1       25.901 -27.663   7.499  0.00  0.00    +0.194 C 
ATOM      6  O   LIG    1       26.715 -26.758   7.662  0.00  0.00    -0.287 OA
ATOM      7  C   LIG    1       25.887 -28.791   8.454  0.00  0.00    +0.033 A 
ATOM      8  C   LIG    1       26.663 -28.740   9.621  0.00  0.00    +0.012 A 
ATOM      9  C   LIG    1       26.668 -29.820  10.509  0.00  0.00    +0.001 A 
ATOM     10  C   LIG    1       25.912 -30.959  10.233  0.00  0.00    +0.001 A 
ATOM     11  C   LIG    1       25.138 -31.013   9.076  0.00  0.00    +0.012 A 
ATOM     12  C   LIG    1       25.126 -29.923   8.196  0.00  0.00    +0.036 A 
ENDROOT
BRANCH   4  13
ATOM     13  C   LIG    1       24.970 -26.390   5.473  0.00  0.00    +0.026 C 
ATOM     14  C   LIG    1       23.687 -25.531   5.389  0.00  0.00    +0.009 C 
ATOM     15  C   LIG    1       23.469 -24.549   6.556  0.00  0.00    +0.009 C 
ATOM     16  C   LIG    1       24.703 -23.709   6.936  0.00  0.00    +0.019 C 
ATOM     17  C   LIG    1       25.933 -24.629   7.057  0.00  0.00    +0.009 C 
ATOM     18  C   LIG    1       26.160 -25.459   5.797  0.00  0.00    +0.009 C 
BRANCH  16  19
ATOM     19  C   LIG    1       24.962 -22.474   6.076  0.00  0.00    -0.044 A 
ATOM     20  C   LIG    1       25.928 -21.539   6.491  0.00  0.00    +0.005 A 
ATOM     21  C   LIG    1       26.178 -20.378   5.753  0.00  0.00    +0.020 A 
ATOM     22  C   LIG    1       25.454 -20.128   4.593  0.00  0.00    +0.041 A 
ATOM     23 CL   LIG    1       25.748 -18.699   3.684  0.00  0.00    -0.084 Cl
ATOM     24  C   LIG    1       24.484 -21.027   4.168  0.00  0.00    +0.020 A 
ATOM     25  C   LIG    1       24.239 -22.187   4.907  0.00  0.00    +0.005 A 
ENDBRANCH  16  19
ENDBRANCH   4  13
BRANCH   3  26
ATOM     26  O   LIG    1       23.377 -28.940   5.043  0.00  0.00    -0.503 OA
ATOM     27  H   LIG    1       23.958 -29.011   4.253  0.00  0.00    +0.292 HD
ENDBRANCH   3  26
TORSDOF 3
ENDMDL
MODEL 5
REMARK VINA RESULT:      -7.9      2.568      4.981
REMARK  Name = *****
REMARK                            x       y       z     vdW  Elec       q    Type
REMARK                         _______ _______ _______ _____ _____    ______ ____
ROOT
ATOM      1  O   LIG    1       21.813 -16.161   4.646  0.00  0.00    -0.283 OA
ATOM      2  C   LIG    1       22.901 -16.622   4.299  0.00  0.00    +0.228 C 
ATOM      3  C   LIG    1       23.077 -18.097   4.282  0.00  0.00    +0.171 C 
ATOM      4  C   LIG    1       24.237 -18.699   3.964  0.00  0.00    +0.048 C 
ATOM      5  C   LIG    1       25.426 -17.815   3.683  0.00  0.00    +0.194 C 
ATOM      6  O   LIG    1       26.559 -18.275   3.568  0.00  0.00    -0.287 OA
ATOM      7  C   LIG    1       25.234 -16.354   3.564  0.00  0.00    +0.033 A 
ATOM      8  C   LIG    1       26.292 -15.533   3.149  0.00  0.00    +0.012 A 
ATOM      9  C   LIG    1       26.115 -14.148   3.063  0.00  0.00    +0.001 A 
ATOM     10  C   LIG    1       24.888 -13.576   3.401  0.00  0.00    +0.001 A 
ATOM     11  C   LIG    1       23.835 -14.389   3.812  0.00  0.00    +0.012 A 
ATOM     12  C   LIG    1       24.013 -15.776   3.884  0.00  0.00    +0.036 A 
ENDROOT
BRANCH   4  13
ATOM     13  C   LIG    1       24.539 -20.207   3.965  0.00  0.00    +0.026 C 
ATOM     14  C   LIG    1       25.847 -20.688   4.635  0.00  0.00    +0.009 C 
ATOM     15  C   LIG    1       25.787 -20.850   6.166  0.00  0.00    +0.009 C 
ATOM     16  C   LIG    1       24.555 -21.613   6.690  0.00  0.00    +0.019 C 
ATOM     17  C   LIG    1       23.282 -21.052   6.026  0.00  0.00    +0.009 C 
ATOM     18  C   LIG    1       23.371 -21.066   4.502  0.00  0.00    +0.009 C 
BRANCH  16  19
ATOM     19  C   LIG    1       24.638 -23.137   6.631  0.00  0.00    -0.044 A 
ATOM     20  C   LIG    1       25.902 -23.756   6.658  0.00  0.00    +0.005 A 
ATOM     21  C   LIG    1       26.030 -25.146   6.576  0.00  0.00    +0.020 A 
ATOM     22  C   LIG    1       24.894 -25.938   6.452  0.00  0.00    +0.041 A 
ATOM     23 CL   LIG    1       25.042 -27.647   6.340  0.00  0.00    -0.084 Cl
ATOM     24  C   LIG    1       23.635 -25.352   6.408  0.00  0.00    +0.020 A 
ATOM     25  C   LIG    1       23.511 -23.963   6.494  0.00  0.00    +0.005 A 
ENDBRANCH  16  19
ENDBRANCH   4  13
BRANCH   3  26
ATOM     26  O   LIG    1       21.940 -18.791   4.646  0.00  0.00    -0.503 OA
ATOM     27  H   LIG    1       21.281 -18.611   3.939  0.00  0.00    +0.292 HD
ENDBRANCH   3  26
TORSDOF 3
ENDMDL
MODEL 6
REMARK VINA RESULT:      -7.9      3.757      8.738
REMARK  Name = *****
REMARK                            x       y       z     vdW  Elec       q    Type
REMARK                         _______ _______ _______ _____ _____    ______ ____
ROOT
ATOM      1  O   LIG    1       26.309 -29.326   9.559  0.00  0.00    -0.283 OA
ATOM      2  C   LIG    1       25.774 -29.281   8.450  0.00  0.00    +0.228 C 
ATOM      3  C   LIG    1       25.893 -28.033   7.653  0.00  0.00    +0.171 C 
ATOM      4  C   LIG    1       25.308 -27.865   6.453  0.00  0.00    +0.048 C 
ATOM      5  C   LIG    1       24.436 -28.983   5.941  0.00  0.00    +0.194 C 
ATOM      6  O   LIG    1       23.721 -28.842   4.952  0.00  0.00    -0.287 OA
ATOM      7  C   LIG    1       24.417 -30.277   6.656  0.00  0.00    +0.033 A 
ATOM      8  C   LIG    1       23.739 -31.377   6.112  0.00  0.00    +0.012 A 
ATOM      9  C   LIG    1       23.701 -32.592   6.803  0.00  0.00    +0.001 A 
ATOM     10  C   LIG    1       24.328 -32.712   8.043  0.00  0.00    +0.001 A 
ATOM     11  C   LIG    1       25.005 -31.623   8.586  0.00  0.00    +0.012 A 
ATOM     12  C   LIG    1       25.051 -30.412   7.883  0.00  0.00    +0.036 A 
ENDROOT
BRANCH   4  13
ATOM     13  C   LIG    1       25.325 -26.603   5.574  0.00  0.00    +0.026 C 
ATOM     14  C   LIG    1       23.987 -25.867   5.330  0.00  0.00    +0.009 C 
ATOM     15  C   LIG    1       23.548 -24.902   6.447  0.00  0.00    +0.009 C 
ATOM     16  C   LIG    1       24.648 -23.949   6.951  0.00  0.00    +0.019 C 
ATOM     17  C   LIG    1       25.936 -24.749   7.226  0.00  0.00    +0.009 C 
ATOM     18  C   LIG    1       26.380 -25.563   6.014  0.00  0.00    +0.009 C 
BRANCH  16  19
ATOM     19  C   LIG    1       24.889 -22.700   6.103  0.00  0.00    -0.044 A 
ATOM     20  C   LIG    1       25.828 -21.747   6.540  0.00  0.00    +0.005 A 
ATOM     21  C   LIG    1       26.061 -20.574   5.814  0.00  0.00    +0.020 A 
ATOM     22  C   LIG    1       25.347 -20.332   4.646  0.00  0.00    +0.041 A 
ATOM     23 CL   LIG    1       25.619 -18.888   3.753  0.00  0.00    -0.084 Cl
ATOM     24  C   LIG    1       24.404 -21.250   4.201  0.00  0.00    +0.020 A 
ATOM     25  C   LIG    1       24.176 -22.421   4.928  0.00  0.00    +0.005 A 
ENDBRANCH  16  19
ENDBRANCH   4  13
BRANCH   3  26
ATOM     26  O   LIG    1       26.643 -27.053   8.272  0.00  0.00    -0.503 OA
ATOM     27  H   LIG    1       26.665 -26.298   7.644  0.00  0.00    +0.292 HD
ENDBRANCH   3  26
TORSDOF 3
ENDMDL
MODEL 7
REMARK VINA RESULT:      -7.4      5.114      8.159
REMARK  Name = *****
REMARK                            x       y       z     vdW  Elec       q    Type
REMARK                         _______ _______ _______ _____ _____    ______ ____
ROOT
ATOM      1  O   LIG    1       24.022 -22.427   3.570  0.00  0.00    -0.283 OA
ATOM      2  C   LIG    1       24.656 -22.543   4.619  0.00  0.00    +0.228 C 
ATOM      3  C   LIG    1       25.234 -21.323   5.240  0.00  0.00    +0.171 C 
ATOM      4  C   LIG    1       25.982 -21.347   6.358  0.00  0.00    +0.048 C 
ATOM      5  C   LIG    1       26.295 -22.695   6.957  0.00  0.00    +0.194 C 
ATOM      6  O   LIG    1       27.116 -22.823   7.862  0.00  0.00    -0.287 OA
ATOM      7  C   LIG    1       25.618 -23.900   6.432  0.00  0.00    +0.033 A 
ATOM      8  C   LIG    1       25.774 -25.136   7.075  0.00  0.00    +0.012 A 
ATOM      9  C   LIG    1       25.153 -26.279   6.560  0.00  0.00    +0.001 A 
ATOM     10  C   LIG    1       24.386 -26.197   5.398  0.00  0.00    +0.001 A 
ATOM     11  C   LIG    1       24.227 -24.970   4.758  0.00  0.00    +0.012 A 
ATOM     12  C   LIG    1       24.840 -23.826   5.285  0.00  0.00    +0.036 A 
ENDROOT
BRANCH   4  13
ATOM     13  C   LIG    1       26.666 -20.156   7.050  0.00  0.00    +0.026 C 
ATOM     14  C   LIG    1       27.119 -20.330   8.518  0.00  0.00    +0.009 C 
ATOM     15  C   LIG    1       28.475 -21.034   8.716  0.00  0.00    +0.009 C 
ATOM     16  C   LIG    1       29.613 -20.512   7.818  0.00  0.00    +0.019 C 
ATOM     17  C   LIG    1       29.116 -20.413   6.363  0.00  0.00    +0.009 C 
ATOM     18  C   LIG    1       27.848 -19.574   6.241  0.00  0.00    +0.009 C 
BRANCH  16  19
ATOM     19  C   LIG    1       30.315 -19.242   8.298  0.00  0.00    -0.044 A 
ATOM     20  C   LIG    1       31.623 -18.974   7.856  0.00  0.00    +0.005 A 
ATOM     21  C   LIG    1       32.317 -17.840   8.292  0.00  0.00    +0.020 A 
ATOM     22  C   LIG    1       31.715 -16.965   9.189  0.00  0.00    +0.041 A 
ATOM     23 CL   LIG    1       32.564 -15.575   9.739  0.00  0.00    -0.084 Cl
ATOM     24  C   LIG    1       30.430 -17.215   9.653  0.00  0.00    +0.020 A 
ATOM     25  C   LIG    1       29.739 -18.347   9.213  0.00  0.00    +0.005 A 
ENDBRANCH  16  19
ENDBRANCH   4  13
BRANCH   3  26
ATOM     26  O   LIG    1       24.951 -20.164   4.545  0.00  0.00    -0.503 OA
ATOM     27  H   LIG    1       24.247 -20.405   3.902  0.00  0.00    +0.292 HD
ENDBRANCH   3  26
TORSDOF 3
ENDMDL
MODEL 8
REMARK VINA RESULT:      -6.7      2.957      4.290
REMARK  Name = *****
REMARK                            x       y       z     vdW  Elec       q    Type
REMARK                         _______ _______ _______ _____ _____    ______ ____
ROOT
ATOM      1  O   LIG    1       22.918 -21.644   7.747  0.00  0.00    -0.283 OA
ATOM      2  C   LIG    1       23.834 -22.357   7.335  0.00  0.00    +0.228 C 
ATOM      3  C   LIG    1       23.492 -23.630   6.650  0.00  0.00    +0.171 C 
ATOM      4  C   LIG    1       24.416 -24.500   6.205  0.00  0.00    +0.048 C 
ATOM      5  C   LIG    1       25.863 -24.184   6.488  0.00  0.00    +0.194 C 
ATOM      6  O   LIG    1       26.754 -25.005   6.284  0.00  0.00    -0.287 OA
ATOM      7  C   LIG    1       26.224 -22.863   7.044  0.00  0.00    +0.033 A 
ATOM      8  C   LIG    1       27.570 -22.490   7.167  0.00  0.00    +0.012 A 
ATOM      9  C   LIG    1       27.908 -21.250   7.718  0.00  0.00    +0.001 A 
ATOM     10  C   LIG    1       26.909 -20.384   8.161  0.00  0.00    +0.001 A 
ATOM     11  C   LIG    1       25.571 -20.750   8.039  0.00  0.00    +0.012 A 
ATOM     12  C   LIG    1       25.237 -21.987   7.474  0.00  0.00    +0.036 A 
ENDROOT
BRANCH   4  13
ATOM     13  C   LIG    1       24.171 -25.862   5.533  0.00  0.00    +0.026 C 
ATOM     14  C   LIG    1       25.306 -26.464   4.672  0.00  0.00    +0.009 C 
ATOM     15  C   LIG    1       26.403 -27.213   5.452  0.00  0.00    +0.009 C 
ATOM     16  C   LIG    1       25.884 -28.212   6.504  0.00  0.00    +0.019 C 
ATOM     17  C   LIG    1       24.797 -27.536   7.362  0.00  0.00    +0.009 C 
ATOM     18  C   LIG    1       23.673 -26.949   6.513  0.00  0.00    +0.009 C 
BRANCH  16  19
ATOM     19  C   LIG    1       25.463 -29.582   5.975  0.00  0.00    -0.044 A 
ATOM     20  C   LIG    1       24.386 -30.250   6.585  0.00  0.00    +0.005 A 
ATOM     21  C   LIG    1       23.984 -31.519   6.156  0.00  0.00    +0.020 A 
ATOM     22  C   LIG    1       24.663 -32.144   5.117  0.00  0.00    +0.041 A 
ATOM     23 CL   LIG    1       24.182 -33.708   4.589  0.00  0.00    -0.084 Cl
ATOM     24  C   LIG    1       25.740 -31.512   4.507  0.00  0.00    +0.020 A 
ATOM     25  C   LIG    1       26.137 -30.244   4.937  0.00  0.00    +0.005 A 
ENDBRANCH  16  19
ENDBRANCH   4  13
BRANCH   3  26
ATOM     26  O   LIG    1       22.133 -23.846   6.535  0.00  0.00    -0.503 OA
ATOM     27  H   LIG    1       21.715 -22.961   6.627  0.00  0.00    +0.292 HD
ENDBRANCH   3  26
TORSDOF 3
ENDMDL
