MODEL 1
REMARK VINA RESULT:      -4.7      0.000      0.000
REMARK  Name = *****
REMARK                            x       y       z     vdW  Elec       q    Type
REMARK                         _______ _______ _______ _____ _____    ______ ____
ROOT
ATOM      1  C   LIG    1       24.579 -32.400   9.215  0.00  0.00    +0.015 C 
ATOM      2  C   LIG    1       24.784 -31.577  11.024  0.00  0.00    +0.053 C 
ATOM      3  C   LIG    1       25.894 -30.692  11.707  0.00  0.00    +0.137 C 
ATOM      4  O   LIG    1       27.007 -30.446  11.253  0.00  0.00    -0.297 OA
ATOM      5  C   LIG    1       25.673 -30.471  13.151  0.00  0.00    +0.078 C 
ATOM      6  C   LIG    1       24.289 -31.033  13.271  0.00  0.00    +0.002 C 
ATOM      7  C   LIG    1       23.335 -29.802  12.487  0.00  0.00    +0.005 C 
ATOM      8  C   LIG    1       22.993 -29.911  10.873  0.00  0.00    +0.004 C 
ATOM      9  C   LIG    1       23.047 -31.357   9.873  0.00  0.00    -0.004 C 
ATOM     10  C   LIG    1       23.823 -33.178  10.789  0.00  0.00    -0.001 C 
ATOM     11  C   LIG    1       25.657 -33.734  10.227  0.00  0.00    +0.005 C 
ATOM     12  C   LIG    1       26.692 -32.459   9.148  0.00  0.00    +0.010 C 
ATOM     13  C   LIG    1       25.852 -31.086   8.041  0.00  0.00    -0.003 C 
ATOM     14  C   LIG    1       25.934 -31.603   6.588  0.00  0.00    +0.014 C 
ATOM     15  C   LIG    1       26.088 -29.626   8.618  0.00  0.00    +0.121 C 
ATOM     16  C   LIG    1       25.524 -28.695   7.601  0.00  0.00    +0.032 C 
ATOM     17  C   LIG    1       24.096 -29.287   7.388  0.00  0.00    +0.007 C 
ATOM     18  C   LIG    1       23.924 -30.721   8.175  0.00  0.00    +0.001 C 
ATOM     19  C   LIG    1       24.126 -32.694  12.594  0.00  0.00    -0.025 C 
ATOM     20  C   LIG    1       24.628 -33.825  13.410  0.00  0.00    +0.012 C 
ATOM     21  C   LIG    1       23.070 -32.104  11.956  0.00  0.00    +0.018 C 
ENDROOT
BRANCH  15  22
ATOM     22  O   LIG    1       27.332 -29.249   9.125  0.00  0.00    -0.391 OA
ATOM     23  H   LIG    1       27.941 -29.989   8.876  0.00  0.00    +0.210 HD
ENDBRANCH  15  22
TORSDOF 1
ENDMDL
MODEL 2
REMARK VINA RESULT:      -4.7      2.299      4.556
REMARK  Name = *****
REMARK                            x       y       z     vdW  Elec       q    Type
REMARK                         _______ _______ _______ _____ _____    ______ ____
ROOT
ATOM      1  C   LIG    1       25.085 -28.760  11.337  0.00  0.00    +0.015 C 
ATOM      2  C   LIG    1       26.242 -29.354  12.853  0.00  0.00    +0.053 C 
ATOM      3  C   LIG    1       26.402 -30.705  13.646  0.00  0.00    +0.137 C 
ATOM      4  O   LIG    1       25.672 -31.688  13.561  0.00  0.00    -0.297 OA
ATOM      5  C   LIG    1       27.284 -30.601  14.827  0.00  0.00    +0.078 C 
ATOM      6  C   LIG    1       27.840 -29.230  14.591  0.00  0.00    +0.002 C 
ATOM      7  C   LIG    1       28.926 -29.511  13.255  0.00  0.00    +0.005 C 
ATOM      8  C   LIG    1       28.403 -29.319  11.698  0.00  0.00    +0.004 C 
ATOM      9  C   LIG    1       27.009 -28.396  11.154  0.00  0.00    -0.004 C 
ATOM     10  C   LIG    1       25.704 -27.558  12.689  0.00  0.00    -0.001 C 
ATOM     11  C   LIG    1       23.947 -28.473  12.946  0.00  0.00    +0.005 C 
ATOM     12  C   LIG    1       23.682 -30.187  12.022  0.00  0.00    +0.010 C 
ATOM     13  C   LIG    1       24.655 -30.673  10.399  0.00  0.00    -0.003 C 
ATOM     14  C   LIG    1       23.664 -30.471   9.233  0.00  0.00    +0.014 C 
ATOM     15  C   LIG    1       25.701 -31.840  10.657  0.00  0.00    +0.121 C 
ATOM     16  C   LIG    1       26.247 -32.194   9.317  0.00  0.00    +0.032 C 
ATOM     17  C   LIG    1       26.674 -30.796   8.770  0.00  0.00    +0.007 C 
ATOM     18  C   LIG    1       26.168 -29.589   9.766  0.00  0.00    +0.001 C 
ATOM     19  C   LIG    1       26.576 -27.978  14.315  0.00  0.00    -0.025 C 
ATOM     20  C   LIG    1       25.855 -27.453  15.500  0.00  0.00    +0.012 C 
ATOM     21  C   LIG    1       27.366 -27.718  13.230  0.00  0.00    +0.018 C 
ENDROOT
BRANCH  15  22
ATOM     22  O   LIG    1       25.371 -32.934  11.458  0.00  0.00    -0.391 OA
ATOM     23  H   LIG    1       24.625 -33.380  10.982  0.00  0.00    +0.210 HD
ENDBRANCH  15  22
TORSDOF 1
ENDMDL
MODEL 3
REMARK VINA RESULT:      -4.7      2.267      5.186
REMARK  Name = *****
REMARK                            x       y       z     vdW  Elec       q    Type
REMARK                         _______ _______ _______ _____ _____    ______ ____
ROOT
ATOM      1  C   LIG    1       25.423 -32.033   9.992  0.00  0.00    +0.015 C 
ATOM      2  C   LIG    1       24.744 -32.040   8.113  0.00  0.00    +0.053 C 
ATOM      3  C   LIG    1       23.449 -32.605   7.417  0.00  0.00    +0.137 C 
ATOM      4  O   LIG    1       22.611 -33.341   7.930  0.00  0.00    -0.297 OA
ATOM      5  C   LIG    1       23.480 -32.517   5.942  0.00  0.00    +0.078 C 
ATOM      6  C   LIG    1       24.705 -31.671   5.777  0.00  0.00    +0.002 C 
ATOM      7  C   LIG    1       24.134 -30.108   6.300  0.00  0.00    +0.005 C 
ATOM      8  C   LIG    1       24.301 -29.641   7.877  0.00  0.00    +0.004 C 
ATOM      9  C   LIG    1       25.418 -30.298   9.065  0.00  0.00    -0.004 C 
ATOM     10  C   LIG    1       26.590 -32.043   8.477  0.00  0.00    -0.001 C 
ATOM     11  C   LIG    1       26.030 -33.788   9.270  0.00  0.00    +0.005 C 
ATOM     12  C   LIG    1       24.329 -33.825  10.253  0.00  0.00    +0.010 C 
ATOM     13  C   LIG    1       23.555 -32.235  11.084  0.00  0.00    -0.003 C 
ATOM     14  C   LIG    1       23.846 -32.361  12.595  0.00  0.00    +0.014 C 
ATOM     15  C   LIG    1       22.241 -31.750  10.336  0.00  0.00    +0.121 C 
ATOM     16  C   LIG    1       21.694 -30.638  11.163  0.00  0.00    +0.032 C 
ATOM     17  C   LIG    1       22.947 -29.722  11.328  0.00  0.00    +0.007 C 
ATOM     18  C   LIG    1       24.296 -30.449  10.731  0.00  0.00    +0.001 C 
ATOM     19  C   LIG    1       26.142 -32.308   6.658  0.00  0.00    -0.025 C 
ATOM     20  C   LIG    1       26.876 -33.444   6.051  0.00  0.00    +0.012 C 
ATOM     21  C   LIG    1       26.173 -31.019   7.114  0.00  0.00    +0.018 C 
ENDROOT
BRANCH  15  22
ATOM     22  O   LIG    1       21.287 -32.669   9.895  0.00  0.00    -0.391 OA
ATOM     23  H   LIG    1       20.416 -32.265  10.137  0.00  0.00    +0.210 HD
ENDBRANCH  15  22
TORSDOF 1
ENDMDL
MODEL 4
REMARK VINA RESULT:      -4.7      1.293      4.842
REMARK  Name = *****
REMARK                            x       y       z     vdW  Elec       q    Type
REMARK                         _______ _______ _______ _____ _____    ______ ____
ROOT
ATOM      1  C   LIG    1       24.091 -29.677   9.437  0.00  0.00    +0.015 C 
ATOM      2  C   LIG    1       25.183 -31.175   8.694  0.00  0.00    +0.053 C 
ATOM      3  C   LIG    1       26.561 -31.829   9.088  0.00  0.00    +0.137 C 
ATOM      4  O   LIG    1       27.358 -31.399   9.917  0.00  0.00    -0.297 OA
ATOM      5  C   LIG    1       27.053 -32.818   8.107  0.00  0.00    +0.078 C 
ATOM      6  C   LIG    1       25.834 -32.926   7.243  0.00  0.00    +0.002 C 
ATOM      7  C   LIG    1       24.746 -33.825   8.268  0.00  0.00    +0.005 C 
ATOM      8  C   LIG    1       23.691 -33.034   9.265  0.00  0.00    +0.004 C 
ATOM      9  C   LIG    1       23.141 -31.370   9.121  0.00  0.00    -0.004 C 
ATOM     10  C   LIG    1       24.076 -30.138   7.581  0.00  0.00    -0.001 C 
ATOM     11  C   LIG    1       25.382 -28.770   8.222  0.00  0.00    +0.005 C 
ATOM     12  C   LIG    1       25.919 -28.854  10.110  0.00  0.00    +0.010 C 
ATOM     13  C   LIG    1       24.798 -29.659  11.493  0.00  0.00    -0.003 C 
ATOM     14  C   LIG    1       24.152 -28.482  12.255  0.00  0.00    +0.014 C 
ATOM     15  C   LIG    1       25.410 -31.017  12.043  0.00  0.00    +0.121 C 
ATOM     16  C   LIG    1       24.533 -31.425  13.176  0.00  0.00    +0.032 C 
ATOM     17  C   LIG    1       23.118 -31.353  12.520  0.00  0.00    +0.007 C 
ATOM     18  C   LIG    1       23.193 -30.691  11.016  0.00  0.00    +0.001 C 
ATOM     19  C   LIG    1       25.220 -31.334   6.665  0.00  0.00    -0.025 C 
ATOM     20  C   LIG    1       25.932 -30.688   5.536  0.00  0.00    +0.012 C 
ATOM     21  C   LIG    1       24.050 -31.841   7.159  0.00  0.00    +0.018 C 
ENDROOT
BRANCH  15  22
ATOM     22  O   LIG    1       26.778 -31.135  12.296  0.00  0.00    -0.391 OA
ATOM     23  H   LIG    1       26.842 -31.287  13.272  0.00  0.00    +0.210 HD
ENDBRANCH  15  22
TORSDOF 1
ENDMDL
MODEL 5
REMARK VINA RESULT:      -4.6      1.614      4.286
REMARK  Name = *****
REMARK                            x       y       z     vdW  Elec       q    Type
REMARK                         _______ _______ _______ _____ _____    ______ ____
ROOT
ATOM      1  C   LIG    1       24.691 -29.293  10.343  0.00  0.00    +0.015 C 
ATOM      2  C   LIG    1       25.205 -31.156   9.838  0.00  0.00    +0.053 C 
ATOM      3  C   LIG    1       26.577 -31.880   9.566  0.00  0.00    +0.137 C 
ATOM      4  O   LIG    1       27.676 -31.340   9.466  0.00  0.00    -0.297 OA
ATOM      5  C   LIG    1       26.432 -33.252   9.038  0.00  0.00    +0.078 C 
ATOM      6  C   LIG    1       24.956 -33.427   9.226  0.00  0.00    +0.002 C 
ATOM      7  C   LIG    1       24.835 -33.606  10.957  0.00  0.00    +0.005 C 
ATOM      8  C   LIG    1       24.570 -32.286  11.918  0.00  0.00    +0.004 C 
ATOM      9  C   LIG    1       23.907 -30.734  11.428  0.00  0.00    -0.004 C 
ATOM     10  C   LIG    1       23.559 -30.423   9.296  0.00  0.00    -0.001 C 
ATOM     11  C   LIG    1       24.851 -29.223   8.359  0.00  0.00    +0.005 C 
ATOM     12  C   LIG    1       26.456 -28.679   9.352  0.00  0.00    +0.010 C 
ATOM     13  C   LIG    1       26.524 -28.628  11.304  0.00  0.00    -0.003 C 
ATOM     14  C   LIG    1       26.397 -27.140  11.695  0.00  0.00    +0.014 C 
ATOM     15  C   LIG    1       27.463 -29.762  11.899  0.00  0.00    +0.121 C 
ATOM     16  C   LIG    1       27.528 -29.503  13.365  0.00  0.00    +0.032 C 
ATOM     17  C   LIG    1       26.015 -29.394  13.733  0.00  0.00    +0.007 C 
ATOM     18  C   LIG    1       25.074 -29.400  12.385  0.00  0.00    +0.001 C 
ATOM     19  C   LIG    1       23.977 -32.093   8.512  0.00  0.00    -0.025 C 
ATOM     20  C   LIG    1       23.766 -32.103   7.044  0.00  0.00    +0.012 C 
ATOM     21  C   LIG    1       23.426 -32.110   9.763  0.00  0.00    +0.018 C 
ENDROOT
BRANCH  15  22
ATOM     22  O   LIG    1       28.692 -30.058  11.307  0.00  0.00    -0.391 OA
ATOM     23  H   LIG    1       29.366 -29.826  11.994  0.00  0.00    +0.210 HD
ENDBRANCH  15  22
TORSDOF 1
ENDMDL
MODEL 6
REMARK VINA RESULT:      -4.6      1.924      4.890
REMARK  Name = *****
REMARK                            x       y       z     vdW  Elec       q    Type
REMARK                         _______ _______ _______ _____ _____    ______ ____
ROOT
ATOM      1  C   LIG    1       25.435 -31.440  11.799  0.00  0.00    +0.015 C 
ATOM      2  C   LIG    1       25.070 -30.737   9.965  0.00  0.00    +0.053 C 
ATOM      3  C   LIG    1       23.783 -30.205   9.229  0.00  0.00    +0.137 C 
ATOM      4  O   LIG    1       22.630 -30.270   9.646  0.00  0.00    -0.297 OA
ATOM      5  C   LIG    1       23.981 -29.956   7.787  0.00  0.00    +0.078 C 
ATOM      6  C   LIG    1       25.470 -30.114   7.719  0.00  0.00    +0.002 C 
ATOM      7  C   LIG    1       26.020 -28.654   8.498  0.00  0.00    +0.005 C 
ATOM      8  C   LIG    1       26.325 -28.637  10.123  0.00  0.00    +0.004 C 
ATOM      9  C   LIG    1       26.640 -30.024  11.157  0.00  0.00    -0.004 C 
ATOM     10  C   LIG    1       26.428 -32.005  10.266  0.00  0.00    -0.001 C 
ATOM     11  C   LIG    1       24.802 -33.037  10.791  0.00  0.00    +0.005 C 
ATOM     12  C   LIG    1       23.419 -32.082  11.809  0.00  0.00    +0.010 C 
ATOM     13  C   LIG    1       23.810 -30.511  12.904  0.00  0.00    -0.003 C 
ATOM     14  C   LIG    1       23.825 -31.006  14.367  0.00  0.00    +0.014 C 
ATOM     15  C   LIG    1       23.199 -29.183  12.284  0.00  0.00    +0.121 C 
ATOM     16  C   LIG    1       23.449 -28.115  13.292  0.00  0.00    +0.032 C 
ATOM     17  C   LIG    1       24.978 -28.285  13.559  0.00  0.00    +0.007 C 
ATOM     18  C   LIG    1       25.565 -29.629  12.814  0.00  0.00    +0.001 C 
ATOM     19  C   LIG    1       26.063 -31.653   8.442  0.00  0.00    -0.025 C 
ATOM     20  C   LIG    1       25.921 -32.892   7.641  0.00  0.00    +0.012 C 
ATOM     21  C   LIG    1       26.893 -30.783   9.094  0.00  0.00    +0.018 C 
ENDROOT
BRANCH  15  22
ATOM     22  O   LIG    1       21.916 -29.174  11.734  0.00  0.00    -0.391 OA
ATOM     23  H   LIG    1       21.947 -29.849  11.010  0.00  0.00    +0.210 HD
ENDBRANCH  15  22
TORSDOF 1
ENDMDL
MODEL 7
REMARK VINA RESULT:      -4.6      3.194      6.055
REMARK  Name = *****
REMARK                            x       y       z     vdW  Elec       q    Type
REMARK                         _______ _______ _______ _____ _____    ______ ____
ROOT
ATOM      1  C   LIG    1       25.278 -27.311  14.821  0.00  0.00    +0.015 C 
ATOM      2  C   LIG    1       24.382 -28.502  13.491  0.00  0.00    +0.053 C 
ATOM      3  C   LIG    1       24.710 -28.937  12.013  0.00  0.00    +0.137 C 
ATOM      4  O   LIG    1       25.584 -28.463  11.293  0.00  0.00    -0.297 OA
ATOM      5  C   LIG    1       23.630 -29.712  11.368  0.00  0.00    +0.078 C 
ATOM      6  C   LIG    1       22.753 -29.942  12.561  0.00  0.00    +0.002 C 
ATOM      7  C   LIG    1       23.671 -31.126  13.456  0.00  0.00    +0.005 C 
ATOM      8  C   LIG    1       24.742 -30.647  14.620  0.00  0.00    +0.004 C 
ATOM      9  C   LIG    1       24.776 -29.102  15.459  0.00  0.00    -0.004 C 
ATOM     10  C   LIG    1       23.384 -27.565  14.782  0.00  0.00    -0.001 C 
ATOM     11  C   LIG    1       24.174 -26.063  13.730  0.00  0.00    +0.005 C 
ATOM     12  C   LIG    1       26.044 -26.251  13.158  0.00  0.00    +0.010 C 
ATOM     13  C   LIG    1       27.327 -27.387  14.098  0.00  0.00    -0.003 C 
ATOM     14  C   LIG    1       28.209 -26.433  14.931  0.00  0.00    +0.014 C 
ATOM     15  C   LIG    1       27.730 -28.665  13.245  0.00  0.00    +0.121 C 
ATOM     16  C   LIG    1       28.808 -29.342  14.019  0.00  0.00    +0.032 C 
ATOM     17  C   LIG    1       28.158 -29.454  15.434  0.00  0.00    +0.007 C 
ATOM     18  C   LIG    1       26.734 -28.632  15.500  0.00  0.00    +0.001 C 
ATOM     19  C   LIG    1       22.348 -28.433  13.457  0.00  0.00    -0.025 C 
ATOM     20  C   LIG    1       21.299 -27.554  12.888  0.00  0.00    +0.012 C 
ATOM     21  C   LIG    1       22.780 -29.191  14.510  0.00  0.00    +0.018 C 
ENDROOT
BRANCH  15  22
ATOM     22  O   LIG    1       27.975 -28.563  11.875  0.00  0.00    -0.391 OA
ATOM     23  H   LIG    1       27.602 -29.395  11.489  0.00  0.00    +0.210 HD
ENDBRANCH  15  22
TORSDOF 1
ENDMDL
MODEL 8
REMARK VINA RESULT:      -4.5      1.927      4.109
REMARK  Name = *****
REMARK                            x       y       z     vdW  Elec       q    Type
REMARK                         _______ _______ _______ _____ _____    ______ ____
ROOT
ATOM      1  C   LIG    1       24.735 -29.469  10.564  0.00  0.00    +0.015 C 
ATOM      2  C   LIG    1       24.078 -31.318  10.941  0.00  0.00    +0.053 C 
ATOM      3  C   LIG    1       24.713 -32.591  11.618  0.00  0.00    +0.137 C 
ATOM      4  O   LIG    1       25.890 -32.733  11.936  0.00  0.00    -0.297 OA
ATOM      5  C   LIG    1       23.878 -33.804  11.505  0.00  0.00    +0.078 C 
ATOM      6  C   LIG    1       22.626 -33.184  10.963  0.00  0.00    +0.002 C 
ATOM      7  C   LIG    1       22.005 -32.351  12.364  0.00  0.00    +0.005 C 
ATOM      8  C   LIG    1       22.398 -30.769  12.639  0.00  0.00    +0.004 C 
ATOM      9  C   LIG    1       22.991 -29.604  11.463  0.00  0.00    -0.004 C 
ATOM     10  C   LIG    1       23.442 -30.346   9.461  0.00  0.00    -0.001 C 
ATOM     11  C   LIG    1       25.378 -30.532   9.007  0.00  0.00    +0.005 C 
ATOM     12  C   LIG    1       26.670 -30.318  10.471  0.00  0.00    +0.010 C 
ATOM     13  C   LIG    1       26.279 -29.284  12.083  0.00  0.00    -0.003 C 
ATOM     14  C   LIG    1       27.017 -27.939  11.914  0.00  0.00    +0.014 C 
ATOM     15  C   LIG    1       26.127 -30.210  13.364  0.00  0.00    +0.121 C 
ATOM     16  C   LIG    1       25.981 -29.279  14.518  0.00  0.00    +0.032 C 
ATOM     17  C   LIG    1       24.835 -28.341  14.025  0.00  0.00    +0.007 C 
ATOM     18  C   LIG    1       24.458 -28.642  12.452  0.00  0.00    +0.001 C 
ATOM     19  C   LIG    1       22.902 -32.159   9.508  0.00  0.00    -0.025 C 
ATOM     20  C   LIG    1       23.095 -32.844   8.207  0.00  0.00    +0.012 C 
ATOM     21  C   LIG    1       22.179 -31.271  10.254  0.00  0.00    +0.018 C 
ENDROOT
BRANCH  15  22
ATOM     22  O   LIG    1       26.999 -31.276  13.585  0.00  0.00    -0.391 OA
ATOM     23  H   LIG    1       26.653 -31.722  14.399  0.00  0.00    +0.210 HD
ENDBRANCH  15  22
TORSDOF 1
ENDMDL
MODEL 9
REMARK VINA RESULT:      -4.5      3.845      6.228
REMARK  Name = *****
REMARK                            x       y       z     vdW  Elec       q    Type
REMARK                         _______ _______ _______ _____ _____    ______ ____
ROOT
ATOM      1  C   LIG    1       24.326 -28.778  15.313  0.00  0.00    +0.015 C 
ATOM      2  C   LIG    1       25.467 -28.299  13.745  0.00  0.00    +0.053 C 
ATOM      3  C   LIG    1       25.392 -28.601  12.201  0.00  0.00    +0.137 C 
ATOM      4  O   LIG    1       24.622 -29.383  11.650  0.00  0.00    -0.297 OA
ATOM      5  C   LIG    1       26.590 -28.171  11.451  0.00  0.00    +0.078 C 
ATOM      6  C   LIG    1       27.279 -27.390  12.528  0.00  0.00    +0.002 C 
ATOM      7  C   LIG    1       26.284 -25.961  12.624  0.00  0.00    +0.005 C 
ATOM      8  C   LIG    1       25.025 -25.889  13.694  0.00  0.00    +0.004 C 
ATOM      9  C   LIG    1       24.797 -26.876  15.130  0.00  0.00    -0.004 C 
ATOM     10  C   LIG    1       26.212 -28.504  15.460  0.00  0.00    -0.001 C 
ATOM     11  C   LIG    1       25.534 -30.347  15.104  0.00  0.00    +0.005 C 
ATOM     12  C   LIG    1       23.784 -30.508  14.223  0.00  0.00    +0.010 C 
ATOM     13  C   LIG    1       22.420 -29.112  14.323  0.00  0.00    -0.003 C 
ATOM     14  C   LIG    1       21.380 -29.608  15.350  0.00  0.00    +0.014 C 
ATOM     15  C   LIG    1       22.208 -28.383  12.928  0.00  0.00    +0.121 C 
ATOM     16  C   LIG    1       21.052 -27.464  13.126  0.00  0.00    +0.032 C 
ATOM     17  C   LIG    1       21.478 -26.694  14.415  0.00  0.00    +0.007 C 
ATOM     18  C   LIG    1       22.838 -27.343  15.073  0.00  0.00    +0.001 C 
ATOM     19  C   LIG    1       27.477 -28.305  14.066  0.00  0.00    -0.025 C 
ATOM     20  C   LIG    1       28.565 -29.310  14.137  0.00  0.00    +0.012 C 
ATOM     21  C   LIG    1       26.919 -27.164  14.573  0.00  0.00    +0.018 C 
ENDROOT
BRANCH  15  22
ATOM     22  O   LIG    1       22.175 -29.110  11.738  0.00  0.00    -0.391 OA
ATOM     23  H   LIG    1       22.567 -28.504  11.060  0.00  0.00    +0.210 HD
ENDBRANCH  15  22
TORSDOF 1
ENDMDL
