MODEL 1
REMARK VINA RESULT:     -10.9      0.000      0.000
REMARK  Name = *****
REMARK                            x       y       z     vdW  Elec       q    Type
REMARK                         _______ _______ _______ _____ _____    ______ ____
ROOT
ATOM      1  O   LIG    1       26.061 -20.349   9.809  0.00  0.00    -0.252 OA
ATOM      2  C   LIG    1       26.140 -20.622   8.618  0.00  0.00    +0.312 C 
ATOM      3  N   LIG    1       27.208 -20.466   7.806  0.00  0.00    -0.199 N 
ATOM      4  C   LIG    1       26.863 -20.737   6.508  0.00  0.00    +0.258 C 
ATOM      5  O   LIG    1       27.596 -20.572   5.538  0.00  0.00    -0.272 OA
ATOM      6  C   LIG    1       25.409 -21.311   6.482  0.00  0.00    +0.164 C 
ATOM      7  N   LIG    1       25.086 -21.097   7.883  0.00  0.00    -0.278 N 
ATOM      8  H   LIG    1       24.189 -21.288   8.306  0.00  0.00    +0.152 HD
ENDROOT
BRANCH   6   9
ATOM      9  C   LIG    1       24.499 -20.466   5.571  0.00  0.00    -0.011 A 
ATOM     10  C   LIG    1       23.157 -20.202   5.923  0.00  0.00    +0.006 A 
ATOM     11  C   LIG    1       22.334 -19.413   5.113  0.00  0.00    +0.000 A 
ATOM     12  C   LIG    1       22.831 -18.866   3.935  0.00  0.00    +0.000 A 
ATOM     13  C   LIG    1       24.151 -19.108   3.566  0.00  0.00    +0.000 A 
ATOM     14  C   LIG    1       24.978 -19.891   4.379  0.00  0.00    +0.006 A 
ENDBRANCH   6   9
BRANCH   6  15
ATOM     15  C   LIG    1       25.370 -22.829   6.224  0.00  0.00    -0.011 A 
ATOM     16  C   LIG    1       24.853 -23.380   5.037  0.00  0.00    +0.006 A 
ATOM     17  C   LIG    1       24.877 -24.758   4.809  0.00  0.00    +0.000 A 
ATOM     18  C   LIG    1       25.409 -25.616   5.765  0.00  0.00    +0.000 A 
ATOM     19  C   LIG    1       25.906 -25.099   6.958  0.00  0.00    +0.000 A 
ATOM     20  C   LIG    1       25.884 -23.722   7.188  0.00  0.00    +0.006 A 
ENDBRANCH   6  15
BRANCH   3  21
ATOM     21  C   LIG    1       28.494 -19.979   8.227  0.00  0.00    +0.292 C 
BRANCH  21  22
ATOM     22  O   LIG    1       29.388 -21.071   8.305  0.00  0.00    -0.267 OA
BRANCH  22  23
ATOM     23  P   LIG    1       30.898 -20.736   8.699  0.00  0.00    +0.474 P 
ATOM     24  O   LIG    1       31.705 -21.845   9.277  0.00  0.00    -0.228 OA
BRANCH  23  25
ATOM     25  O   LIG    1       30.844 -19.447   9.637  0.00  0.00    -0.303 OA
ATOM     26  H   LIG    1       31.044 -18.638   9.131  0.00  0.00    +0.222 HD
ENDBRANCH  23  25
BRANCH  23  27
ATOM     27  O   LIG    1       31.557 -20.149   7.370  0.00  0.00    -0.303 OA
ATOM     28  H   LIG    1       32.461 -19.827   7.547  0.00  0.00    +0.222 HD
ENDBRANCH  23  27
ENDBRANCH  22  23
ENDBRANCH  21  22
ENDBRANCH   3  21
TORSDOF 7
ENDMDL
MODEL 2
REMARK VINA RESULT:      -9.9      1.123      4.179
REMARK  Name = *****
REMARK                            x       y       z     vdW  Elec       q    Type
REMARK                         _______ _______ _______ _____ _____    ______ ____
ROOT
ATOM      1  O   LIG    1       28.999 -20.382   5.739  0.00  0.00    -0.252 OA
ATOM      2  C   LIG    1       27.870 -20.553   6.185  0.00  0.00    +0.312 C 
ATOM      3  N   LIG    1       27.406 -20.213   7.407  0.00  0.00    -0.199 N 
ATOM      4  C   LIG    1       26.142 -20.707   7.590  0.00  0.00    +0.258 C 
ATOM      5  O   LIG    1       25.512 -20.650   8.641  0.00  0.00    -0.272 OA
ATOM      6  C   LIG    1       25.637 -21.315   6.240  0.00  0.00    +0.164 C 
ATOM      7  N   LIG    1       26.878 -21.198   5.494  0.00  0.00    -0.278 N 
ATOM      8  H   LIG    1       27.020 -21.532   4.551  0.00  0.00    +0.152 HD
ENDROOT
BRANCH   6   9
ATOM      9  C   LIG    1       25.236 -22.791   6.417  0.00  0.00    -0.011 A 
ATOM     10  C   LIG    1       23.881 -23.185   6.405  0.00  0.00    +0.006 A 
ATOM     11  C   LIG    1       23.512 -24.528   6.538  0.00  0.00    +0.000 A 
ATOM     12  C   LIG    1       24.486 -25.509   6.683  0.00  0.00    +0.000 A 
ATOM     13  C   LIG    1       25.830 -25.148   6.695  0.00  0.00    +0.000 A 
ATOM     14  C   LIG    1       26.202 -23.806   6.554  0.00  0.00    +0.006 A 
ENDBRANCH   6   9
BRANCH   6  15
ATOM     15  C   LIG    1       24.589 -20.428   5.540  0.00  0.00    -0.011 A 
ATOM     16  C   LIG    1       23.312 -20.198   6.083  0.00  0.00    +0.006 A 
ATOM     17  C   LIG    1       22.400 -19.349   5.450  0.00  0.00    +0.000 A 
ATOM     18  C   LIG    1       22.740 -18.721   4.258  0.00  0.00    +0.000 A 
ATOM     19  C   LIG    1       23.989 -18.950   3.688  0.00  0.00    +0.000 A 
ATOM     20  C   LIG    1       24.903 -19.797   4.318  0.00  0.00    +0.006 A 
ENDBRANCH   6  15
BRANCH   3  21
ATOM     21  C   LIG    1       28.172 -19.527   8.412  0.00  0.00    +0.292 C 
BRANCH  21  22
ATOM     22  O   LIG    1       29.373 -20.240   8.632  0.00  0.00    -0.267 OA
BRANCH  22  23
ATOM     23  P   LIG    1       30.734 -19.435   8.422  0.00  0.00    +0.474 P 
ATOM     24  O   LIG    1       31.539 -19.145   9.641  0.00  0.00    -0.228 OA
BRANCH  23  25
ATOM     25  O   LIG    1       30.361 -18.125   7.594  0.00  0.00    -0.303 OA
ATOM     26  H   LIG    1       29.398 -17.972   7.596  0.00  0.00    +0.222 HD
ENDBRANCH  23  25
BRANCH  23  27
ATOM     27  O   LIG    1       31.559 -20.280   7.350  0.00  0.00    -0.303 OA
ATOM     28  H   LIG    1       31.323 -21.226   7.400  0.00  0.00    +0.222 HD
ENDBRANCH  23  27
ENDBRANCH  22  23
ENDBRANCH  21  22
ENDBRANCH   3  21
TORSDOF 7
ENDMDL
