MODEL 1
REMARK VINA RESULT:      -7.0      0.000      0.000
REMARK  Name = *****
REMARK                            x       y       z     vdW  Elec       q    Type
REMARK                         _______ _______ _______ _____ _____    ______ ____
ROOT
ATOM      1  C   LIG    1       25.573 -31.574   6.601  0.00  0.00    -0.000 A 
ATOM      2  C   LIG    1       25.317 -30.705   5.539  0.00  0.00    +0.122 A 
ATOM      3  C   LIG    1       25.257 -29.320   5.733  0.00  0.00    +0.069 A 
ATOM      4  C   LIG    1       25.475 -28.725   6.991  0.00  0.00    +0.041 A 
ATOM      5  C   LIG    1       25.851 -29.529   8.090  0.00  0.00    -0.020 A 
ATOM      6  C   LIG    1       25.861 -30.943   7.845  0.00  0.00    +0.013 A 
ENDROOT
BRANCH   1   8
ATOM      7  C   LIG    1       26.596 -33.670   5.507  0.00  0.00    +0.016 C 
ATOM      8  C   LIG    1       25.504 -33.120   6.460  0.00  0.00    -0.009 C 
ATOM      9  C   LIG    1       25.702 -33.825   7.827  0.00  0.00    +0.016 C 
ATOM     10  C   LIG    1       24.154 -33.615   5.891  0.00  0.00    +0.016 C 
ENDBRANCH   1   8
BRANCH   4  11
ATOM     11  N   LIG    1       25.341 -27.321   7.056  0.00  0.00    -0.281 N 
ATOM     12  H   LIG    1       24.520 -26.939   7.504  0.00  0.00    +0.155 HD
ATOM     13  C   LIG    1       26.159 -26.407   6.400  0.00  0.00    +0.253 C 
ATOM     14  O   LIG    1       27.097 -26.698   5.678  0.00  0.00    -0.270 OA
BRANCH  13  15
ATOM     15  C   LIG    1       25.753 -24.970   6.591  0.00  0.00    +0.100 C 
ATOM     16  C   LIG    1       24.358 -24.463   6.453  0.00  0.00    +0.202 C 
ATOM     17  O   LIG    1       23.436 -25.211   6.140  0.00  0.00    -0.286 OA
ATOM     18  C   LIG    1       24.088 -23.026   6.697  0.00  0.00    +0.046 C 
ATOM     19  C   LIG    1       25.163 -22.184   7.017  0.00  0.00    +0.050 C 
ATOM     20  C   LIG    1       24.918 -20.820   7.197  0.00  0.00    +0.026 C 
ATOM     21  C   LIG    1       23.619 -20.313   7.092  0.00  0.00    +0.002 C 
ATOM     22  C   LIG    1       22.552 -21.165   6.801  0.00  0.00    +0.001 C 
ATOM     23  N   LIG    1       26.457 -22.709   7.084  0.00  0.00    -0.360 NA
ATOM     24  H   LIG    1       27.208 -22.125   7.436  0.00  0.00    +0.165 HD
ATOM     25  C   LIG    1       22.784 -22.524   6.601  0.00  0.00    +0.014 C 
ATOM     26  C   LIG    1       26.687 -24.051   6.899  0.00  0.00    +0.100 C 
ENDBRANCH  13  15
ENDBRANCH   4  11
BRANCH   5  27
ATOM     27  C   LIG    1       26.121 -29.071   9.562  0.00  0.00    -0.011 C 
ATOM     28  C   LIG    1       27.267 -29.891  10.212  0.00  0.00    +0.015 C 
ATOM     29  C   LIG    1       24.854 -29.288  10.427  0.00  0.00    +0.015 C 
ATOM     30  C   LIG    1       26.512 -27.597   9.780  0.00  0.00    +0.015 C 
ENDBRANCH   5  27
BRANCH   2  31
ATOM     31  O   LIG    1       25.115 -31.187   4.275  0.00  0.00    -0.506 OA
ATOM     32  H   LIG    1       25.980 -31.337   3.857  0.00  0.00    +0.292 HD
ENDBRANCH   2  31
TORSDOF 5
ENDMDL
MODEL 2
REMARK VINA RESULT:      -6.3      3.725      5.573
REMARK  Name = *****
REMARK                            x       y       z     vdW  Elec       q    Type
REMARK                         _______ _______ _______ _____ _____    ______ ____
ROOT
ATOM      1  C   LIG    1       25.556 -31.966   5.540  0.00  0.00    -0.000 A 
ATOM      2  C   LIG    1       25.429 -32.476   6.833  0.00  0.00    +0.122 A 
ATOM      3  C   LIG    1       25.371 -31.626   7.944  0.00  0.00    +0.069 A 
ATOM      4  C   LIG    1       25.410 -30.224   7.824  0.00  0.00    +0.041 A 
ATOM      5  C   LIG    1       25.424 -29.631   6.542  0.00  0.00    -0.020 A 
ATOM      6  C   LIG    1       25.520 -30.547   5.440  0.00  0.00    +0.013 A 
ENDROOT
BRANCH   1   8
ATOM      7  C   LIG    1       25.977 -32.048   2.999  0.00  0.00    +0.016 C 
ATOM      8  C   LIG    1       25.771 -32.873   4.295  0.00  0.00    -0.009 C 
ATOM      9  C   LIG    1       27.022 -33.775   4.458  0.00  0.00    +0.016 C 
ATOM     10  C   LIG    1       24.573 -33.811   4.017  0.00  0.00    +0.016 C 
ENDBRANCH   1   8
BRANCH   4  11
ATOM     11  N   LIG    1       25.388 -29.488   9.028  0.00  0.00    -0.281 N 
ATOM     12  H   LIG    1       24.623 -28.845   9.183  0.00  0.00    +0.155 HD
ATOM     13  C   LIG    1       26.424 -29.436   9.955  0.00  0.00    +0.253 C 
ATOM     14  O   LIG    1       27.490 -30.017   9.848  0.00  0.00    -0.270 OA
BRANCH  13  15
ATOM     15  C   LIG    1       26.161 -28.521  11.121  0.00  0.00    +0.100 C 
ATOM     16  C   LIG    1       24.911 -28.528  11.933  0.00  0.00    +0.202 C 
ATOM     17  O   LIG    1       23.983 -29.289  11.668  0.00  0.00    -0.286 OA
ATOM     18  C   LIG    1       24.790 -27.593  13.077  0.00  0.00    +0.046 C 
ATOM     19  C   LIG    1       25.847 -26.708  13.337  0.00  0.00    +0.050 C 
ATOM     20  C   LIG    1       25.714 -25.791  14.383  0.00  0.00    +0.026 C 
ATOM     21  C   LIG    1       24.562 -25.781  15.175  0.00  0.00    +0.002 C 
ATOM     22  C   LIG    1       23.528 -26.686  14.926  0.00  0.00    +0.001 C 
ATOM     23  N   LIG    1       26.975 -26.715  12.510  0.00  0.00    -0.360 NA
ATOM     24  H   LIG    1       27.784 -26.164  12.776  0.00  0.00    +0.165 HD
ATOM     25  C   LIG    1       23.639 -27.593  13.874  0.00  0.00    +0.014 C 
ATOM     26  C   LIG    1       27.092 -27.618  11.480  0.00  0.00    +0.100 C 
ENDBRANCH  13  15
ENDBRANCH   4  11
BRANCH   5  27
ATOM     27  C   LIG    1       25.484 -28.107   6.193  0.00  0.00    -0.011 C 
ATOM     28  C   LIG    1       24.062 -27.500   6.045  0.00  0.00    +0.015 C 
ATOM     29  C   LIG    1       26.215 -27.899   4.843  0.00  0.00    +0.015 C 
ATOM     30  C   LIG    1       26.208 -27.185   7.192  0.00  0.00    +0.015 C 
ENDBRANCH   5  27
BRANCH   2  31
ATOM     31  O   LIG    1       25.360 -33.825   7.049  0.00  0.00    -0.506 OA
ATOM     32  H   LIG    1       24.626 -34.005   7.660  0.00  0.00    +0.292 HD
ENDBRANCH   2  31
TORSDOF 5
ENDMDL
MODEL 3
REMARK VINA RESULT:      -6.1      1.190      2.112
REMARK  Name = *****
REMARK                            x       y       z     vdW  Elec       q    Type
REMARK                         _______ _______ _______ _____ _____    ______ ____
ROOT
ATOM      1  C   LIG    1       25.741 -31.516   6.129  0.00  0.00    -0.000 A 
ATOM      2  C   LIG    1       25.453 -30.600   5.115  0.00  0.00    +0.122 A 
ATOM      3  C   LIG    1       25.277 -29.240   5.396  0.00  0.00    +0.069 A 
ATOM      4  C   LIG    1       25.406 -28.715   6.697  0.00  0.00    +0.041 A 
ATOM      5  C   LIG    1       25.808 -29.560   7.755  0.00  0.00    -0.020 A 
ATOM      6  C   LIG    1       25.938 -30.950   7.420  0.00  0.00    +0.013 A 
ENDROOT
BRANCH   1   8
ATOM      7  C   LIG    1       24.389 -33.668   5.707  0.00  0.00    +0.016 C 
ATOM      8  C   LIG    1       25.799 -33.050   5.885  0.00  0.00    -0.009 C 
ATOM      9  C   LIG    1       26.606 -33.392   4.605  0.00  0.00    +0.016 C 
ATOM     10  C   LIG    1       26.459 -33.822   7.051  0.00  0.00    +0.016 C 
ENDBRANCH   1   8
BRANCH   4  11
ATOM     11  N   LIG    1       25.160 -27.334   6.847  0.00  0.00    -0.281 N 
ATOM     12  H   LIG    1       25.374 -26.903   7.736  0.00  0.00    +0.155 HD
ATOM     13  C   LIG    1       24.480 -26.537   5.931  0.00  0.00    +0.253 C 
ATOM     14  O   LIG    1       24.003 -26.928   4.880  0.00  0.00    -0.270 OA
BRANCH  13  15
ATOM     15  C   LIG    1       24.302 -25.109   6.371  0.00  0.00    +0.100 C 
ATOM     16  C   LIG    1       25.417 -24.208   6.783  0.00  0.00    +0.202 C 
ATOM     17  O   LIG    1       26.579 -24.606   6.813  0.00  0.00    -0.286 OA
ATOM     18  C   LIG    1       25.108 -22.810   7.168  0.00  0.00    +0.046 C 
ATOM     19  C   LIG    1       23.770 -22.391   7.162  0.00  0.00    +0.050 C 
ATOM     20  C   LIG    1       23.472 -21.089   7.573  0.00  0.00    +0.026 C 
ATOM     21  C   LIG    1       24.495 -20.213   7.950  0.00  0.00    +0.002 C 
ATOM     22  C   LIG    1       25.826 -20.632   7.924  0.00  0.00    +0.001 C 
ATOM     23  N   LIG    1       22.763 -23.296   6.813  0.00  0.00    -0.360 NA
ATOM     24  H   LIG    1       21.815 -22.954   6.690  0.00  0.00    +0.165 HD
ATOM     25  C   LIG    1       26.136 -21.933   7.535  0.00  0.00    +0.014 C 
ATOM     26  C   LIG    1       23.067 -24.576   6.416  0.00  0.00    +0.100 C 
ENDBRANCH  13  15
ENDBRANCH   4  11
BRANCH   5  27
ATOM     27  C   LIG    1       25.993 -29.183   9.262  0.00  0.00    -0.011 C 
ATOM     28  C   LIG    1       26.530 -27.736   9.426  0.00  0.00    +0.015 C 
ATOM     29  C   LIG    1       27.022 -30.132   9.926  0.00  0.00    +0.015 C 
ATOM     30  C   LIG    1       24.744 -29.248  10.162  0.00  0.00    +0.015 C 
ENDBRANCH   5  27
BRANCH   2  31
ATOM     31  O   LIG    1       25.330 -31.011   3.816  0.00  0.00    -0.506 OA
ATOM     32  H   LIG    1       26.206 -31.276   3.490  0.00  0.00    +0.292 HD
ENDBRANCH   2  31
TORSDOF 5
ENDMDL
MODEL 4
REMARK VINA RESULT:      -6.1      2.473      8.824
REMARK  Name = *****
REMARK                            x       y       z     vdW  Elec       q    Type
REMARK                         _______ _______ _______ _____ _____    ______ ____
ROOT
ATOM      1  C   LIG    1       24.790 -20.641   4.401  0.00  0.00    -0.000 A 
ATOM      2  C   LIG    1       24.209 -21.818   3.926  0.00  0.00    +0.122 A 
ATOM      3  C   LIG    1       24.346 -23.025   4.623  0.00  0.00    +0.069 A 
ATOM      4  C   LIG    1       25.045 -23.117   5.842  0.00  0.00    +0.041 A 
ATOM      5  C   LIG    1       25.562 -21.948   6.442  0.00  0.00    -0.020 A 
ATOM      6  C   LIG    1       25.427 -20.746   5.669  0.00  0.00    +0.013 A 
ENDROOT
BRANCH   1   8
ATOM      7  C   LIG    1       24.829 -19.564   2.060  0.00  0.00    +0.016 C 
ATOM      8  C   LIG    1       24.787 -19.315   3.589  0.00  0.00    -0.009 C 
ATOM      9  C   LIG    1       23.514 -18.477   3.874  0.00  0.00    +0.016 C 
ATOM     10  C   LIG    1       26.000 -18.410   3.906  0.00  0.00    +0.016 C 
ENDBRANCH   1   8
BRANCH   4  11
ATOM     11  N   LIG    1       25.144 -24.403   6.416  0.00  0.00    -0.281 N 
ATOM     12  H   LIG    1       25.169 -24.477   7.424  0.00  0.00    +0.155 HD
ATOM     13  C   LIG    1       25.388 -25.578   5.713  0.00  0.00    +0.253 C 
ATOM     14  O   LIG    1       25.554 -25.652   4.507  0.00  0.00    -0.270 OA
BRANCH  13  15
ATOM     15  C   LIG    1       25.509 -26.801   6.581  0.00  0.00    +0.100 C 
ATOM     16  C   LIG    1       24.724 -28.054   6.386  0.00  0.00    +0.202 C 
ATOM     17  O   LIG    1       23.888 -28.150   5.491  0.00  0.00    -0.286 OA
ATOM     18  C   LIG    1       24.960 -29.201   7.296  0.00  0.00    +0.046 C 
ATOM     19  C   LIG    1       25.893 -29.055   8.333  0.00  0.00    +0.050 C 
ATOM     20  C   LIG    1       26.080 -30.116   9.223  0.00  0.00    +0.026 C 
ATOM     21  C   LIG    1       25.372 -31.311   9.059  0.00  0.00    +0.002 C 
ATOM     22  C   LIG    1       24.467 -31.455   8.006  0.00  0.00    +0.001 C 
ATOM     23  N   LIG    1       26.563 -27.838   8.495  0.00  0.00    -0.360 NA
ATOM     24  H   LIG    1       27.323 -27.780   9.165  0.00  0.00    +0.165 HD
ATOM     25  C   LIG    1       24.257 -30.399   7.123  0.00  0.00    +0.014 C 
ATOM     26  C   LIG    1       26.368 -26.799   7.617  0.00  0.00    +0.100 C 
ENDBRANCH  13  15
ENDBRANCH   4  11
BRANCH   5  27
ATOM     27  C   LIG    1       26.377 -21.836   7.774  0.00  0.00    -0.011 C 
ATOM     28  C   LIG    1       25.982 -20.568   8.578  0.00  0.00    +0.015 C 
ATOM     29  C   LIG    1       27.891 -21.731   7.464  0.00  0.00    +0.015 C 
ATOM     30  C   LIG    1       26.249 -22.999   8.776  0.00  0.00    +0.015 C 
ENDBRANCH   5  27
BRANCH   2  31
ATOM     31  O   LIG    1       23.492 -21.824   2.762  0.00  0.00    -0.506 OA
ATOM     32  H   LIG    1       22.590 -22.133   2.954  0.00  0.00    +0.292 HD
ENDBRANCH   2  31
TORSDOF 5
ENDMDL
MODEL 5
REMARK VINA RESULT:      -6.0      2.117      9.064
REMARK  Name = *****
REMARK                            x       y       z     vdW  Elec       q    Type
REMARK                         _______ _______ _______ _____ _____    ______ ____
ROOT
ATOM      1  C   LIG    1       22.982 -20.268   5.202  0.00  0.00    -0.000 A 
ATOM      2  C   LIG    1       22.207 -21.424   5.096  0.00  0.00    +0.122 A 
ATOM      3  C   LIG    1       22.661 -22.649   5.598  0.00  0.00    +0.069 A 
ATOM      4  C   LIG    1       23.899 -22.783   6.255  0.00  0.00    +0.041 A 
ATOM      5  C   LIG    1       24.688 -21.638   6.502  0.00  0.00    -0.020 A 
ATOM      6  C   LIG    1       24.194 -20.415   5.934  0.00  0.00    +0.013 A 
ENDROOT
BRANCH   1   8
ATOM      7  C   LIG    1       22.337 -17.801   5.574  0.00  0.00    +0.016 C 
ATOM      8  C   LIG    1       22.584 -18.922   4.533  0.00  0.00    -0.009 C 
ATOM      9  C   LIG    1       23.694 -18.413   3.577  0.00  0.00    +0.016 C 
ATOM     10  C   LIG    1       21.285 -19.024   3.699  0.00  0.00    +0.016 C 
ENDBRANCH   1   8
BRANCH   4  11
ATOM     11  N   LIG    1       24.254 -24.084   6.672  0.00  0.00    -0.281 N 
ATOM     12  H   LIG    1       24.244 -24.289   7.663  0.00  0.00    +0.155 HD
ATOM     13  C   LIG    1       24.789 -25.071   5.851  0.00  0.00    +0.253 C 
ATOM     14  O   LIG    1       25.026 -24.941   4.663  0.00  0.00    -0.270 OA
BRANCH  13  15
ATOM     15  C   LIG    1       25.137 -26.348   6.568  0.00  0.00    +0.100 C 
ATOM     16  C   LIG    1       24.491 -27.665   6.304  0.00  0.00    +0.202 C 
ATOM     17  O   LIG    1       23.590 -27.779   5.476  0.00  0.00    -0.286 OA
ATOM     18  C   LIG    1       24.947 -28.855   7.062  0.00  0.00    +0.046 C 
ATOM     19  C   LIG    1       25.950 -28.693   8.028  0.00  0.00    +0.050 C 
ATOM     20  C   LIG    1       26.346 -29.803   8.779  0.00  0.00    +0.026 C 
ATOM     21  C   LIG    1       25.773 -31.057   8.546  0.00  0.00    +0.002 C 
ATOM     22  C   LIG    1       24.795 -31.213   7.562  0.00  0.00    +0.001 C 
ATOM     23  N   LIG    1       26.484 -27.422   8.266  0.00  0.00    -0.360 NA
ATOM     24  H   LIG    1       27.292 -27.333   8.872  0.00  0.00    +0.165 HD
ATOM     25  C   LIG    1       24.378 -30.111   6.819  0.00  0.00    +0.014 C 
ATOM     26  C   LIG    1       26.084 -26.336   7.524  0.00  0.00    +0.100 C 
ENDBRANCH  13  15
ENDBRANCH   4  11
BRANCH   5  27
ATOM     27  C   LIG    1       26.089 -21.572   7.196  0.00  0.00    -0.011 C 
ATOM     28  C   LIG    1       25.964 -21.193   8.696  0.00  0.00    +0.015 C 
ATOM     29  C   LIG    1       26.967 -20.489   6.520  0.00  0.00    +0.015 C 
ATOM     30  C   LIG    1       26.943 -22.854   7.178  0.00  0.00    +0.015 C 
ENDBRANCH   5  27
BRANCH   2  31
ATOM     31  O   LIG    1       20.980 -21.390   4.493  0.00  0.00    -0.506 OA
ATOM     32  H   LIG    1       20.777 -22.277   4.152  0.00  0.00    +0.292 HD
ENDBRANCH   2  31
TORSDOF 5
ENDMDL
MODEL 6
REMARK VINA RESULT:      -5.9      4.884      8.470
REMARK  Name = *****
REMARK                            x       y       z     vdW  Elec       q    Type
REMARK                         _______ _______ _______ _____ _____    ______ ____
ROOT
ATOM      1  C   LIG    1       25.124 -27.818  13.158  0.00  0.00    -0.000 A 
ATOM      2  C   LIG    1       26.177 -27.599  12.268  0.00  0.00    +0.122 A 
ATOM      3  C   LIG    1       26.370 -28.427  11.156  0.00  0.00    +0.069 A 
ATOM      4  C   LIG    1       25.509 -29.500  10.855  0.00  0.00    +0.041 A 
ATOM      5  C   LIG    1       24.357 -29.714  11.644  0.00  0.00    -0.020 A 
ATOM      6  C   LIG    1       24.227 -28.862  12.792  0.00  0.00    +0.013 A 
ENDROOT
BRANCH   1   8
ATOM      7  C   LIG    1       24.666 -25.518  14.224  0.00  0.00    +0.016 C 
ATOM      8  C   LIG    1       24.958 -27.018  14.480  0.00  0.00    -0.009 C 
ATOM      9  C   LIG    1       23.784 -27.566  15.332  0.00  0.00    +0.016 C 
ATOM     10  C   LIG    1       26.219 -27.061  15.374  0.00  0.00    +0.016 C 
ENDBRANCH   1   8
BRANCH   4  11
ATOM     11  N   LIG    1       25.844 -30.281   9.728  0.00  0.00    -0.281 N 
ATOM     12  H   LIG    1       26.634 -30.907   9.798  0.00  0.00    +0.155 HD
ATOM     13  C   LIG    1       25.288 -30.140   8.461  0.00  0.00    +0.253 C 
ATOM     14  O   LIG    1       24.440 -29.319   8.155  0.00  0.00    -0.270 OA
BRANCH  13  15
ATOM     15  C   LIG    1       25.874 -31.061   7.425  0.00  0.00    +0.100 C 
ATOM     16  C   LIG    1       25.495 -31.058   5.983  0.00  0.00    +0.202 C 
ATOM     17  O   LIG    1       24.635 -30.294   5.552  0.00  0.00    -0.286 OA
ATOM     18  C   LIG    1       26.171 -32.000   5.059  0.00  0.00    +0.046 C 
ATOM     19  C   LIG    1       27.122 -32.888   5.582  0.00  0.00    +0.050 C 
ATOM     20  C   LIG    1       27.723 -33.812   4.723  0.00  0.00    +0.026 C 
ATOM     21  C   LIG    1       27.404 -33.825   3.361  0.00  0.00    +0.002 C 
ATOM     22  C   LIG    1       26.476 -32.917   2.846  0.00  0.00    +0.001 C 
ATOM     23  N   LIG    1       27.400 -32.877   6.953  0.00  0.00    -0.360 NA
ATOM     24  H   LIG    1       28.174 -33.431   7.302  0.00  0.00    +0.165 HD
ATOM     25  C   LIG    1       25.855 -32.003   3.695  0.00  0.00    +0.014 C 
ATOM     26  C   LIG    1       26.799 -31.968   7.790  0.00  0.00    +0.100 C 
ENDBRANCH  13  15
ENDBRANCH   4  11
BRANCH   5  27
ATOM     27  C   LIG    1       23.290 -30.849  11.490  0.00  0.00    -0.011 C 
ATOM     28  C   LIG    1       22.219 -30.484  10.428  0.00  0.00    +0.015 C 
ATOM     29  C   LIG    1       22.549 -31.068  12.833  0.00  0.00    +0.015 C 
ATOM     30  C   LIG    1       23.801 -32.243  11.079  0.00  0.00    +0.015 C 
ENDBRANCH   5  27
BRANCH   2  31
ATOM     31  O   LIG    1       27.053 -26.568  12.463  0.00  0.00    -0.506 OA
ATOM     32  H   LIG    1       27.692 -26.560  11.731  0.00  0.00    +0.292 HD
ENDBRANCH   2  31
TORSDOF 5
ENDMDL
MODEL 7
REMARK VINA RESULT:      -5.6      5.962      7.613
REMARK  Name = *****
REMARK                            x       y       z     vdW  Elec       q    Type
REMARK                         _______ _______ _______ _____ _____    ______ ____
ROOT
ATOM      1  C   LIG    1       20.354 -31.345  10.893  0.00  0.00    -0.000 A 
ATOM      2  C   LIG    1       20.156 -30.387  11.889  0.00  0.00    +0.122 A 
ATOM      3  C   LIG    1       21.210 -29.585  12.341  0.00  0.00    +0.069 A 
ATOM      4  C   LIG    1       22.510 -29.675  11.808  0.00  0.00    +0.041 A 
ATOM      5  C   LIG    1       22.762 -30.541  10.720  0.00  0.00    -0.020 A 
ATOM      6  C   LIG    1       21.657 -31.366  10.321  0.00  0.00    +0.013 A 
ENDROOT
BRANCH   1   8
ATOM      7  C   LIG    1       18.100 -31.668   9.688  0.00  0.00    +0.016 C 
ATOM      8  C   LIG    1       19.251 -32.354  10.465  0.00  0.00    -0.009 C 
ATOM      9  C   LIG    1       19.822 -33.461   9.540  0.00  0.00    +0.016 C 
ATOM     10  C   LIG    1       18.589 -33.070  11.665  0.00  0.00    +0.016 C 
ENDBRANCH   1   8
BRANCH   4  11
ATOM     11  N   LIG    1       23.489 -28.838  12.386  0.00  0.00    -0.281 N 
ATOM     12  H   LIG    1       23.660 -27.937  11.961  0.00  0.00    +0.155 HD
ATOM     13  C   LIG    1       24.371 -29.214  13.394  0.00  0.00    +0.253 C 
ATOM     14  O   LIG    1       24.418 -30.318  13.908  0.00  0.00    -0.270 OA
BRANCH  13  15
ATOM     15  C   LIG    1       25.355 -28.144  13.782  0.00  0.00    +0.100 C 
ATOM     16  C   LIG    1       24.977 -26.771  14.223  0.00  0.00    +0.202 C 
ATOM     17  O   LIG    1       23.801 -26.418  14.271  0.00  0.00    -0.286 OA
ATOM     18  C   LIG    1       26.046 -25.818  14.607  0.00  0.00    +0.046 C 
ATOM     19  C   LIG    1       27.382 -26.231  14.509  0.00  0.00    +0.050 C 
ATOM     20  C   LIG    1       28.393 -25.319  14.821  0.00  0.00    +0.026 C 
ATOM     21  C   LIG    1       28.073 -24.028  15.254  0.00  0.00    +0.002 C 
ATOM     22  C   LIG    1       26.739 -23.636  15.375  0.00  0.00    +0.001 C 
ATOM     23  N   LIG    1       27.677 -27.516  14.041  0.00  0.00    -0.360 NA
ATOM     24  H   LIG    1       28.633 -27.851  14.092  0.00  0.00    +0.165 HD
ATOM     25  C   LIG    1       25.721 -24.530  15.049  0.00  0.00    +0.014 C 
ATOM     26  C   LIG    1       26.675 -28.404  13.732  0.00  0.00    +0.100 C 
ENDBRANCH  13  15
ENDBRANCH   4  11
BRANCH   5  27
ATOM     27  C   LIG    1       24.126 -30.799   9.999  0.00  0.00    -0.011 C 
ATOM     28  C   LIG    1       23.918 -31.430   8.596  0.00  0.00    +0.015 C 
ATOM     29  C   LIG    1       24.985 -31.790  10.824  0.00  0.00    +0.015 C 
ATOM     30  C   LIG    1       25.036 -29.580   9.756  0.00  0.00    +0.015 C 
ENDBRANCH   5  27
BRANCH   2  31
ATOM     31  O   LIG    1       18.923 -30.209  12.453  0.00  0.00    -0.506 OA
ATOM     32  H   LIG    1       18.554 -29.369  12.133  0.00  0.00    +0.292 HD
ENDBRANCH   2  31
TORSDOF 5
ENDMDL
MODEL 8
REMARK VINA RESULT:      -5.0      4.363     11.215
REMARK  Name = *****
REMARK                            x       y       z     vdW  Elec       q    Type
REMARK                         _______ _______ _______ _____ _____    ______ ____
ROOT
ATOM      1  C   LIG    1       25.428 -16.502   3.689  0.00  0.00    -0.000 A 
ATOM      2  C   LIG    1       26.545 -17.335   3.606  0.00  0.00    +0.122 A 
ATOM      3  C   LIG    1       26.437 -18.715   3.817  0.00  0.00    +0.069 A 
ATOM      4  C   LIG    1       25.207 -19.342   4.095  0.00  0.00    +0.041 A 
ATOM      5  C   LIG    1       24.017 -18.582   4.083  0.00  0.00    -0.020 A 
ATOM      6  C   LIG    1       24.188 -17.169   3.899  0.00  0.00    +0.013 A 
ENDROOT
BRANCH   1   8
ATOM      7  C   LIG    1       26.028 -14.470   2.223  0.00  0.00    +0.016 C 
ATOM      8  C   LIG    1       25.526 -14.953   3.608  0.00  0.00    -0.009 C 
ATOM      9  C   LIG    1       24.147 -14.284   3.844  0.00  0.00    +0.016 C 
ATOM     10  C   LIG    1       26.501 -14.353   4.648  0.00  0.00    +0.016 C 
ENDBRANCH   1   8
BRANCH   4  11
ATOM     11  N   LIG    1       25.247 -20.733   4.331  0.00  0.00    -0.281 N 
ATOM     12  H   LIG    1       25.150 -21.356   3.540  0.00  0.00    +0.155 HD
ATOM     13  C   LIG    1       25.234 -21.334   5.585  0.00  0.00    +0.253 C 
ATOM     14  O   LIG    1       25.182 -20.739   6.647  0.00  0.00    -0.270 OA
BRANCH  13  15
ATOM     15  C   LIG    1       25.220 -22.839   5.546  0.00  0.00    +0.100 C 
ATOM     16  C   LIG    1       25.718 -23.715   6.645  0.00  0.00    +0.202 C 
ATOM     17  O   LIG    1       26.209 -23.240   7.666  0.00  0.00    -0.286 OA
ATOM     18  C   LIG    1       25.620 -25.187   6.493  0.00  0.00    +0.046 C 
ATOM     19  C   LIG    1       25.090 -25.706   5.303  0.00  0.00    +0.050 C 
ATOM     20  C   LIG    1       25.043 -27.092   5.136  0.00  0.00    +0.026 C 
ATOM     21  C   LIG    1       25.487 -27.943   6.154  0.00  0.00    +0.002 C 
ATOM     22  C   LIG    1       25.986 -27.416   7.346  0.00  0.00    +0.001 C 
ATOM     23  N   LIG    1       24.684 -24.834   4.288  0.00  0.00    -0.360 NA
ATOM     24  H   LIG    1       24.189 -25.209   3.486  0.00  0.00    +0.165 HD
ATOM     25  C   LIG    1       26.056 -26.035   7.518  0.00  0.00    +0.014 C 
ATOM     26  C   LIG    1       24.739 -23.472   4.460  0.00  0.00    +0.100 C 
ENDBRANCH  13  15
ENDBRANCH   4  11
BRANCH   5  27
ATOM     27  C   LIG    1       22.562 -19.078   4.380  0.00  0.00    -0.011 C 
ATOM     28  C   LIG    1       21.506 -18.009   3.992  0.00  0.00    +0.015 C 
ATOM     29  C   LIG    1       22.395 -19.360   5.894  0.00  0.00    +0.015 C 
ATOM     30  C   LIG    1       22.102 -20.368   3.676  0.00  0.00    +0.015 C 
ENDBRANCH   5  27
BRANCH   2  31
ATOM     31  O   LIG    1       27.780 -16.823   3.319  0.00  0.00    -0.506 OA
ATOM     32  H   LIG    1       27.679 -15.887   3.075  0.00  0.00    +0.292 HD
ENDBRANCH   2  31
TORSDOF 5
ENDMDL
MODEL 9
REMARK VINA RESULT:      -4.9      1.625      1.933
REMARK  Name = *****
REMARK                            x       y       z     vdW  Elec       q    Type
REMARK                         _______ _______ _______ _____ _____    ______ ____
ROOT
ATOM      1  C   LIG    1       24.404 -31.578   7.484  0.00  0.00    -0.000 A 
ATOM      2  C   LIG    1       23.946 -30.839   6.392  0.00  0.00    +0.122 A 
ATOM      3  C   LIG    1       24.175 -29.460   6.303  0.00  0.00    +0.069 A 
ATOM      4  C   LIG    1       24.896 -28.751   7.283  0.00  0.00    +0.041 A 
ATOM      5  C   LIG    1       25.488 -29.449   8.359  0.00  0.00    -0.020 A 
ATOM      6  C   LIG    1       25.191 -30.852   8.422  0.00  0.00    +0.013 A 
ENDROOT
BRANCH   1   8
ATOM      7  C   LIG    1       23.846 -33.825   6.352  0.00  0.00    +0.016 C 
ATOM      8  C   LIG    1       24.048 -33.077   7.695  0.00  0.00    -0.009 C 
ATOM      9  C   LIG    1       25.169 -33.824   8.462  0.00  0.00    +0.016 C 
ATOM     10  C   LIG    1       22.742 -33.280   8.497  0.00  0.00    +0.016 C 
ENDBRANCH   1   8
BRANCH   4  11
ATOM     11  N   LIG    1       25.015 -27.357   7.092  0.00  0.00    -0.281 N 
ATOM     12  H   LIG    1       24.742 -26.745   7.849  0.00  0.00    +0.155 HD
ATOM     13  C   LIG    1       25.314 -26.737   5.884  0.00  0.00    +0.253 C 
ATOM     14  O   LIG    1       25.509 -27.314   4.829  0.00  0.00    -0.270 OA
BRANCH  13  15
ATOM     15  C   LIG    1       25.317 -25.233   5.948  0.00  0.00    +0.100 C 
ATOM     16  C   LIG    1       25.740 -24.441   7.138  0.00  0.00    +0.202 C 
ATOM     17  O   LIG    1       26.097 -24.992   8.177  0.00  0.00    -0.286 OA
ATOM     18  C   LIG    1       25.723 -22.960   7.061  0.00  0.00    +0.046 C 
ATOM     19  C   LIG    1       25.277 -22.354   5.877  0.00  0.00    +0.050 C 
ATOM     20  C   LIG    1       25.212 -20.959   5.819  0.00  0.00    +0.026 C 
ATOM     21  C   LIG    1       25.616 -20.185   6.912  0.00  0.00    +0.002 C 
ATOM     22  C   LIG    1       26.086 -20.799   8.074  0.00  0.00    +0.001 C 
ATOM     23  N   LIG    1       24.846 -23.150   4.811  0.00  0.00    -0.360 NA
ATOM     24  H   LIG    1       24.645 -22.712   3.919  0.00  0.00    +0.165 HD
ATOM     25  C   LIG    1       26.138 -22.189   8.153  0.00  0.00    +0.014 C 
ATOM     26  C   LIG    1       24.910 -24.521   4.881  0.00  0.00    +0.100 C 
ENDBRANCH  13  15
ENDBRANCH   4  11
BRANCH   5  27
ATOM     27  C   LIG    1       26.307 -28.852   9.551  0.00  0.00    -0.011 C 
ATOM     28  C   LIG    1       27.391 -29.845  10.051  0.00  0.00    +0.015 C 
ATOM     29  C   LIG    1       25.367 -28.558  10.748  0.00  0.00    +0.015 C 
ATOM     30  C   LIG    1       27.061 -27.533   9.296  0.00  0.00    +0.015 C 
ENDBRANCH   5  27
BRANCH   2  31
ATOM     31  O   LIG    1       23.256 -31.443   5.378  0.00  0.00    -0.506 OA
ATOM     32  H   LIG    1       23.069 -32.363   5.634  0.00  0.00    +0.292 HD
ENDBRANCH   2  31
TORSDOF 5
ENDMDL
