MODEL 1
REMARK VINA RESULT:      -7.3      0.000      0.000
REMARK  Name = *****
REMARK                            x       y       z     vdW  Elec       q    Type
REMARK                         _______ _______ _______ _____ _____    ______ ____
ROOT
ATOM      1  N   LIG    1       25.154 -21.051   6.753  0.00  0.00    -0.282 N 
ATOM      2  C   LIG    1       26.567 -20.948   6.873  0.00  0.00    +0.139 A 
ATOM      3  C   LIG    1       27.332 -20.269   5.912  0.00  0.00    +0.053 A 
ATOM      4  C   LIG    1       28.721 -20.163   6.090  0.00  0.00    +0.020 A 
ATOM      5  C   LIG    1       29.326 -20.725   7.202  0.00  0.00    +0.021 A 
ATOM      6  C   LIG    1       28.517 -21.388   8.098  0.00  0.00    +0.113 A 
ATOM      7  S   LIG    1       26.670 -19.549   4.436  0.00  0.00    -0.084 S 
ATOM      8  C   LIG    1       24.917 -19.695   4.704  0.00  0.00    +0.034 A 
ATOM      9  C   LIG    1       24.107 -19.041   3.756  0.00  0.00    +0.017 A 
ATOM     10  C   LIG    1       22.721 -19.067   3.856  0.00  0.00    +0.001 A 
ATOM     11  C   LIG    1       22.136 -19.764   4.900  0.00  0.00    +0.002 A 
ATOM     12  C   LIG    1       22.938 -20.433   5.830  0.00  0.00    +0.024 A 
ATOM     13  N   LIG    1       27.178 -21.513   7.953  0.00  0.00    -0.239 NA
ATOM     14  C   LIG    1       24.348 -20.416   5.777  0.00  0.00    +0.049 A 
ENDROOT
BRANCH   1  15
ATOM     15  C   LIG    1       24.538 -21.996   7.719  0.00  0.00    +0.131 C 
BRANCH  15  17
ATOM     16  C   LIG    1       22.945 -23.759   6.664  0.00  0.00    +0.026 C 
ATOM     17  C   LIG    1       24.358 -23.457   7.186  0.00  0.00    +0.071 C 
BRANCH  17  18
ATOM     18  N   LIG    1       25.344 -23.889   6.150  0.00  0.00    -0.304 NA
ATOM     19  C   LIG    1       24.724 -24.002   4.828  0.00  0.00    +0.105 C 
ATOM     20  C   LIG    1       26.076 -25.112   6.470  0.00  0.00    +0.105 C 
ENDBRANCH  17  18
ENDBRANCH  15  17
ENDBRANCH   1  15
TORSDOF 3
ENDMDL
MODEL 2
REMARK VINA RESULT:      -6.5      1.602      4.176
REMARK  Name = *****
REMARK                            x       y       z     vdW  Elec       q    Type
REMARK                         _______ _______ _______ _____ _____    ______ ____
ROOT
ATOM      1  N   LIG    1       25.281 -21.468   5.636  0.00  0.00    -0.282 N 
ATOM      2  C   LIG    1       25.052 -22.805   6.064  0.00  0.00    +0.139 A 
ATOM      3  C   LIG    1       23.752 -23.319   6.187  0.00  0.00    +0.053 A 
ATOM      4  C   LIG    1       23.576 -24.655   6.579  0.00  0.00    +0.020 A 
ATOM      5  C   LIG    1       24.675 -25.455   6.842  0.00  0.00    +0.021 A 
ATOM      6  C   LIG    1       25.922 -24.883   6.715  0.00  0.00    +0.113 A 
ATOM      7  S   LIG    1       22.277 -22.376   5.915  0.00  0.00    -0.084 S 
ATOM      8  C   LIG    1       22.922 -20.864   5.233  0.00  0.00    +0.034 A 
ATOM      9  C   LIG    1       21.955 -19.963   4.747  0.00  0.00    +0.017 A 
ATOM     10  C   LIG    1       22.326 -18.750   4.180  0.00  0.00    +0.001 A 
ATOM     11  C   LIG    1       23.669 -18.424   4.109  0.00  0.00    +0.002 A 
ATOM     12  C   LIG    1       24.630 -19.308   4.612  0.00  0.00    +0.024 A 
ATOM     13  N   LIG    1       26.125 -23.598   6.344  0.00  0.00    -0.239 NA
ATOM     14  C   LIG    1       24.299 -20.557   5.178  0.00  0.00    +0.049 A 
ENDROOT
BRANCH   1  15
ATOM     15  C   LIG    1       26.689 -21.023   5.789  0.00  0.00    +0.131 C 
BRANCH  15  17
ATOM     16  C   LIG    1       26.243 -20.696   8.329  0.00  0.00    +0.026 C 
ATOM     17  C   LIG    1       26.976 -20.185   7.080  0.00  0.00    +0.071 C 
BRANCH  17  18
ATOM     18  N   LIG    1       28.419 -20.006   7.422  0.00  0.00    -0.304 NA
ATOM     19  C   LIG    1       29.141 -19.295   6.365  0.00  0.00    +0.105 C 
ATOM     20  C   LIG    1       29.125 -21.235   7.776  0.00  0.00    +0.105 C 
ENDBRANCH  17  18
ENDBRANCH  15  17
ENDBRANCH   1  15
TORSDOF 3
ENDMDL
MODEL 3
REMARK VINA RESULT:      -6.0      0.898      4.251
REMARK  Name = *****
REMARK                            x       y       z     vdW  Elec       q    Type
REMARK                         _______ _______ _______ _____ _____    ______ ____
ROOT
ATOM      1  N   LIG    1       25.742 -21.014   6.653  0.00  0.00    -0.282 N 
ATOM      2  C   LIG    1       25.087 -20.455   5.521  0.00  0.00    +0.139 A 
ATOM      3  C   LIG    1       25.767 -19.609   4.630  0.00  0.00    +0.053 A 
ATOM      4  C   LIG    1       25.089 -19.109   3.508  0.00  0.00    +0.020 A 
ATOM      5  C   LIG    1       23.764 -19.446   3.285  0.00  0.00    +0.021 A 
ATOM      6  C   LIG    1       23.155 -20.269   4.206  0.00  0.00    +0.113 A 
ATOM      7  S   LIG    1       27.445 -19.082   4.838  0.00  0.00    -0.084 S 
ATOM      8  C   LIG    1       27.986 -20.092   6.201  0.00  0.00    +0.034 A 
ATOM      9  C   LIG    1       29.362 -20.018   6.493  0.00  0.00    +0.017 A 
ATOM     10  C   LIG    1       29.916 -20.765   7.526  0.00  0.00    +0.001 A 
ATOM     11  C   LIG    1       29.091 -21.580   8.284  0.00  0.00    +0.002 A 
ATOM     12  C   LIG    1       27.721 -21.636   8.009  0.00  0.00    +0.024 A 
ATOM     13  N   LIG    1       23.778 -20.763   5.300  0.00  0.00    -0.239 NA
ATOM     14  C   LIG    1       27.121 -20.910   6.958  0.00  0.00    +0.049 A 
ENDROOT
BRANCH   1  15
ATOM     15  C   LIG    1       24.822 -21.684   7.607  0.00  0.00    +0.131 C 
BRANCH  15  17
ATOM     16  C   LIG    1       23.075 -23.440   6.818  0.00  0.00    +0.026 C 
ATOM     17  C   LIG    1       24.517 -23.185   7.281  0.00  0.00    +0.071 C 
BRANCH  17  18
ATOM     18  N   LIG    1       25.445 -23.833   6.307  0.00  0.00    -0.304 NA
ATOM     19  C   LIG    1       24.791 -24.083   5.021  0.00  0.00    +0.105 C 
ATOM     20  C   LIG    1       26.092 -25.050   6.790  0.00  0.00    +0.105 C 
ENDBRANCH  17  18
ENDBRANCH  15  17
ENDBRANCH   1  15
TORSDOF 3
ENDMDL
MODEL 4
REMARK VINA RESULT:      -5.9      1.717      2.786
REMARK  Name = *****
REMARK                            x       y       z     vdW  Elec       q    Type
REMARK                         _______ _______ _______ _____ _____    ______ ____
ROOT
ATOM      1  N   LIG    1       27.554 -20.868   6.506  0.00  0.00    -0.282 N 
ATOM      2  C   LIG    1       28.796 -20.563   7.126  0.00  0.00    +0.139 A 
ATOM      3  C   LIG    1       29.584 -19.486   6.689  0.00  0.00    +0.053 A 
ATOM      4  C   LIG    1       30.786 -19.201   7.355  0.00  0.00    +0.020 A 
ATOM      5  C   LIG    1       31.189 -19.975   8.430  0.00  0.00    +0.021 A 
ATOM      6  C   LIG    1       30.375 -21.024   8.797  0.00  0.00    +0.113 A 
ATOM      7  S   LIG    1       29.186 -18.457   5.304  0.00  0.00    -0.084 S 
ATOM      8  C   LIG    1       27.534 -18.988   4.908  0.00  0.00    +0.034 A 
ATOM      9  C   LIG    1       26.872 -18.216   3.933  0.00  0.00    +0.017 A 
ATOM     10  C   LIG    1       25.574 -18.517   3.540  0.00  0.00    +0.001 A 
ATOM     11  C   LIG    1       24.934 -19.604   4.110  0.00  0.00    +0.002 A 
ATOM     12  C   LIG    1       25.598 -20.386   5.062  0.00  0.00    +0.024 A 
ATOM     13  N   LIG    1       29.214 -21.328   8.174  0.00  0.00    -0.239 NA
ATOM     14  C   LIG    1       26.909 -20.104   5.503  0.00  0.00    +0.049 A 
ENDROOT
BRANCH   1  15
ATOM     15  C   LIG    1       26.974 -22.167   6.933  0.00  0.00    +0.131 C 
BRANCH  15  17
ATOM     16  C   LIG    1       25.768 -20.655   8.671  0.00  0.00    +0.026 C 
ATOM     17  C   LIG    1       25.918 -22.068   8.085  0.00  0.00    +0.071 C 
BRANCH  17  18
ATOM     18  N   LIG    1       24.557 -22.586   7.754  0.00  0.00    -0.304 NA
ATOM     19  C   LIG    1       24.602 -23.568   6.669  0.00  0.00    +0.105 C 
ATOM     20  C   LIG    1       23.560 -21.558   7.465  0.00  0.00    +0.105 C 
ENDBRANCH  17  18
ENDBRANCH  15  17
ENDBRANCH   1  15
TORSDOF 3
ENDMDL
MODEL 5
REMARK VINA RESULT:      -5.7      1.528      4.626
REMARK  Name = *****
REMARK                            x       y       z     vdW  Elec       q    Type
REMARK                         _______ _______ _______ _____ _____    ______ ____
ROOT
ATOM      1  N   LIG    1       26.660 -20.761   6.393  0.00  0.00    -0.282 N 
ATOM      2  C   LIG    1       26.064 -20.086   5.292  0.00  0.00    +0.139 A 
ATOM      3  C   LIG    1       26.745 -19.069   4.605  0.00  0.00    +0.053 A 
ATOM      4  C   LIG    1       26.130 -18.455   3.503  0.00  0.00    +0.020 A 
ATOM      5  C   LIG    1       24.865 -18.851   3.100  0.00  0.00    +0.021 A 
ATOM      6  C   LIG    1       24.249 -19.845   3.828  0.00  0.00    +0.113 A 
ATOM      7  S   LIG    1       28.345 -18.459   5.056  0.00  0.00    -0.084 S 
ATOM      8  C   LIG    1       28.847 -19.620   6.308  0.00  0.00    +0.034 A 
ATOM      9  C   LIG    1       30.180 -19.492   6.747  0.00  0.00    +0.017 A 
ATOM     10  C   LIG    1       30.701 -20.344   7.713  0.00  0.00    +0.001 A 
ATOM     11  C   LIG    1       29.886 -21.321   8.259  0.00  0.00    +0.002 A 
ATOM     12  C   LIG    1       28.555 -21.435   7.840  0.00  0.00    +0.024 A 
ATOM     13  N   LIG    1       24.812 -20.452   4.897  0.00  0.00    -0.239 NA
ATOM     14  C   LIG    1       27.991 -20.604   6.849  0.00  0.00    +0.049 A 
ENDROOT
BRANCH   1  15
ATOM     15  C   LIG    1       25.720 -21.632   7.143  0.00  0.00    +0.131 C 
BRANCH  15  17
ATOM     16  C   LIG    1       26.050 -24.208   7.030  0.00  0.00    +0.026 C 
ATOM     17  C   LIG    1       25.357 -22.976   6.427  0.00  0.00    +0.071 C 
BRANCH  17  18
ATOM     18  N   LIG    1       23.897 -23.269   6.310  0.00  0.00    -0.304 NA
ATOM     19  C   LIG    1       23.101 -22.399   7.179  0.00  0.00    +0.105 C 
ATOM     20  C   LIG    1       23.530 -24.667   6.523  0.00  0.00    +0.105 C 
ENDBRANCH  17  18
ENDBRANCH  15  17
ENDBRANCH   1  15
TORSDOF 3
ENDMDL
MODEL 6
REMARK VINA RESULT:      -5.6      1.910      4.418
REMARK  Name = *****
REMARK                            x       y       z     vdW  Elec       q    Type
REMARK                         _______ _______ _______ _____ _____    ______ ____
ROOT
ATOM      1  N   LIG    1       26.277 -20.798   5.232  0.00  0.00    -0.282 N 
ATOM      2  C   LIG    1       27.402 -20.055   5.684  0.00  0.00    +0.139 A 
ATOM      3  C   LIG    1       28.063 -20.386   6.878  0.00  0.00    +0.053 A 
ATOM      4  C   LIG    1       29.190 -19.646   7.267  0.00  0.00    +0.020 A 
ATOM      5  C   LIG    1       29.644 -18.601   6.479  0.00  0.00    +0.021 A 
ATOM      6  C   LIG    1       28.941 -18.322   5.328  0.00  0.00    +0.113 A 
ATOM      7  S   LIG    1       27.547 -21.674   7.979  0.00  0.00    -0.084 S 
ATOM      8  C   LIG    1       26.274 -22.484   7.035  0.00  0.00    +0.034 A 
ATOM      9  C   LIG    1       25.781 -23.680   7.592  0.00  0.00    +0.017 A 
ATOM     10  C   LIG    1       24.793 -24.417   6.949  0.00  0.00    +0.001 A 
ATOM     11  C   LIG    1       24.280 -23.951   5.751  0.00  0.00    +0.002 A 
ATOM     12  C   LIG    1       24.753 -22.751   5.207  0.00  0.00    +0.024 A 
ATOM     13  N   LIG    1       27.848 -19.012   4.929  0.00  0.00    -0.239 NA
ATOM     14  C   LIG    1       25.767 -21.983   5.816  0.00  0.00    +0.049 A 
ENDROOT
BRANCH   1  15
ATOM     15  C   LIG    1       25.566 -20.171   4.090  0.00  0.00    +0.131 C 
BRANCH  15  17
ATOM     16  C   LIG    1       24.561 -17.826   3.592  0.00  0.00    +0.026 C 
ATOM     17  C   LIG    1       24.522 -19.073   4.487  0.00  0.00    +0.071 C 
BRANCH  17  18
ATOM     18  N   LIG    1       23.106 -19.538   4.585  0.00  0.00    -0.304 NA
ATOM     19  C   LIG    1       22.163 -18.477   4.224  0.00  0.00    +0.105 C 
ATOM     20  C   LIG    1       22.738 -20.124   5.871  0.00  0.00    +0.105 C 
ENDBRANCH  17  18
ENDBRANCH  15  17
ENDBRANCH   1  15
TORSDOF 3
ENDMDL
MODEL 7
REMARK VINA RESULT:      -5.4      1.928      5.426
REMARK  Name = *****
REMARK                            x       y       z     vdW  Elec       q    Type
REMARK                         _______ _______ _______ _____ _____    ______ ____
ROOT
ATOM      1  N   LIG    1       26.479 -20.349   5.411  0.00  0.00    -0.282 N 
ATOM      2  C   LIG    1       25.581 -21.243   6.055  0.00  0.00    +0.139 A 
ATOM      3  C   LIG    1       25.920 -21.873   7.263  0.00  0.00    +0.053 A 
ATOM      4  C   LIG    1       24.988 -22.721   7.880  0.00  0.00    +0.020 A 
ATOM      5  C   LIG    1       23.747 -22.933   7.302  0.00  0.00    +0.021 A 
ATOM      6  C   LIG    1       23.486 -22.294   6.110  0.00  0.00    +0.113 A 
ATOM      7  S   LIG    1       27.488 -21.705   8.069  0.00  0.00    -0.084 S 
ATOM      8  C   LIG    1       28.258 -20.411   7.120  0.00  0.00    +0.034 A 
ATOM      9  C   LIG    1       29.476 -19.929   7.638  0.00  0.00    +0.017 A 
ATOM     10  C   LIG    1       30.174 -18.912   6.999  0.00  0.00    +0.001 A 
ATOM     11  C   LIG    1       29.666 -18.381   5.826  0.00  0.00    +0.002 A 
ATOM     12  C   LIG    1       28.468 -18.875   5.298  0.00  0.00    +0.024 A 
ATOM     13  N   LIG    1       24.364 -21.476   5.487  0.00  0.00    -0.239 NA
ATOM     14  C   LIG    1       27.717 -19.893   5.924  0.00  0.00    +0.049 A 
ENDROOT
BRANCH   1  15
ATOM     15  C   LIG    1       26.060 -19.964   4.039  0.00  0.00    +0.131 C 
BRANCH  15  17
ATOM     16  C   LIG    1       25.743 -17.502   3.267  0.00  0.00    +0.026 C 
ATOM     17  C   LIG    1       25.115 -18.716   3.967  0.00  0.00    +0.071 C 
BRANCH  17  18
ATOM     18  N   LIG    1       23.771 -18.963   3.365  0.00  0.00    -0.304 NA
ATOM     19  C   LIG    1       22.693 -18.660   4.310  0.00  0.00    +0.105 C 
ATOM     20  C   LIG    1       23.585 -20.296   2.798  0.00  0.00    +0.105 C 
ENDBRANCH  17  18
ENDBRANCH  15  17
ENDBRANCH   1  15
TORSDOF 3
ENDMDL
MODEL 8
REMARK VINA RESULT:      -5.0      7.058      9.988
REMARK  Name = *****
REMARK                            x       y       z     vdW  Elec       q    Type
REMARK                         _______ _______ _______ _____ _____    ______ ____
ROOT
ATOM      1  N   LIG    1       24.392 -30.706   7.573  0.00  0.00    -0.282 N 
ATOM      2  C   LIG    1       24.706 -31.210   8.865  0.00  0.00    +0.139 A 
ATOM      3  C   LIG    1       25.525 -30.490   9.749  0.00  0.00    +0.053 A 
ATOM      4  C   LIG    1       25.780 -31.011  11.027  0.00  0.00    +0.020 A 
ATOM      5  C   LIG    1       25.228 -32.223  11.409  0.00  0.00    +0.021 A 
ATOM      6  C   LIG    1       24.445 -32.882  10.487  0.00  0.00    +0.113 A 
ATOM      7  S   LIG    1       26.313 -28.954   9.352  0.00  0.00    -0.084 S 
ATOM      8  C   LIG    1       25.569 -28.547   7.787  0.00  0.00    +0.034 A 
ATOM      9  C   LIG    1       25.878 -27.266   7.290  0.00  0.00    +0.017 A 
ATOM     10  C   LIG    1       25.353 -26.819   6.084  0.00  0.00    +0.001 A 
ATOM     11  C   LIG    1       24.527 -27.660   5.358  0.00  0.00    +0.002 A 
ATOM     12  C   LIG    1       24.238 -28.942   5.839  0.00  0.00    +0.024 A 
ATOM     13  N   LIG    1       24.185 -32.410   9.247  0.00  0.00    -0.239 NA
ATOM     14  C   LIG    1       24.734 -29.428   7.068  0.00  0.00    +0.049 A 
ENDROOT
BRANCH   1  15
ATOM     15  C   LIG    1       23.719 -31.693   6.692  0.00  0.00    +0.131 C 
BRANCH  15  17
ATOM     16  C   LIG    1       24.034 -33.492   4.842  0.00  0.00    +0.026 C 
ATOM     17  C   LIG    1       24.677 -32.725   6.007  0.00  0.00    +0.071 C 
BRANCH  17  18
ATOM     18  N   LIG    1       25.986 -32.176   5.543  0.00  0.00    -0.304 NA
ATOM     19  C   LIG    1       26.176 -32.374   4.105  0.00  0.00    +0.105 C 
ATOM     20  C   LIG    1       27.152 -32.660   6.278  0.00  0.00    +0.105 C 
ENDBRANCH  17  18
ENDBRANCH  15  17
ENDBRANCH   1  15
TORSDOF 3
ENDMDL
MODEL 9
REMARK VINA RESULT:      -4.9      2.164      5.214
REMARK  Name = *****
REMARK                            x       y       z     vdW  Elec       q    Type
REMARK                         _______ _______ _______ _____ _____    ______ ____
ROOT
ATOM      1  N   LIG    1       27.077 -20.513   5.683  0.00  0.00    -0.282 N 
ATOM      2  C   LIG    1       26.732 -19.417   4.845  0.00  0.00    +0.139 A 
ATOM      3  C   LIG    1       25.468 -19.330   4.241  0.00  0.00    +0.053 A 
ATOM      4  C   LIG    1       25.161 -18.212   3.450  0.00  0.00    +0.020 A 
ATOM      5  C   LIG    1       26.097 -17.208   3.268  0.00  0.00    +0.021 A 
ATOM      6  C   LIG    1       27.322 -17.364   3.878  0.00  0.00    +0.113 A 
ATOM      7  S   LIG    1       24.211 -20.571   4.374  0.00  0.00    -0.084 S 
ATOM      8  C   LIG    1       24.893 -21.661   5.606  0.00  0.00    +0.034 A 
ATOM      9  C   LIG    1       24.026 -22.675   6.057  0.00  0.00    +0.017 A 
ATOM     10  C   LIG    1       24.430 -23.586   7.025  0.00  0.00    +0.001 A 
ATOM     11  C   LIG    1       25.713 -23.496   7.538  0.00  0.00    +0.002 A 
ATOM     12  C   LIG    1       26.583 -22.503   7.074  0.00  0.00    +0.024 A 
ATOM     13  N   LIG    1       27.651 -18.431   4.642  0.00  0.00    -0.239 NA
ATOM     14  C   LIG    1       26.207 -21.548   6.107  0.00  0.00    +0.049 A 
ENDROOT
BRANCH   1  15
ATOM     15  C   LIG    1       28.517 -20.564   6.040  0.00  0.00    +0.131 C 
BRANCH  15  17
ATOM     16  C   LIG    1       29.410 -21.163   8.407  0.00  0.00    +0.026 C 
ATOM     17  C   LIG    1       28.853 -20.067   7.487  0.00  0.00    +0.071 C 
BRANCH  17  18
ATOM     18  N   LIG    1       29.760 -18.882   7.564  0.00  0.00    -0.304 NA
ATOM     19  C   LIG    1       31.075 -19.171   6.990  0.00  0.00    +0.105 C 
ATOM     20  C   LIG    1       29.906 -18.306   8.898  0.00  0.00    +0.105 C 
ENDBRANCH  17  18
ENDBRANCH  15  17
ENDBRANCH   1  15
TORSDOF 3
ENDMDL
