MODEL 1
REMARK VINA RESULT:      -3.7      0.000      0.000
REMARK  Name = *****
REMARK                            x       y       z     vdW  Elec       q    Type
REMARK                         _______ _______ _______ _____ _____    ______ ____
ROOT
ATOM      1  N   LIG    1       29.179 -17.426   5.515  0.00  0.00    -0.311 NA
ATOM      2  H   LIG    1       30.192 -17.280   5.456  0.00  0.00    +0.122 HD
ENDROOT
BRANCH   1   3
ATOM      3  C   LIG    1       28.868 -18.466   6.526  0.00  0.00    +0.115 C 
BRANCH   3   4
ATOM      4  C   LIG    1       28.341 -19.763   5.858  0.00  0.00    +0.169 C 
BRANCH   4   5
ATOM      5  C   LIG    1       26.830 -20.005   6.102  0.00  0.00    +0.203 C 
ATOM      6  O   LIG    1       26.134 -19.931   4.845  0.00  0.00    -0.486 OA
ATOM      7  C   LIG    1       24.815 -20.306   4.894  0.00  0.00    +0.124 A 
ATOM      8  C   LIG    1       24.273 -21.088   5.921  0.00  0.00    -0.003 A 
ATOM      9  C   LIG    1       22.906 -21.410   5.888  0.00  0.00    +0.045 A 
ATOM     10  C   LIG    1       22.119 -20.979   4.824  0.00  0.00    +0.124 A 
ATOM     11  C   LIG    1       22.661 -20.227   3.793  0.00  0.00    +0.042 A 
ATOM     12  F   LIG    1       20.817 -21.297   4.799  0.00  0.00    -0.205 F 
ATOM     13  C   LIG    1       25.121 -21.567   7.060  0.00  0.00    +0.042 C 
ATOM     14  C   LIG    1       24.017 -19.892   3.825  0.00  0.00    +0.049 A 
ATOM     15  C   LIG    1       26.601 -21.371   6.763  0.00  0.00    +0.052 C 
ENDBRANCH   4   5
BRANCH   4  16
ATOM     16  O   LIG    1       29.093 -20.880   6.354  0.00  0.00    -0.387 OA
ATOM     17  H   LIG    1       28.988 -21.578   5.677  0.00  0.00    +0.210 HD
ENDBRANCH   4  16
ENDBRANCH   3   4
ENDBRANCH   1   3
BRANCH   1  18
ATOM     18  C   LIG    1       28.707 -17.833   4.171  0.00  0.00    +0.115 C 
BRANCH  18  19
ATOM     19  C   LIG    1       27.702 -16.809   3.575  0.00  0.00    +0.169 C 
BRANCH  19  20
ATOM     20  C   LIG    1       27.589 -15.526   4.449  0.00  0.00    +0.203 C 
ATOM     21  O   LIG    1       26.214 -15.223   4.737  0.00  0.00    -0.486 OA
ATOM     22  C   LIG    1       25.596 -14.254   3.996  0.00  0.00    +0.124 A 
ATOM     23  C   LIG    1       26.238 -13.467   3.039  0.00  0.00    -0.003 A 
ATOM     24  C   LIG    1       25.491 -12.520   2.319  0.00  0.00    +0.045 A 
ATOM     25  C   LIG    1       24.136 -12.361   2.587  0.00  0.00    +0.124 A 
ATOM     26  C   LIG    1       23.499 -13.125   3.551  0.00  0.00    +0.042 A 
ATOM     27  F   LIG    1       23.433 -11.448   1.899  0.00  0.00    -0.205 F 
ATOM     28  C   LIG    1       27.699 -13.640   2.752  0.00  0.00    +0.042 C 
ATOM     29  C   LIG    1       24.234 -14.080   4.259  0.00  0.00    +0.049 A 
ATOM     30  C   LIG    1       28.380 -14.318   3.929  0.00  0.00    +0.052 C 
ENDBRANCH  19  20
BRANCH  19  31
ATOM     31  O   LIG    1       26.432 -17.457   3.416  0.00  0.00    -0.387 OA
ATOM     32  H   LIG    1       25.837 -17.081   4.088  0.00  0.00    +0.210 HD
ENDBRANCH  19  31
ENDBRANCH  18  19
ENDBRANCH   1  18
TORSDOF 8
ENDMDL
MODEL 2
REMARK VINA RESULT:      -3.5      3.115      7.722
REMARK  Name = *****
REMARK                            x       y       z     vdW  Elec       q    Type
REMARK                         _______ _______ _______ _____ _____    ______ ____
ROOT
ATOM      1  N   LIG    1       22.016 -18.323   4.997  0.00  0.00    -0.311 NA
ATOM      2  H   LIG    1       21.253 -18.941   4.704  0.00  0.00    +0.122 HD
ENDROOT
BRANCH   1   3
ATOM      3  C   LIG    1       22.582 -17.612   3.825  0.00  0.00    +0.115 C 
BRANCH   3   4
ATOM      4  C   LIG    1       22.674 -16.085   4.080  0.00  0.00    +0.169 C 
BRANCH   4   5
ATOM      5  C   LIG    1       24.046 -15.482   3.685  0.00  0.00    +0.203 C 
ATOM      6  O   LIG    1       24.430 -14.506   4.670  0.00  0.00    -0.486 OA
ATOM      7  C   LIG    1       25.709 -14.027   4.536  0.00  0.00    +0.124 A 
ATOM      8  C   LIG    1       26.710 -14.688   3.816  0.00  0.00    -0.003 A 
ATOM      9  C   LIG    1       27.988 -14.110   3.728  0.00  0.00    +0.045 A 
ATOM     10  C   LIG    1       28.250 -12.911   4.382  0.00  0.00    +0.124 A 
ATOM     11  C   LIG    1       27.267 -12.268   5.119  0.00  0.00    +0.042 A 
ATOM     12  F   LIG    1       29.474 -12.371   4.297  0.00  0.00    -0.205 F 
ATOM     13  C   LIG    1       26.435 -15.989   3.122  0.00  0.00    +0.042 C 
ATOM     14  C   LIG    1       25.990 -12.830   5.201  0.00  0.00    +0.049 A 
ATOM     15  C   LIG    1       25.110 -16.583   3.578  0.00  0.00    +0.052 C 
ENDBRANCH   4   5
BRANCH   4  16
ATOM     16  O   LIG    1       22.419 -15.829   5.469  0.00  0.00    -0.387 OA
ATOM     17  H   LIG    1       23.240 -15.419   5.807  0.00  0.00    +0.210 HD
ENDBRANCH   4  16
ENDBRANCH   3   4
ENDBRANCH   1   3
BRANCH   1  18
ATOM     18  C   LIG    1       23.044 -19.163   5.656  0.00  0.00    +0.115 C 
BRANCH  18  19
ATOM     19  C   LIG    1       22.659 -20.668   5.642  0.00  0.00    +0.169 C 
BRANCH  19  20
ATOM     20  C   LIG    1       23.850 -21.571   5.207  0.00  0.00    +0.203 C 
ATOM     21  O   LIG    1       24.884 -21.570   6.207  0.00  0.00    -0.486 OA
ATOM     22  C   LIG    1       25.976 -20.771   6.007  0.00  0.00    +0.124 A 
ATOM     23  C   LIG    1       26.204 -20.026   4.849  0.00  0.00    -0.003 A 
ATOM     24  C   LIG    1       27.350 -19.218   4.771  0.00  0.00    +0.045 A 
ATOM     25  C   LIG    1       28.251 -19.193   5.829  0.00  0.00    +0.124 A 
ATOM     26  C   LIG    1       28.040 -19.948   6.972  0.00  0.00    +0.042 A 
ATOM     27  F   LIG    1       29.348 -18.424   5.741  0.00  0.00    -0.205 F 
ATOM     28  C   LIG    1       25.231 -20.055   3.710  0.00  0.00    +0.042 C 
ATOM     29  C   LIG    1       26.892 -20.741   7.062  0.00  0.00    +0.049 A 
ATOM     30  C   LIG    1       24.378 -21.309   3.791  0.00  0.00    +0.052 C 
ENDBRANCH  19  20
BRANCH  19  31
ATOM     31  O   LIG    1       21.522 -20.840   4.785  0.00  0.00    -0.387 OA
ATOM     32  H   LIG    1       21.713 -20.356   3.962  0.00  0.00    +0.210 HD
ENDBRANCH  19  31
ENDBRANCH  18  19
ENDBRANCH   1  18
TORSDOF 8
ENDMDL
MODEL 3
REMARK VINA RESULT:      -2.4      1.220      2.165
REMARK  Name = *****
REMARK                            x       y       z     vdW  Elec       q    Type
REMARK                         _______ _______ _______ _____ _____    ______ ____
ROOT
ATOM      1  N   LIG    1       29.468 -17.876   5.929  0.00  0.00    -0.311 NA
ATOM      2  H   LIG    1       30.424 -18.207   5.767  0.00  0.00    +0.122 HD
ENDROOT
BRANCH   1   3
ATOM      3  C   LIG    1       28.712 -18.861   6.739  0.00  0.00    +0.115 C 
BRANCH   3   4
ATOM      4  C   LIG    1       28.724 -20.265   6.079  0.00  0.00    +0.169 C 
BRANCH   4   5
ATOM      5  C   LIG    1       27.354 -20.669   5.478  0.00  0.00    +0.203 C 
ATOM      6  O   LIG    1       26.363 -20.658   6.522  0.00  0.00    -0.486 OA
ATOM      7  C   LIG    1       25.071 -20.822   6.091  0.00  0.00    +0.124 A 
ATOM      8  C   LIG    1       24.663 -20.595   4.771  0.00  0.00    -0.003 A 
ATOM      9  C   LIG    1       23.318 -20.801   4.424  0.00  0.00    +0.045 A 
ATOM     10  C   LIG    1       22.405 -21.194   5.398  0.00  0.00    +0.124 A 
ATOM     11  C   LIG    1       22.802 -21.392   6.712  0.00  0.00    +0.042 A 
ATOM     12  F   LIG    1       21.122 -21.382   5.058  0.00  0.00    -0.205 F 
ATOM     13  C   LIG    1       25.642 -20.157   3.722  0.00  0.00    +0.042 C 
ATOM     14  C   LIG    1       24.141 -21.202   7.062  0.00  0.00    +0.049 A 
ATOM     15  C   LIG    1       26.954 -19.710   4.350  0.00  0.00    +0.052 C 
ENDBRANCH   4   5
BRANCH   4  16
ATOM     16  O   LIG    1       29.126 -21.236   7.057  0.00  0.00    -0.387 OA
ATOM     17  H   LIG    1       28.545 -21.076   7.827  0.00  0.00    +0.210 HD
ENDBRANCH   4  16
ENDBRANCH   3   4
ENDBRANCH   1   3
BRANCH   1  18
ATOM     18  C   LIG    1       28.834 -17.680   4.603  0.00  0.00    +0.115 C 
BRANCH  18  19
ATOM     19  C   LIG    1       27.896 -16.441   4.587  0.00  0.00    +0.169 C 
BRANCH  19  20
ATOM     20  C   LIG    1       27.081 -16.343   3.265  0.00  0.00    +0.203 C 
ATOM     21  O   LIG    1       27.129 -15.009   2.732  0.00  0.00    -0.486 OA
ATOM     22  C   LIG    1       26.058 -14.187   2.950  0.00  0.00    +0.124 A 
ATOM     23  C   LIG    1       24.874 -14.586   3.573  0.00  0.00    -0.003 A 
ATOM     24  C   LIG    1       23.852 -13.642   3.767  0.00  0.00    +0.045 A 
ATOM     25  C   LIG    1       24.020 -12.339   3.313  0.00  0.00    +0.124 A 
ATOM     26  C   LIG    1       25.185 -11.944   2.675  0.00  0.00    +0.042 A 
ATOM     27  F   LIG    1       23.034 -11.447   3.495  0.00  0.00    -0.205 F 
ATOM     28  C   LIG    1       24.696 -15.991   4.061  0.00  0.00    +0.042 C 
ATOM     29  C   LIG    1       26.212 -12.875   2.494  0.00  0.00    +0.049 A 
ATOM     30  C   LIG    1       25.660 -16.916   3.337  0.00  0.00    +0.052 C 
ENDBRANCH  19  20
BRANCH  19  31
ATOM     31  O   LIG    1       28.688 -15.267   4.812  0.00  0.00    -0.387 OA
ATOM     32  H   LIG    1       28.172 -14.686   5.400  0.00  0.00    +0.210 HD
ENDBRANCH  19  31
ENDBRANCH  18  19
ENDBRANCH   1  18
TORSDOF 8
ENDMDL
MODEL 4
REMARK VINA RESULT:      -0.7      2.893      8.071
REMARK  Name = *****
REMARK                            x       y       z     vdW  Elec       q    Type
REMARK                         _______ _______ _______ _____ _____    ______ ____
ROOT
ATOM      1  N   LIG    1       21.636 -18.401   3.843  0.00  0.00    -0.311 NA
ATOM      2  H   LIG    1       20.697 -18.335   3.438  0.00  0.00    +0.122 HD
ENDROOT
BRANCH   1   3
ATOM      3  C   LIG    1       22.442 -17.214   3.470  0.00  0.00    +0.115 C 
BRANCH   3   4
ATOM      4  C   LIG    1       22.295 -16.079   4.518  0.00  0.00    +0.169 C 
BRANCH   4   5
ATOM      5  C   LIG    1       23.430 -15.026   4.441  0.00  0.00    +0.203 C 
ATOM      6  O   LIG    1       24.685 -15.703   4.247  0.00  0.00    -0.486 OA
ATOM      7  C   LIG    1       25.749 -14.878   3.981  0.00  0.00    +0.124 A 
ATOM      8  C   LIG    1       25.610 -13.567   3.512  0.00  0.00    -0.003 A 
ATOM      9  C   LIG    1       26.761 -12.796   3.280  0.00  0.00    +0.045 A 
ATOM     10  C   LIG    1       28.019 -13.355   3.485  0.00  0.00    +0.124 A 
ATOM     11  C   LIG    1       28.159 -14.662   3.923  0.00  0.00    +0.042 A 
ATOM     12  F   LIG    1       29.112 -12.612   3.255  0.00  0.00    -0.205 F 
ATOM     13  C   LIG    1       24.256 -12.968   3.276  0.00  0.00    +0.042 C 
ATOM     14  C   LIG    1       27.018 -15.431   4.169  0.00  0.00    +0.049 A 
ATOM     15  C   LIG    1       23.172 -14.037   3.298  0.00  0.00    +0.052 C 
ENDBRANCH   4   5
BRANCH   4  16
ATOM     16  O   LIG    1       22.266 -16.659   5.831  0.00  0.00    -0.387 OA
ATOM     17  H   LIG    1       22.465 -15.920   6.439  0.00  0.00    +0.210 HD
ENDBRANCH   4  16
ENDBRANCH   3   4
ENDBRANCH   1   3
BRANCH   1  18
ATOM     18  C   LIG    1       22.257 -19.647   3.332  0.00  0.00    +0.115 C 
BRANCH  18  19
ATOM     19  C   LIG    1       22.726 -20.575   4.486  0.00  0.00    +0.169 C 
BRANCH  19  20
ATOM     20  C   LIG    1       23.342 -19.772   5.668  0.00  0.00    +0.203 C 
ATOM     21  O   LIG    1       24.610 -19.206   5.295  0.00  0.00    -0.486 OA
ATOM     22  C   LIG    1       25.748 -19.846   5.699  0.00  0.00    +0.124 A 
ATOM     23  C   LIG    1       25.767 -20.964   6.535  0.00  0.00    -0.003 A 
ATOM     24  C   LIG    1       27.000 -21.555   6.859  0.00  0.00    +0.045 A 
ATOM     25  C   LIG    1       28.179 -21.004   6.370  0.00  0.00    +0.124 A 
ATOM     26  C   LIG    1       28.166 -19.882   5.558  0.00  0.00    +0.042 A 
ATOM     27  F   LIG    1       29.353 -21.571   6.693  0.00  0.00    -0.205 F 
ATOM     28  C   LIG    1       24.495 -21.555   7.061  0.00  0.00    +0.042 C 
ATOM     29  C   LIG    1       26.942 -19.300   5.218  0.00  0.00    +0.049 A 
ATOM     30  C   LIG    1       23.383 -20.520   7.006  0.00  0.00    +0.052 C 
ENDBRANCH  19  20
BRANCH  19  31
ATOM     31  O   LIG    1       23.651 -21.532   3.953  0.00  0.00    -0.387 OA
ATOM     32  H   LIG    1       23.146 -22.346   3.775  0.00  0.00    +0.210 HD
ENDBRANCH  19  31
ENDBRANCH  18  19
ENDBRANCH   1  18
TORSDOF 8
ENDMDL
