MODEL 1
REMARK VINA RESULT:      -5.3      0.000      0.000
REMARK  Name = *****
REMARK                            x       y       z     vdW  Elec       q    Type
REMARK                         _______ _______ _______ _____ _____    ______ ____
ROOT
ATOM      1  C   LIG    1       20.814 -19.161   3.768  0.00  0.00    +0.105 C 
ATOM      2  N   LIG    1       22.105 -18.492   3.586  0.00  0.00    -0.297 NA
ENDROOT
BRANCH   2   3
ATOM      3  C   LIG    1       23.164 -19.513   3.478  0.00  0.00    +0.120 C 
BRANCH   3   4
ATOM      4  C   LIG    1       23.658 -20.149   4.769  0.00  0.00    -0.026 A 
ATOM      5  C   LIG    1       25.030 -20.162   5.151  0.00  0.00    -0.013 A 
ATOM      6  C   LIG    1       25.411 -20.893   6.305  0.00  0.00    -0.018 A 
ATOM      7  C   LIG    1       26.759 -20.941   6.693  0.00  0.00    +0.008 A 
ATOM      8  C   LIG    1       27.743 -20.255   5.977  0.00  0.00    +0.001 A 
ATOM      9  C   LIG    1       27.381 -19.513   4.862  0.00  0.00    +0.001 A 
ATOM     10  C   LIG    1       24.442 -21.571   7.062  0.00  0.00    +0.008 A 
ATOM     11  C   LIG    1       23.100 -21.530   6.702  0.00  0.00    +0.001 A 
ATOM     12  C   LIG    1       26.049 -19.482   4.452  0.00  0.00    +0.009 A 
ATOM     13  C   LIG    1       22.711 -20.826   5.563  0.00  0.00    +0.005 A 
ENDBRANCH   3   4
ENDBRANCH   2   3
BRANCH   2  14
ATOM     14  C   LIG    1       22.343 -17.534   4.678  0.00  0.00    +0.119 C 
BRANCH  14  15
ATOM     15  C   LIG    1       23.364 -16.475   4.324  0.00  0.00    -0.033 A 
ATOM     16  C   LIG    1       23.163 -15.136   4.678  0.00  0.00    +0.005 A 
ATOM     17  C   LIG    1       24.127 -14.163   4.387  0.00  0.00    +0.004 A 
ATOM     18  C   LIG    1       25.338 -14.494   3.754  0.00  0.00    -0.042 A 
ATOM     19  C   LIG    1       25.498 -15.832   3.355  0.00  0.00    +0.004 A 
ATOM     20  C   LIG    1       24.539 -16.808   3.649  0.00  0.00    +0.005 A 
BRANCH  18  21
ATOM     21  C   LIG    1       26.430 -13.440   3.496  0.00  0.00    -0.013 C 
ATOM     22  C   LIG    1       27.087 -12.954   4.810  0.00  0.00    +0.015 C 
ATOM     23  C   LIG    1       25.869 -12.175   2.804  0.00  0.00    +0.015 C 
ATOM     24  C   LIG    1       27.526 -14.042   2.597  0.00  0.00    +0.015 C 
ENDBRANCH  18  21
ENDBRANCH  14  15
ENDBRANCH   2  14
TORSDOF 5
ENDMDL
MODEL 2
REMARK VINA RESULT:      -4.4      1.214      2.343
REMARK  Name = *****
REMARK                            x       y       z     vdW  Elec       q    Type
REMARK                         _______ _______ _______ _____ _____    ______ ____
ROOT
ATOM      1  C   LIG    1       23.098 -19.827   6.149  0.00  0.00    +0.105 C 
ATOM      2  N   LIG    1       23.132 -19.804   4.684  0.00  0.00    -0.297 NA
ENDROOT
BRANCH   2   3
ATOM      3  C   LIG    1       24.536 -19.750   4.236  0.00  0.00    +0.120 C 
BRANCH   3   4
ATOM      4  C   LIG    1       25.611 -20.081   5.260  0.00  0.00    -0.026 A 
ATOM      5  C   LIG    1       26.883 -19.440   5.283  0.00  0.00    -0.013 A 
ATOM      6  C   LIG    1       27.867 -19.907   6.191  0.00  0.00    -0.018 A 
ATOM      7  C   LIG    1       29.137 -19.309   6.221  0.00  0.00    +0.008 A 
ATOM      8  C   LIG    1       29.449 -18.233   5.386  0.00  0.00    +0.001 A 
ATOM      9  C   LIG    1       28.487 -17.747   4.513  0.00  0.00    +0.001 A 
ATOM     10  C   LIG    1       27.575 -20.970   7.062  0.00  0.00    +0.008 A 
ATOM     11  C   LIG    1       26.322 -21.572   7.056  0.00  0.00    +0.001 A 
ATOM     12  C   LIG    1       27.233 -18.352   4.456  0.00  0.00    +0.009 A 
ATOM     13  C   LIG    1       25.348 -21.132   6.162  0.00  0.00    +0.005 A 
ENDBRANCH   3   4
ENDBRANCH   2   3
BRANCH   2  14
ATOM     14  C   LIG    1       22.323 -18.684   4.172  0.00  0.00    +0.119 C 
BRANCH  14  15
ATOM     15  C   LIG    1       23.070 -17.368   4.171  0.00  0.00    -0.033 A 
ATOM     16  C   LIG    1       24.363 -17.276   3.645  0.00  0.00    +0.005 A 
ATOM     17  C   LIG    1       25.038 -16.051   3.605  0.00  0.00    +0.004 A 
ATOM     18  C   LIG    1       24.438 -14.865   4.066  0.00  0.00    -0.042 A 
ATOM     19  C   LIG    1       23.162 -14.985   4.642  0.00  0.00    +0.004 A 
ATOM     20  C   LIG    1       22.482 -16.208   4.678  0.00  0.00    +0.005 A 
BRANCH  18  21
ATOM     21  C   LIG    1       25.149 -13.504   3.959  0.00  0.00    -0.013 C 
ATOM     22  C   LIG    1       24.226 -12.334   4.378  0.00  0.00    +0.015 C 
ATOM     23  C   LIG    1       25.602 -13.194   2.513  0.00  0.00    +0.015 C 
ATOM     24  C   LIG    1       26.389 -13.496   4.871  0.00  0.00    +0.015 C 
ENDBRANCH  18  21
ENDBRANCH  14  15
ENDBRANCH   2  14
TORSDOF 5
ENDMDL
