MODEL 1
REMARK VINA RESULT:      -3.2      0.000      0.000
REMARK  Name = *****
REMARK                            x       y       z     vdW  Elec       q    Type
REMARK                         _______ _______ _______ _____ _____    ______ ____
ROOT
ATOM      1 CL   LIG    1       19.819 -18.324   2.888  0.00  0.00    -0.084 Cl
ATOM      2  C   LIG    1       21.251 -18.841   3.687  0.00  0.00    +0.042 A 
ATOM      3  C   LIG    1       22.469 -18.234   3.387  0.00  0.00    +0.032 A 
ATOM      4  C   LIG    1       23.646 -18.636   4.044  0.00  0.00    +0.026 A 
ATOM      5  C   LIG    1       24.877 -17.812   3.803  0.00  0.00    +0.075 C 
ATOM      6  N   LIG    1       26.066 -18.277   3.623  0.00  0.00    -0.275 NA
ATOM      7  C   LIG    1       26.323 -19.707   3.666  0.00  0.00    +0.218 C 
ATOM      8  C   LIG    1       26.026 -20.251   5.009  0.00  0.00    +0.159 A 
ATOM      9  N   LIG    1       24.760 -20.243   5.546  0.00  0.00    -0.283 N 
ATOM     10  C   LIG    1       24.874 -20.968   6.704  0.00  0.00    +0.230 A 
ATOM     11  N   LIG    1       26.115 -21.357   6.880  0.00  0.00    -0.138 NA
ATOM     12  N   LIG    1       26.842 -20.909   5.808  0.00  0.00    -0.132 NA
ATOM     13  C   LIG    1       23.590 -19.702   4.963  0.00  0.00    +0.059 A 
ATOM     14  C   LIG    1       22.348 -20.283   5.279  0.00  0.00    +0.028 A 
ATOM     15  C   LIG    1       21.184 -19.851   4.640  0.00  0.00    +0.022 A 
ENDROOT
BRANCH   5  16
ATOM     16  C   LIG    1       24.739 -16.317   3.783  0.00  0.00    +0.001 A 
ATOM     17  C   LIG    1       23.602 -15.685   4.304  0.00  0.00    +0.010 A 
ATOM     18  C   LIG    1       23.504 -14.293   4.275  0.00  0.00    +0.001 A 
ATOM     19  C   LIG    1       24.541 -13.530   3.739  0.00  0.00    +0.000 A 
ATOM     20  C   LIG    1       25.684 -14.154   3.239  0.00  0.00    +0.001 A 
ATOM     21  C   LIG    1       25.786 -15.546   3.265  0.00  0.00    +0.010 A 
ENDBRANCH   5  16
TORSDOF 1
ENDMDL
MODEL 2
REMARK VINA RESULT:      -0.2      3.390      6.243
REMARK  Name = *****
REMARK                            x       y       z     vdW  Elec       q    Type
REMARK                         _______ _______ _______ _____ _____    ______ ____
ROOT
ATOM      1 CL   LIG    1       29.474 -21.571   6.874  0.00  0.00    -0.084 Cl
ATOM      2  C   LIG    1       28.794 -20.179   6.129  0.00  0.00    +0.042 A 
ATOM      3  C   LIG    1       27.572 -20.276   5.468  0.00  0.00    +0.032 A 
ATOM      4  C   LIG    1       26.996 -19.142   4.867  0.00  0.00    +0.026 A 
ATOM      5  C   LIG    1       25.597 -19.285   4.339  0.00  0.00    +0.075 C 
ATOM      6  N   LIG    1       25.165 -18.800   3.226  0.00  0.00    -0.275 NA
ATOM      7  C   LIG    1       26.034 -18.015   2.365  0.00  0.00    +0.218 C 
ATOM      8  C   LIG    1       26.463 -16.774   3.046  0.00  0.00    +0.159 A 
ATOM      9  N   LIG    1       27.238 -16.785   4.182  0.00  0.00    -0.283 N 
ATOM     10  C   LIG    1       27.547 -15.467   4.399  0.00  0.00    +0.230 A 
ATOM     11  N   LIG    1       26.979 -14.708   3.491  0.00  0.00    -0.138 NA
ATOM     12  N   LIG    1       26.298 -15.533   2.634  0.00  0.00    -0.132 NA
ATOM     13  C   LIG    1       27.698 -17.921   4.889  0.00  0.00    +0.059 A 
ATOM     14  C   LIG    1       28.915 -17.831   5.589  0.00  0.00    +0.028 A 
ATOM     15  C   LIG    1       29.459 -18.960   6.206  0.00  0.00    +0.022 A 
ENDROOT
BRANCH   5  16
ATOM     16  C   LIG    1       24.599 -20.039   5.168  0.00  0.00    +0.001 A 
ATOM     17  C   LIG    1       23.239 -20.057   4.831  0.00  0.00    +0.010 A 
ATOM     18  C   LIG    1       22.335 -20.771   5.619  0.00  0.00    +0.001 A 
ATOM     19  C   LIG    1       22.785 -21.477   6.735  0.00  0.00    +0.000 A 
ATOM     20  C   LIG    1       24.141 -21.479   7.062  0.00  0.00    +0.001 A 
ATOM     21  C   LIG    1       25.049 -20.766   6.277  0.00  0.00    +0.010 A 
ENDBRANCH   5  16
TORSDOF 1
ENDMDL
