MODEL 1
REMARK VINA RESULT:      -5.7      0.000      0.000
REMARK  Name = *****
REMARK                            x       y       z     vdW  Elec       q    Type
REMARK                         _______ _______ _______ _____ _____    ______ ____
ROOT
ATOM      1  CA  HYP A  1       31.674 -18.452   8.565  0.00  0.00    +0.166 C 
ATOM      2  N   HYP A  1       31.874 -19.776   9.182  0.00  0.00    -0.302 NA
ATOM      3  H   HYP A  1       32.853 -20.056   9.159  0.00  0.00    +0.123 HD
ATOM      4  CD  HYP A  1       30.984 -20.710   8.498  0.00  0.00    +0.113 C 
ATOM      5  CG  HYP A  1       29.833 -19.848   7.963  0.00  0.00    +0.130 C 
ATOM      6  CB  HYP A  1       30.162 -18.427   8.408  0.00  0.00    +0.062 C 
ENDROOT
BRANCH   1   8
ATOM      7  O   HYP A  1       32.565 -17.486  10.622  0.00  0.00    -0.249 OA
ATOM      8  C   HYP A  1       32.273 -17.344   9.442  0.00  0.00    +0.322 C 
BRANCH   8   9
ATOM      9  OXT HYP A  1       32.576 -16.201   8.781  0.00  0.00    -0.479 OA
ATOM     10  HXT HYP A  1       32.111 -16.069   7.935  0.00  0.00    +0.295 HD
ENDBRANCH   8   9
ENDBRANCH   1   8
BRANCH   5  11
ATOM     11  OD  HYP A  1       29.772 -19.884   6.537  0.00  0.00    -0.391 OA
ATOM     12  HD  HYP A  1       30.009 -19.007   6.191  0.00  0.00    +0.210 HD
ENDBRANCH   5  11
TORSDOF 3
ENDMDL
MODEL 2
REMARK VINA RESULT:      -5.4      2.686      3.637
REMARK  Name = *****
REMARK                            x       y       z     vdW  Elec       q    Type
REMARK                         _______ _______ _______ _____ _____    ______ ____
ROOT
ATOM      1  CA  HYP A  1       30.603 -20.947   8.130  0.00  0.00    +0.166 C 
ATOM      2  N   HYP A  1       29.136 -20.928   8.265  0.00  0.00    -0.302 NA
ATOM      3  H   HYP A  1       28.717 -21.795   7.929  0.00  0.00    +0.123 HD
ATOM      4  CD  HYP A  1       28.653 -19.740   7.567  0.00  0.00    +0.113 C 
ATOM      5  CG  HYP A  1       29.827 -18.753   7.597  0.00  0.00    +0.130 C 
ATOM      6  CB  HYP A  1       30.937 -19.480   8.348  0.00  0.00    +0.062 C 
ENDROOT
BRANCH   1   8
ATOM      7  O   HYP A  1       30.817 -22.113  10.264  0.00  0.00    -0.249 OA
ATOM      8  C   HYP A  1       31.232 -21.931   9.127  0.00  0.00    +0.322 C 
BRANCH   8   9
ATOM      9  OXT HYP A  1       32.229 -22.692   8.617  0.00  0.00    -0.479 OA
ATOM     10  HXT HYP A  1       32.215 -23.631   8.874  0.00  0.00    +0.295 HD
ENDBRANCH   8   9
ENDBRANCH   1   8
BRANCH   5  11
ATOM     11  OD  HYP A  1       30.286 -18.445   6.280  0.00  0.00    -0.391 OA
ATOM     12  HD  HYP A  1       30.568 -19.268   5.846  0.00  0.00    +0.210 HD
ENDBRANCH   5  11
TORSDOF 3
ENDMDL
MODEL 3
REMARK VINA RESULT:      -5.3      1.915      3.844
REMARK  Name = *****
REMARK                            x       y       z     vdW  Elec       q    Type
REMARK                         _______ _______ _______ _____ _____    ______ ____
ROOT
ATOM      1  CA  HYP A  1       31.409 -18.381   8.789  0.00  0.00    +0.166 C 
ATOM      2  N   HYP A  1       32.279 -17.228   8.496  0.00  0.00    -0.302 NA
ATOM      3  H   HYP A  1       33.243 -17.516   8.336  0.00  0.00    +0.123 HD
ATOM      4  CD  HYP A  1       32.129 -16.283   9.600  0.00  0.00    +0.113 C 
ATOM      5  CG  HYP A  1       30.736 -16.559  10.179  0.00  0.00    +0.130 C 
ATOM      6  CB  HYP A  1       30.166 -17.684   9.321  0.00  0.00    +0.062 C 
ENDROOT
BRANCH   1   8
ATOM      7  O   HYP A  1       30.785 -18.818   6.470  0.00  0.00    -0.249 OA
ATOM      8  C   HYP A  1       31.206 -19.246   7.538  0.00  0.00    +0.322 C 
BRANCH   8   9
ATOM      9  OXT HYP A  1       31.645 -20.522   7.654  0.00  0.00    -0.479 OA
ATOM     10  HXT HYP A  1       32.274 -20.686   8.380  0.00  0.00    +0.295 HD
ENDBRANCH   8   9
ENDBRANCH   1   8
BRANCH   5  11
ATOM     11  OD  HYP A  1       30.811 -17.004  11.533  0.00  0.00    -0.391 OA
ATOM     12  HD  HYP A  1       31.295 -17.847  11.561  0.00  0.00    +0.210 HD
ENDBRANCH   5  11
TORSDOF 3
ENDMDL
MODEL 4
REMARK VINA RESULT:      -5.2      1.918      2.477
REMARK  Name = *****
REMARK                            x       y       z     vdW  Elec       q    Type
REMARK                         _______ _______ _______ _____ _____    ______ ____
ROOT
ATOM      1  CA  HYP A  1       30.509 -19.829   7.397  0.00  0.00    +0.166 C 
ATOM      2  N   HYP A  1       29.821 -20.833   8.229  0.00  0.00    -0.302 NA
ATOM      3  H   HYP A  1       30.425 -21.626   8.436  0.00  0.00    +0.123 HD
ATOM      4  CD  HYP A  1       28.592 -21.203   7.531  0.00  0.00    +0.113 C 
ATOM      5  CG  HYP A  1       28.242 -19.987   6.664  0.00  0.00    +0.130 C 
ATOM      6  CB  HYP A  1       29.338 -18.967   6.949  0.00  0.00    +0.062 C 
ENDROOT
BRANCH   1   8
ATOM      7  O   HYP A  1       31.942 -17.949   8.006  0.00  0.00    -0.249 OA
ATOM      8  C   HYP A  1       31.600 -19.108   8.200  0.00  0.00    +0.322 C 
BRANCH   8   9
ATOM      9  OXT HYP A  1       32.095 -19.816   9.243  0.00  0.00    -0.479 OA
ATOM     10  HXT HYP A  1       31.617 -20.637   9.460  0.00  0.00    +0.295 HD
ENDBRANCH   8   9
ENDBRANCH   1   8
BRANCH   5  11
ATOM     11  OD  HYP A  1       28.264 -20.312   5.274  0.00  0.00    -0.391 OA
ATOM     12  HD  HYP A  1       28.908 -21.025   5.128  0.00  0.00    +0.210 HD
ENDBRANCH   5  11
TORSDOF 3
ENDMDL
MODEL 5
REMARK VINA RESULT:      -5.2      2.038      2.468
REMARK  Name = *****
REMARK                            x       y       z     vdW  Elec       q    Type
REMARK                         _______ _______ _______ _____ _____    ______ ____
ROOT
ATOM      1  CA  HYP A  1       30.229 -18.885   7.803  0.00  0.00    +0.166 C 
ATOM      2  N   HYP A  1       30.272 -18.380   6.419  0.00  0.00    -0.302 NA
ATOM      3  H   HYP A  1       30.326 -17.363   6.392  0.00  0.00    +0.123 HD
ATOM      4  CD  HYP A  1       29.105 -18.920   5.727  0.00  0.00    +0.113 C 
ATOM      5  CG  HYP A  1       28.759 -20.215   6.473  0.00  0.00    +0.130 C 
ATOM      6  CB  HYP A  1       29.804 -20.327   7.577  0.00  0.00    +0.062 C 
ENDROOT
BRANCH   1   8
ATOM      7  O   HYP A  1       32.103 -19.518   9.234  0.00  0.00    -0.249 OA
ATOM      8  C   HYP A  1       31.583 -18.688   8.499  0.00  0.00    +0.322 C 
BRANCH   8   9
ATOM      9  OXT HYP A  1       32.241 -17.557   8.148  0.00  0.00    -0.479 OA
ATOM     10  HXT HYP A  1       33.125 -17.688   7.761  0.00  0.00    +0.295 HD
ENDBRANCH   8   9
ENDBRANCH   1   8
BRANCH   5  11
ATOM     11  OD  HYP A  1       27.463 -20.146   7.068  0.00  0.00    -0.391 OA
ATOM     12  HD  HYP A  1       26.804 -20.450   6.421  0.00  0.00    +0.210 HD
ENDBRANCH   5  11
TORSDOF 3
ENDMDL
MODEL 6
REMARK VINA RESULT:      -5.1      1.380      3.911
REMARK  Name = *****
REMARK                            x       y       z     vdW  Elec       q    Type
REMARK                         _______ _______ _______ _____ _____    ______ ____
ROOT
ATOM      1  CA  HYP A  1       30.305 -18.289   8.444  0.00  0.00    +0.166 C 
ATOM      2  N   HYP A  1       29.938 -18.005   9.844  0.00  0.00    -0.302 NA
ATOM      3  H   HYP A  1       28.973 -17.689   9.922  0.00  0.00    +0.123 HD
ATOM      4  CD  HYP A  1       30.910 -17.045  10.358  0.00  0.00    +0.113 C 
ATOM      5  CG  HYP A  1       32.175 -17.264   9.519  0.00  0.00    +0.130 C 
ATOM      6  CB  HYP A  1       31.819 -18.388   8.551  0.00  0.00    +0.062 C 
ENDROOT
BRANCH   1   8
ATOM      7  O   HYP A  1       28.450 -19.865   8.258  0.00  0.00    -0.249 OA
ATOM      8  C   HYP A  1       29.587 -19.546   7.935  0.00  0.00    +0.322 C 
BRANCH   8   9
ATOM      9  OXT HYP A  1       30.264 -20.239   6.988  0.00  0.00    -0.479 OA
ATOM     10  HXT HYP A  1       29.765 -20.438   6.176  0.00  0.00    +0.295 HD
ENDBRANCH   8   9
ENDBRANCH   1   8
BRANCH   5  11
ATOM     11  OD  HYP A  1       32.514 -16.098   8.768  0.00  0.00    -0.391 OA
ATOM     12  HD  HYP A  1       31.988 -16.088   7.950  0.00  0.00    +0.210 HD
ENDBRANCH   5  11
TORSDOF 3
ENDMDL
MODEL 7
REMARK VINA RESULT:      -5.0      8.946      9.864
REMARK  Name = *****
REMARK                            x       y       z     vdW  Elec       q    Type
REMARK                         _______ _______ _______ _____ _____    ______ ____
ROOT
ATOM      1  CA  HYP A  1       24.276 -24.985   6.449  0.00  0.00    +0.166 C 
ATOM      2  N   HYP A  1       24.398 -25.225   4.999  0.00  0.00    -0.302 NA
ATOM      3  H   HYP A  1       23.504 -25.482   4.585  0.00  0.00    +0.123 HD
ATOM      4  CD  HYP A  1       25.437 -26.234   4.815  0.00  0.00    +0.113 C 
ATOM      5  CG  HYP A  1       26.347 -26.103   6.043  0.00  0.00    +0.130 C 
ATOM      6  CB  HYP A  1       25.738 -24.975   6.869  0.00  0.00    +0.062 C 
ENDROOT
BRANCH   1   8
ATOM      7  O   HYP A  1       24.013 -22.605   6.920  0.00  0.00    -0.249 OA
ATOM      8  C   HYP A  1       23.492 -23.695   6.726  0.00  0.00    +0.322 C 
BRANCH   8   9
ATOM      9  OXT HYP A  1       22.147 -23.818   6.624  0.00  0.00    -0.479 OA
ATOM     10  HXT HYP A  1       21.671 -23.933   7.466  0.00  0.00    +0.295 HD
ENDBRANCH   8   9
ENDBRANCH   1   8
BRANCH   5  11
ATOM     11  OD  HYP A  1       26.348 -27.299   6.823  0.00  0.00    -0.391 OA
ATOM     12  HD  HYP A  1       25.487 -27.739   6.723  0.00  0.00    +0.210 HD
ENDBRANCH   5  11
TORSDOF 3
ENDMDL
MODEL 8
REMARK VINA RESULT:      -4.9      8.501      9.733
REMARK  Name = *****
REMARK                            x       y       z     vdW  Elec       q    Type
REMARK                         _______ _______ _______ _____ _____    ______ ____
ROOT
ATOM      1  CA  HYP A  1       24.699 -23.913   5.991  0.00  0.00    +0.166 C 
ATOM      2  N   HYP A  1       24.679 -22.886   4.933  0.00  0.00    -0.302 NA
ATOM      3  H   HYP A  1       25.590 -22.790   4.487  0.00  0.00    +0.123 HD
ATOM      4  CD  HYP A  1       24.194 -21.650   5.540  0.00  0.00    +0.113 C 
ATOM      5  CG  HYP A  1       23.335 -22.098   6.730  0.00  0.00    +0.130 C 
ATOM      6  CB  HYP A  1       23.390 -23.621   6.707  0.00  0.00    +0.062 C 
ENDROOT
BRANCH   1   8
ATOM      7  O   HYP A  1       25.895 -25.818   5.042  0.00  0.00    -0.249 OA
ATOM      8  C   HYP A  1       24.832 -25.318   5.387  0.00  0.00    +0.322 C 
BRANCH   8   9
ATOM      9  OXT HYP A  1       23.683 -26.036   5.368  0.00  0.00    -0.479 OA
ATOM     10  HXT HYP A  1       22.861 -25.514   5.368  0.00  0.00    +0.295 HD
ENDBRANCH   8   9
ENDBRANCH   1   8
BRANCH   5  11
ATOM     11  OD  HYP A  1       23.874 -21.634   7.968  0.00  0.00    -0.391 OA
ATOM     12  HD  HYP A  1       23.986 -20.670   7.920  0.00  0.00    +0.210 HD
ENDBRANCH   5  11
TORSDOF 3
ENDMDL
MODEL 9
REMARK VINA RESULT:      -4.9      7.836      8.628
REMARK  Name = *****
REMARK                            x       y       z     vdW  Elec       q    Type
REMARK                         _______ _______ _______ _____ _____    ______ ____
ROOT
ATOM      1  CA  HYP A  1       24.203 -21.760   5.033  0.00  0.00    +0.166 C 
ATOM      2  N   HYP A  1       25.285 -22.623   5.541  0.00  0.00    -0.302 NA
ATOM      3  H   HYP A  1       25.825 -23.033   4.781  0.00  0.00    +0.123 HD
ATOM      4  CD  HYP A  1       24.670 -23.613   6.420  0.00  0.00    +0.113 C 
ATOM      5  CG  HYP A  1       23.385 -22.952   6.934  0.00  0.00    +0.130 C 
ATOM      6  CB  HYP A  1       23.365 -21.570   6.289  0.00  0.00    +0.062 C 
ENDROOT
BRANCH   1   8
ATOM      7  O   HYP A  1       24.092 -19.514   4.083  0.00  0.00    -0.249 OA
ATOM      8  C   HYP A  1       24.772 -20.478   4.411  0.00  0.00    +0.322 C 
BRANCH   8   9
ATOM      9  OXT HYP A  1       26.125 -20.430   4.352  0.00  0.00    -0.479 OA
ATOM     10  HXT HYP A  1       26.495 -19.860   3.654  0.00  0.00    +0.295 HD
ENDBRANCH   8   9
ENDBRANCH   1   8
BRANCH   5  11
ATOM     11  OD  HYP A  1       22.224 -23.672   6.520  0.00  0.00    -0.391 OA
ATOM     12  HD  HYP A  1       22.355 -24.616   6.713  0.00  0.00    +0.210 HD
ENDBRANCH   5  11
TORSDOF 3
ENDMDL
