MODEL 1
REMARK VINA RESULT:      -4.9      0.000      0.000
REMARK  Name = *****
REMARK                            x       y       z     vdW  Elec       q    Type
REMARK                         _______ _______ _______ _____ _____    ______ ____
ROOT
ATOM      1  C   LIG    1       24.352 -20.972   3.742  0.00  0.00    +0.048 C 
ATOM      2  C   LIG    1       23.640 -19.685   4.013  0.00  0.00    -0.008 A 
ATOM      3  C   LIG    1       24.408 -18.406   3.816  0.00  0.00    +0.143 A 
ATOM      4  N   LIG    1       23.737 -17.214   4.071  0.00  0.00    -0.267 N 
ATOM      5  C   LIG    1       24.375 -15.984   3.881  0.00  0.00    +0.269 C 
ATOM      6  C   LIG    1       25.811 -16.045   3.487  0.00  0.00    +0.105 C 
ATOM      7  C   LIG    1       26.308 -17.273   3.275  0.00  0.00    +0.130 C 
ATOM      8  O   LIG    1       23.791 -14.904   3.995  0.00  0.00    -0.267 OA
ATOM      9  C   LIG    1       22.409 -17.218   4.484  0.00  0.00    +0.096 A 
ATOM     10  C   LIG    1       21.725 -18.354   4.661  0.00  0.00    +0.019 A 
ATOM     11  N   LIG    1       25.644 -18.457   3.422  0.00  0.00    -0.236 NA
ATOM     12  C   LIG    1       22.362 -19.619   4.419  0.00  0.00    +0.008 A 
ENDROOT
BRANCH   6  13
ATOM     13  C   LIG    1       26.585 -14.854   3.332  0.00  0.00    +0.211 A 
ATOM     14  N   LIG    1       26.625 -14.064   2.241  0.00  0.00    -0.133 NA
ATOM     15  N   LIG    1       27.528 -13.156   2.637  0.00  0.00    -0.176 N 
ATOM     16  H   LIG    1       27.804 -12.372   2.053  0.00  0.00    +0.214 HD
ATOM     17  N   LIG    1       28.059 -13.348   3.848  0.00  0.00    -0.049 NA
ATOM     18  N   LIG    1       27.463 -14.440   4.304  0.00  0.00    -0.108 NA
ENDBRANCH   6  13
TORSDOF 1
ENDMDL
MODEL 2
REMARK VINA RESULT:      -4.5      2.085      5.414
REMARK  Name = *****
REMARK                            x       y       z     vdW  Elec       q    Type
REMARK                         _______ _______ _______ _____ _____    ______ ____
ROOT
ATOM      1  C   LIG    1       27.527 -13.854   2.943  0.00  0.00    +0.048 C 
ATOM      2  C   LIG    1       26.113 -14.149   3.332  0.00  0.00    -0.008 A 
ATOM      3  C   LIG    1       25.715 -15.593   3.476  0.00  0.00    +0.143 A 
ATOM      4  N   LIG    1       24.396 -15.857   3.838  0.00  0.00    -0.267 N 
ATOM      5  C   LIG    1       23.959 -17.173   4.021  0.00  0.00    +0.269 C 
ATOM      6  C   LIG    1       24.954 -18.241   3.717  0.00  0.00    +0.105 C 
ATOM      7  C   LIG    1       26.183 -17.820   3.386  0.00  0.00    +0.130 C 
ATOM      8  O   LIG    1       22.834 -17.451   4.440  0.00  0.00    -0.267 OA
ATOM      9  C   LIG    1       23.497 -14.820   4.062  0.00  0.00    +0.096 A 
ATOM     10  C   LIG    1       23.850 -13.536   3.933  0.00  0.00    +0.019 A 
ATOM     11  N   LIG    1       26.594 -16.524   3.263  0.00  0.00    -0.236 NA
ATOM     12  C   LIG    1       25.195 -13.196   3.557  0.00  0.00    +0.008 A 
ENDROOT
BRANCH   6  13
ATOM     13  C   LIG    1       24.600 -19.623   3.800  0.00  0.00    +0.211 A 
ATOM     14  N   LIG    1       23.941 -20.336   2.865  0.00  0.00    -0.133 NA
ATOM     15  N   LIG    1       23.849 -21.519   3.490  0.00  0.00    -0.176 N 
ATOM     16  H   LIG    1       23.412 -22.329   3.060  0.00  0.00    +0.214 HD
ATOM     17  N   LIG    1       24.358 -21.571   4.724  0.00  0.00    -0.049 NA
ATOM     18  N   LIG    1       24.840 -20.356   4.937  0.00  0.00    -0.108 NA
ENDBRANCH   6  13
TORSDOF 1
ENDMDL
MODEL 3
REMARK VINA RESULT:      -4.2      2.317      5.960
REMARK  Name = *****
REMARK                            x       y       z     vdW  Elec       q    Type
REMARK                         _______ _______ _______ _____ _____    ______ ____
ROOT
ATOM      1  C   LIG    1       23.860 -12.395   4.133  0.00  0.00    +0.048 C 
ATOM      2  C   LIG    1       24.902 -13.401   3.758  0.00  0.00    -0.008 A 
ATOM      3  C   LIG    1       24.532 -14.857   3.847  0.00  0.00    +0.143 A 
ATOM      4  N   LIG    1       25.509 -15.785   3.497  0.00  0.00    -0.267 N 
ATOM      5  C   LIG    1       25.230 -17.155   3.525  0.00  0.00    +0.269 C 
ATOM      6  C   LIG    1       23.882 -17.539   4.031  0.00  0.00    +0.105 C 
ATOM      7  C   LIG    1       23.055 -16.524   4.322  0.00  0.00    +0.130 C 
ATOM      8  O   LIG    1       26.027 -18.007   3.126  0.00  0.00    -0.267 OA
ATOM      9  C   LIG    1       26.769 -15.370   3.077  0.00  0.00    +0.096 A 
ATOM     10  C   LIG    1       27.099 -14.076   2.999  0.00  0.00    +0.019 A 
ATOM     11  N   LIG    1       23.341 -15.191   4.237  0.00  0.00    -0.236 NA
ATOM     12  C   LIG    1       26.137 -13.068   3.351  0.00  0.00    +0.008 A 
ENDROOT
BRANCH   6  13
ATOM     13  C   LIG    1       23.510 -18.911   4.170  0.00  0.00    +0.211 A 
ATOM     14  N   LIG    1       24.008 -19.949   3.468  0.00  0.00    -0.133 NA
ATOM     15  N   LIG    1       23.274 -20.951   3.973  0.00  0.00    -0.176 N 
ATOM     16  H   LIG    1       23.395 -21.916   3.677  0.00  0.00    +0.214 HD
ATOM     17  N   LIG    1       22.361 -20.608   4.884  0.00  0.00    -0.049 NA
ATOM     18  N   LIG    1       22.499 -19.297   5.017  0.00  0.00    -0.108 NA
ENDBRANCH   6  13
TORSDOF 1
ENDMDL
MODEL 4
REMARK VINA RESULT:      -3.8      2.086      3.075
REMARK  Name = *****
REMARK                            x       y       z     vdW  Elec       q    Type
REMARK                         _______ _______ _______ _____ _____    ______ ____
ROOT
ATOM      1  C   LIG    1       21.989 -19.896   4.800  0.00  0.00    +0.048 C 
ATOM      2  C   LIG    1       23.303 -19.408   4.278  0.00  0.00    -0.008 A 
ATOM      3  C   LIG    1       23.505 -17.920   4.175  0.00  0.00    +0.143 A 
ATOM      4  N   LIG    1       24.731 -17.476   3.687  0.00  0.00    -0.267 N 
ATOM      5  C   LIG    1       25.005 -16.108   3.591  0.00  0.00    +0.269 C 
ATOM      6  C   LIG    1       23.886 -15.190   3.950  0.00  0.00    +0.105 C 
ATOM      7  C   LIG    1       22.771 -15.778   4.408  0.00  0.00    +0.130 C 
ATOM      8  O   LIG    1       26.109 -15.669   3.264  0.00  0.00    -0.267 OA
ATOM      9  C   LIG    1       25.723 -18.381   3.321  0.00  0.00    +0.096 A 
ATOM     10  C   LIG    1       25.543 -19.703   3.411  0.00  0.00    +0.019 A 
ATOM     11  N   LIG    1       22.551 -17.119   4.537  0.00  0.00    -0.236 NA
ATOM     12  C   LIG    1       24.299 -20.227   3.902  0.00  0.00    +0.008 A 
ENDROOT
BRANCH   6  13
ATOM     13  C   LIG    1       24.026 -13.774   3.824  0.00  0.00    +0.211 A 
ATOM     14  N   LIG    1       24.201 -12.896   4.832  0.00  0.00    -0.133 NA
ATOM     15  N   LIG    1       24.215 -11.745   4.145  0.00  0.00    -0.176 N 
ATOM     16  H   LIG    1       24.350 -10.844   4.596  0.00  0.00    +0.214 HD
ATOM     17  N   LIG    1       24.029 -11.847   2.827  0.00  0.00    -0.049 NA
ATOM     18  N   LIG    1       23.901 -13.148   2.608  0.00  0.00    -0.108 NA
ENDBRANCH   6  13
TORSDOF 1
ENDMDL
MODEL 5
REMARK VINA RESULT:      -3.5      1.223      2.304
REMARK  Name = *****
REMARK                            x       y       z     vdW  Elec       q    Type
REMARK                         _______ _______ _______ _____ _____    ______ ____
ROOT
ATOM      1  C   LIG    1       21.358 -18.575   4.425  0.00  0.00    +0.048 C 
ATOM      2  C   LIG    1       22.781 -18.913   4.113  0.00  0.00    -0.008 A 
ATOM      3  C   LIG    1       23.751 -17.774   3.950  0.00  0.00    +0.143 A 
ATOM      4  N   LIG    1       25.073 -18.099   3.659  0.00  0.00    -0.267 N 
ATOM      5  C   LIG    1       26.038 -17.096   3.524  0.00  0.00    +0.269 C 
ATOM      6  C   LIG    1       25.543 -15.693   3.618  0.00  0.00    +0.105 C 
ATOM      7  C   LIG    1       24.241 -15.550   3.909  0.00  0.00    +0.130 C 
ATOM      8  O   LIG    1       27.237 -17.339   3.369  0.00  0.00    -0.267 OA
ATOM      9  C   LIG    1       25.469 -19.426   3.534  0.00  0.00    +0.096 A 
ATOM     10  C   LIG    1       24.608 -20.439   3.676  0.00  0.00    +0.019 A 
ATOM     11  N   LIG    1       23.331 -16.553   4.085  0.00  0.00    -0.236 NA
ATOM     12  C   LIG    1       23.228 -20.171   3.973  0.00  0.00    +0.008 A 
ENDROOT
BRANCH   6  13
ATOM     13  C   LIG    1       26.425 -14.586   3.427  0.00  0.00    +0.211 A 
ATOM     14  N   LIG    1       26.723 -13.996   2.252  0.00  0.00    -0.133 NA
ATOM     15  N   LIG    1       27.610 -13.079   2.665  0.00  0.00    -0.176 N 
ATOM     16  H   LIG    1       28.048 -12.420   2.027  0.00  0.00    +0.214 HD
ATOM     17  N   LIG    1       27.899 -13.088   3.969  0.00  0.00    -0.049 NA
ATOM     18  N   LIG    1       27.146 -14.056   4.470  0.00  0.00    -0.108 NA
ENDBRANCH   6  13
TORSDOF 1
ENDMDL
MODEL 6
REMARK VINA RESULT:      -2.5      1.959      2.339
REMARK  Name = *****
REMARK                            x       y       z     vdW  Elec       q    Type
REMARK                         _______ _______ _______ _____ _____    ______ ____
ROOT
ATOM      1  C   LIG    1       25.770 -20.153   3.132  0.00  0.00    +0.048 C 
ATOM      2  C   LIG    1       24.547 -19.535   3.733  0.00  0.00    -0.008 A 
ATOM      3  C   LIG    1       24.467 -18.033   3.764  0.00  0.00    +0.143 A 
ATOM      4  N   LIG    1       23.325 -17.468   4.326  0.00  0.00    -0.267 N 
ATOM      5  C   LIG    1       23.164 -16.079   4.363  0.00  0.00    +0.269 C 
ATOM      6  C   LIG    1       24.311 -15.273   3.857  0.00  0.00    +0.105 C 
ATOM      7  C   LIG    1       25.335 -15.971   3.343  0.00  0.00    +0.130 C 
ATOM      8  O   LIG    1       22.128 -15.537   4.755  0.00  0.00    -0.267 OA
ATOM      9  C   LIG    1       22.305 -18.270   4.827  0.00  0.00    +0.096 A 
ATOM     10  C   LIG    1       22.377 -19.605   4.802  0.00  0.00    +0.019 A 
ATOM     11  N   LIG    1       25.442 -17.330   3.276  0.00  0.00    -0.236 NA
ATOM     12  C   LIG    1       23.531 -20.251   4.240  0.00  0.00    +0.008 A 
ENDROOT
BRANCH   6  13
ATOM     13  C   LIG    1       24.289 -13.846   3.909  0.00  0.00    +0.211 A 
ATOM     14  N   LIG    1       24.551 -13.082   4.989  0.00  0.00    -0.133 NA
ATOM     15  N   LIG    1       24.334 -11.863   4.475  0.00  0.00    -0.176 N 
ATOM     16  H   LIG    1       24.457 -11.013   5.020  0.00  0.00    +0.214 HD
ATOM     17  N   LIG    1       23.933 -11.825   3.202  0.00  0.00    -0.049 NA
ATOM     18  N   LIG    1       23.895 -13.096   2.828  0.00  0.00    -0.108 NA
ENDBRANCH   6  13
TORSDOF 1
ENDMDL
