MODEL 1
REMARK VINA RESULT:      -7.4      0.000      0.000
REMARK  Name = *****
REMARK                            x       y       z     vdW  Elec       q    Type
REMARK                         _______ _______ _______ _____ _____    ______ ____
ROOT
ATOM      1  C   LIG    1       25.925 -23.256   7.273  0.00  0.00    +0.040 C 
ATOM      2  C   LIG    1       25.089 -22.608   6.148  0.00  0.00    +0.135 C 
ATOM      3  S   LIG    1       23.490 -22.032   6.879  0.00  0.00    -0.002 S 
ATOM      4  O   LIG    1       23.608 -21.979   8.322  0.00  0.00    -0.172 OA
ATOM      5  O   LIG    1       22.417 -22.810   6.284  0.00  0.00    -0.172 OA
ATOM      6  C   LIG    1       23.452 -20.351   6.216  0.00  0.00    +0.229 C 
ATOM      7  N   LIG    1       24.590 -20.390   5.267  0.00  0.00    -0.263 N 
ATOM      8  C   LIG    1       23.772 -20.529   4.183  0.00  0.00    +0.221 C 
ATOM      9  O   LIG    1       23.986 -21.069   3.118  0.00  0.00    -0.275 OA
ATOM     10  C   LIG    1       22.554 -20.070   4.998  0.00  0.00    +0.142 C 
ATOM     11  C   LIG    1       25.681 -21.320   5.536  0.00  0.00    +0.215 C 
ENDROOT
BRANCH  11  12
ATOM     12  C   LIG    1       26.663 -20.620   6.471  0.00  0.00    +0.328 C 
ATOM     13  O   LIG    1       26.347 -20.157   7.558  0.00  0.00    -0.249 OA
BRANCH  12  14
ATOM     14  O   LIG    1       27.934 -20.593   6.011  0.00  0.00    -0.479 OA
ATOM     15  H   LIG    1       28.084 -20.118   5.166  0.00  0.00    +0.295 HD
ENDBRANCH  12  14
ENDBRANCH  11  12
BRANCH   2  16
ATOM     16  C   LIG    1       24.753 -23.659   5.058  0.00  0.00    +0.177 C 
BRANCH  16  17
ATOM     17  N   LIG    1       24.903 -25.052   5.433  0.00  0.00    -0.249 N 
ATOM     18  N   LIG    1       25.945 -25.787   5.008  0.00  0.00    -0.066 NA
ATOM     19  N   LIG    1       25.808 -27.005   5.512  0.00  0.00    -0.138 NA
ATOM     20  C   LIG    1       24.652 -27.034   6.238  0.00  0.00    +0.156 A 
ATOM     21  C   LIG    1       24.044 -25.803   6.180  0.00  0.00    +0.130 A 
ENDBRANCH  16  17
ENDBRANCH   2  16
TORSDOF 4
ENDMDL
MODEL 2
REMARK VINA RESULT:      -6.0      2.726      4.627
REMARK  Name = *****
REMARK                            x       y       z     vdW  Elec       q    Type
REMARK                         _______ _______ _______ _____ _____    ______ ____
ROOT
ATOM      1  C   LIG    1       26.154 -19.863   6.495  0.00  0.00    +0.040 C 
ATOM      2  C   LIG    1       25.902 -21.385   6.460  0.00  0.00    +0.135 C 
ATOM      3  S   LIG    1       24.518 -21.766   7.627  0.00  0.00    -0.002 S 
ATOM      4  O   LIG    1       23.802 -20.546   7.943  0.00  0.00    -0.172 OA
ATOM      5  O   LIG    1       25.051 -22.576   8.709  0.00  0.00    -0.172 OA
ATOM      6  C   LIG    1       23.500 -22.799   6.548  0.00  0.00    +0.229 C 
ATOM      7  N   LIG    1       24.403 -22.982   5.388  0.00  0.00    -0.263 N 
ATOM      8  C   LIG    1       24.762 -24.240   5.776  0.00  0.00    +0.221 C 
ATOM      9  O   LIG    1       25.794 -24.846   5.577  0.00  0.00    -0.275 OA
ATOM     10  C   LIG    1       23.563 -24.326   6.732  0.00  0.00    +0.142 C 
ATOM     11  C   LIG    1       25.393 -21.946   5.114  0.00  0.00    +0.215 C 
ENDROOT
BRANCH  11  12
ATOM     12  C   LIG    1       24.722 -20.884   4.249  0.00  0.00    +0.328 C 
ATOM     13  O   LIG    1       23.533 -20.605   4.323  0.00  0.00    -0.249 OA
BRANCH  12  14
ATOM     14  O   LIG    1       25.568 -20.240   3.415  0.00  0.00    -0.479 OA
ATOM     15  H   LIG    1       25.166 -19.593   2.796  0.00  0.00    +0.295 HD
ENDBRANCH  12  14
ENDBRANCH  11  12
BRANCH   2  16
ATOM     16  C   LIG    1       27.158 -22.146   6.960  0.00  0.00    +0.177 C 
BRANCH  16  17
ATOM     17  N   LIG    1       28.334 -21.345   7.236  0.00  0.00    -0.249 N 
ATOM     18  N   LIG    1       28.842 -21.244   8.477  0.00  0.00    -0.066 NA
ATOM     19  N   LIG    1       29.904 -20.454   8.412  0.00  0.00    -0.138 NA
ATOM     20  C   LIG    1       30.042 -20.037   7.119  0.00  0.00    +0.156 A 
ATOM     21  C   LIG    1       29.033 -20.574   6.356  0.00  0.00    +0.130 A 
ENDBRANCH  16  17
ENDBRANCH   2  16
TORSDOF 4
ENDMDL
MODEL 3
REMARK VINA RESULT:      -5.2      5.030      7.090
REMARK  Name = *****
REMARK                            x       y       z     vdW  Elec       q    Type
REMARK                         _______ _______ _______ _____ _____    ______ ____
ROOT
ATOM      1  C   LIG    1       29.172 -21.051   6.744  0.00  0.00    +0.040 C 
ATOM      2  C   LIG    1       29.445 -19.959   7.801  0.00  0.00    +0.135 C 
ATOM      3  S   LIG    1       31.010 -20.393   8.686  0.00  0.00    -0.002 S 
ATOM      4  O   LIG    1       31.745 -21.376   7.916  0.00  0.00    -0.172 OA
ATOM      5  O   LIG    1       30.680 -20.679  10.072  0.00  0.00    -0.172 OA
ATOM      6  C   LIG    1       31.855 -18.798   8.588  0.00  0.00    +0.229 C 
ATOM      7  N   LIG    1       30.775 -17.932   8.057  0.00  0.00    -0.263 N 
ATOM      8  C   LIG    1       30.509 -17.393   9.282  0.00  0.00    +0.221 C 
ATOM      9  O   LIG    1       29.471 -16.947   9.722  0.00  0.00    -0.275 OA
ATOM     10  C   LIG    1       31.852 -17.895   9.834  0.00  0.00    +0.142 C 
ATOM     11  C   LIG    1       29.733 -18.549   7.243  0.00  0.00    +0.215 C 
ENDROOT
BRANCH  11  12
ATOM     12  C   LIG    1       30.231 -18.576   5.802  0.00  0.00    +0.328 C 
ATOM     13  O   LIG    1       31.297 -19.074   5.464  0.00  0.00    -0.249 OA
BRANCH  12  14
ATOM     14  O   LIG    1       29.368 -18.037   4.912  0.00  0.00    -0.479 OA
ATOM     15  H   LIG    1       28.870 -18.666   4.348  0.00  0.00    +0.295 HD
ENDBRANCH  12  14
ENDBRANCH  11  12
BRANCH   2  16
ATOM     16  C   LIG    1       28.304 -19.937   8.853  0.00  0.00    +0.177 C 
BRANCH  16  17
ATOM     17  N   LIG    1       26.984 -20.312   8.384  0.00  0.00    -0.249 N 
ATOM     18  N   LIG    1       26.035 -20.749   9.231  0.00  0.00    -0.066 NA
ATOM     19  N   LIG    1       24.949 -21.008   8.516  0.00  0.00    -0.138 NA
ATOM     20  C   LIG    1       25.237 -20.754   7.205  0.00  0.00    +0.156 A 
ATOM     21  C   LIG    1       26.540 -20.333   7.096  0.00  0.00    +0.130 A 
ENDBRANCH  16  17
ENDBRANCH   2  16
TORSDOF 4
ENDMDL
MODEL 4
REMARK VINA RESULT:      -5.1      7.636      9.771
REMARK  Name = *****
REMARK                            x       y       z     vdW  Elec       q    Type
REMARK                         _______ _______ _______ _____ _____    ______ ____
ROOT
ATOM      1  C   LIG    1       23.927 -30.092   9.158  0.00  0.00    +0.040 C 
ATOM      2  C   LIG    1       24.823 -31.032   8.323  0.00  0.00    +0.135 C 
ATOM      3  S   LIG    1       23.860 -32.567   7.952  0.00  0.00    -0.002 S 
ATOM      4  O   LIG    1       22.451 -32.322   8.184  0.00  0.00    -0.172 OA
ATOM      5  O   LIG    1       24.506 -33.679   8.627  0.00  0.00    -0.172 OA
ATOM      6  C   LIG    1       24.166 -32.683   6.175  0.00  0.00    +0.229 C 
ATOM      7  N   LIG    1       25.196 -31.634   5.990  0.00  0.00    -0.263 N 
ATOM      8  C   LIG    1       26.212 -32.542   5.935  0.00  0.00    +0.221 C 
ATOM      9  O   LIG    1       27.378 -32.417   6.245  0.00  0.00    -0.275 OA
ATOM     10  C   LIG    1       25.222 -33.689   5.683  0.00  0.00    +0.142 C 
ATOM     11  C   LIG    1       25.212 -30.512   6.922  0.00  0.00    +0.215 C 
ENDROOT
BRANCH  11  12
ATOM     12  C   LIG    1       24.242 -29.460   6.394  0.00  0.00    +0.328 C 
ATOM     13  O   LIG    1       24.393 -28.257   6.562  0.00  0.00    -0.249 OA
BRANCH  12  14
ATOM     14  O   LIG    1       23.213 -29.970   5.681  0.00  0.00    -0.479 OA
ATOM     15  H   LIG    1       22.559 -29.327   5.333  0.00  0.00    +0.295 HD
ENDBRANCH  12  14
ENDBRANCH  11  12
BRANCH   2  16
ATOM     16  C   LIG    1       26.070 -31.450   9.145  0.00  0.00    +0.177 C 
BRANCH  16  17
ATOM     17  N   LIG    1       26.573 -30.480  10.099  0.00  0.00    -0.249 N 
ATOM     18  N   LIG    1       27.401 -29.489   9.725  0.00  0.00    -0.066 NA
ATOM     19  N   LIG    1       27.681 -28.773  10.804  0.00  0.00    -0.138 NA
ATOM     20  C   LIG    1       27.040 -29.342  11.867  0.00  0.00    +0.156 A 
ATOM     21  C   LIG    1       26.347 -30.450  11.443  0.00  0.00    +0.130 A 
ENDBRANCH  16  17
ENDBRANCH   2  16
TORSDOF 4
ENDMDL
MODEL 5
REMARK VINA RESULT:      -4.9      1.700      3.635
REMARK  Name = *****
REMARK                            x       y       z     vdW  Elec       q    Type
REMARK                         _______ _______ _______ _____ _____    ______ ____
ROOT
ATOM      1  C   LIG    1       24.755 -22.872   4.618  0.00  0.00    +0.040 C 
ATOM      2  C   LIG    1       25.195 -22.609   6.075  0.00  0.00    +0.135 C 
ATOM      3  S   LIG    1       26.386 -21.194   6.070  0.00  0.00    -0.002 S 
ATOM      4  O   LIG    1       26.284 -20.480   4.813  0.00  0.00    -0.172 OA
ATOM      5  O   LIG    1       27.681 -21.694   6.499  0.00  0.00    -0.172 OA
ATOM      6  C   LIG    1       25.661 -20.195   7.391  0.00  0.00    +0.229 C 
ATOM      7  N   LIG    1       24.640 -21.125   7.929  0.00  0.00    -0.263 N 
ATOM      8  C   LIG    1       25.413 -21.466   9.000  0.00  0.00    +0.221 C 
ATOM      9  O   LIG    1       25.441 -22.498   9.637  0.00  0.00    -0.275 OA
ATOM     10  C   LIG    1       26.316 -20.242   8.782  0.00  0.00    +0.142 C 
ATOM     11  C   LIG    1       24.080 -22.130   7.030  0.00  0.00    +0.215 C 
ENDROOT
BRANCH  11  12
ATOM     12  C   LIG    1       22.909 -21.488   6.295  0.00  0.00    +0.328 C 
ATOM     13  O   LIG    1       22.822 -20.287   6.080  0.00  0.00    -0.249 OA
BRANCH  12  14
ATOM     14  O   LIG    1       21.984 -22.372   5.858  0.00  0.00    -0.479 OA
ATOM     15  H   LIG    1       21.072 -22.030   5.740  0.00  0.00    +0.295 HD
ENDBRANCH  12  14
ENDBRANCH  11  12
BRANCH   2  16
ATOM     16  C   LIG    1       25.941 -23.846   6.639  0.00  0.00    +0.177 C 
BRANCH  16  17
ATOM     17  N   LIG    1       25.500 -25.142   6.161  0.00  0.00    -0.249 N 
ATOM     18  N   LIG    1       26.326 -25.962   5.486  0.00  0.00    -0.066 NA
ATOM     19  N   LIG    1       25.645 -27.059   5.188  0.00  0.00    -0.138 NA
ATOM     20  C   LIG    1       24.373 -26.908   5.661  0.00  0.00    +0.156 A 
ATOM     21  C   LIG    1       24.252 -25.680   6.263  0.00  0.00    +0.130 A 
ENDBRANCH  16  17
ENDBRANCH   2  16
TORSDOF 4
ENDMDL
MODEL 6
REMARK VINA RESULT:      -4.8      7.761      9.799
REMARK  Name = *****
REMARK                            x       y       z     vdW  Elec       q    Type
REMARK                         _______ _______ _______ _____ _____    ______ ____
ROOT
ATOM      1  C   LIG    1       27.058 -32.060   8.162  0.00  0.00    +0.040 C 
ATOM      2  C   LIG    1       25.653 -31.755   8.726  0.00  0.00    +0.135 C 
ATOM      3  S   LIG    1       25.217 -33.084   9.935  0.00  0.00    -0.002 S 
ATOM      4  O   LIG    1       26.416 -33.802  10.319  0.00  0.00    -0.172 OA
ATOM      5  O   LIG    1       24.087 -33.825   9.402  0.00  0.00    -0.172 OA
ATOM      6  C   LIG    1       24.664 -32.056  11.315  0.00  0.00    +0.229 C 
ATOM      7  N   LIG    1       24.638 -30.715  10.684  0.00  0.00    -0.263 N 
ATOM      8  C   LIG    1       23.282 -30.737  10.530  0.00  0.00    +0.221 C 
ATOM      9  O   LIG    1       22.589 -30.194   9.695  0.00  0.00    -0.275 OA
ATOM     10  C   LIG    1       23.151 -31.889  11.538  0.00  0.00    +0.142 C 
ATOM     11  C   LIG    1       25.538 -30.463   9.564  0.00  0.00    +0.215 C 
ENDROOT
BRANCH  11  12
ATOM     12  C   LIG    1       26.876 -30.013  10.141  0.00  0.00    +0.328 C 
ATOM     13  O   LIG    1       27.395 -30.525  11.123  0.00  0.00    -0.249 OA
BRANCH  12  14
ATOM     14  O   LIG    1       27.468 -29.018   9.442  0.00  0.00    -0.479 OA
ATOM     15  H   LIG    1       26.872 -28.404   8.963  0.00  0.00    +0.295 HD
ENDBRANCH  12  14
ENDBRANCH  11  12
BRANCH   2  16
ATOM     16  C   LIG    1       24.601 -31.795   7.587  0.00  0.00    +0.177 C 
BRANCH  16  17
ATOM     17  N   LIG    1       24.635 -30.703   6.634  0.00  0.00    -0.249 N 
ATOM     18  N   LIG    1       23.699 -29.737   6.637  0.00  0.00    -0.066 NA
ATOM     19  N   LIG    1       23.996 -28.889   5.663  0.00  0.00    -0.138 NA
ATOM     20  C   LIG    1       25.117 -29.347   5.031  0.00  0.00    +0.156 A 
ATOM     21  C   LIG    1       25.526 -30.519   5.619  0.00  0.00    +0.130 A 
ENDBRANCH  16  17
ENDBRANCH   2  16
TORSDOF 4
ENDMDL
MODEL 7
REMARK VINA RESULT:      -4.8      7.170      9.332
REMARK  Name = *****
REMARK                            x       y       z     vdW  Elec       q    Type
REMARK                         _______ _______ _______ _____ _____    ______ ____
ROOT
ATOM      1  C   LIG    1       25.367 -32.156  10.227  0.00  0.00    +0.040 C 
ATOM      2  C   LIG    1       25.499 -31.084   9.124  0.00  0.00    +0.135 C 
ATOM      3  S   LIG    1       25.286 -31.915   7.485  0.00  0.00    -0.002 S 
ATOM      4  O   LIG    1       24.677 -33.216   7.677  0.00  0.00    -0.172 OA
ATOM      5  O   LIG    1       26.544 -31.820   6.765  0.00  0.00    -0.172 OA
ATOM      6  C   LIG    1       24.082 -30.791   6.740  0.00  0.00    +0.229 C 
ATOM      7  N   LIG    1       24.067 -29.688   7.729  0.00  0.00    -0.263 N 
ATOM      8  C   LIG    1       24.861 -28.891   6.957  0.00  0.00    +0.221 C 
ATOM      9  O   LIG    1       25.641 -28.022   7.288  0.00  0.00    -0.275 OA
ATOM     10  C   LIG    1       24.586 -29.758   5.718  0.00  0.00    +0.142 C 
ATOM     11  C   LIG    1       24.401 -29.999   9.115  0.00  0.00    +0.215 C 
ENDROOT
BRANCH  11  12
ATOM     12  C   LIG    1       23.119 -30.452   9.807  0.00  0.00    +0.328 C 
ATOM     13  O   LIG    1       22.347 -31.271   9.329  0.00  0.00    -0.249 OA
BRANCH  12  14
ATOM     14  O   LIG    1       22.928 -29.897  11.025  0.00  0.00    -0.479 OA
ATOM     15  H   LIG    1       23.001 -30.499  11.797  0.00  0.00    +0.295 HD
ENDBRANCH  12  14
ENDBRANCH  11  12
BRANCH   2  16
ATOM     16  C   LIG    1       26.920 -30.462   9.151  0.00  0.00    +0.177 C 
BRANCH  16  17
ATOM     17  N   LIG    1       27.249 -29.649  10.305  0.00  0.00    -0.249 N 
ATOM     18  N   LIG    1       28.199 -30.021  11.181  0.00  0.00    -0.066 NA
ATOM     19  N   LIG    1       28.272 -29.084  12.115  0.00  0.00    -0.138 NA
ATOM     20  C   LIG    1       27.336 -28.131  11.831  0.00  0.00    +0.156 A 
ATOM     21  C   LIG    1       26.654 -28.485  10.692  0.00  0.00    +0.130 A 
ENDBRANCH  16  17
ENDBRANCH   2  16
TORSDOF 4
ENDMDL
MODEL 8
REMARK VINA RESULT:      -4.8      1.545      2.392
REMARK  Name = *****
REMARK                            x       y       z     vdW  Elec       q    Type
REMARK                         _______ _______ _______ _____ _____    ______ ____
ROOT
ATOM      1  C   LIG    1       23.228 -23.050   6.698  0.00  0.00    +0.040 C 
ATOM      2  C   LIG    1       24.235 -22.258   5.837  0.00  0.00    +0.135 C 
ATOM      3  S   LIG    1       23.279 -21.232   4.630  0.00  0.00    -0.002 S 
ATOM      4  O   LIG    1       21.899 -21.138   5.061  0.00  0.00    -0.172 OA
ATOM      5  O   LIG    1       23.573 -21.718   3.294  0.00  0.00    -0.172 OA
ATOM      6  C   LIG    1       24.099 -19.641   4.884  0.00  0.00    +0.229 C 
ATOM      7  N   LIG    1       25.237 -20.037   5.747  0.00  0.00    -0.263 N 
ATOM      8  C   LIG    1       26.124 -20.005   4.710  0.00  0.00    +0.221 C 
ATOM      9  O   LIG    1       27.147 -20.637   4.548  0.00  0.00    -0.275 OA
ATOM     10  C   LIG    1       25.146 -19.189   3.852  0.00  0.00    +0.142 C 
ATOM     11  C   LIG    1       25.083 -21.213   6.595  0.00  0.00    +0.215 C 
ENDROOT
BRANCH  11  12
ATOM     12  C   LIG    1       24.432 -20.760   7.898  0.00  0.00    +0.328 C 
ATOM     13  O   LIG    1       23.275 -20.369   7.975  0.00  0.00    -0.249 OA
BRANCH  12  14
ATOM     14  O   LIG    1       25.236 -20.868   8.980  0.00  0.00    -0.479 OA
ATOM     15  H   LIG    1       26.131 -21.240   8.825  0.00  0.00    +0.295 HD
ENDBRANCH  12  14
ENDBRANCH  11  12
BRANCH   2  16
ATOM     16  C   LIG    1       25.123 -23.233   5.020  0.00  0.00    +0.177 C 
BRANCH  16  17
ATOM     17  N   LIG    1       25.277 -24.572   5.556  0.00  0.00    -0.249 N 
ATOM     18  N   LIG    1       26.024 -24.811   6.649  0.00  0.00    -0.066 NA
ATOM     19  N   LIG    1       25.971 -26.112   6.893  0.00  0.00    -0.138 NA
ATOM     20  C   LIG    1       25.203 -26.693   5.924  0.00  0.00    +0.156 A 
ATOM     21  C   LIG    1       24.771 -25.729   5.045  0.00  0.00    +0.130 A 
ENDBRANCH  16  17
ENDBRANCH   2  16
TORSDOF 4
ENDMDL
MODEL 9
REMARK VINA RESULT:      -4.8      6.578      9.093
REMARK  Name = *****
REMARK                            x       y       z     vdW  Elec       q    Type
REMARK                         _______ _______ _______ _____ _____    ______ ____
ROOT
ATOM      1  C   LIG    1       23.760 -30.803   6.110  0.00  0.00    +0.040 C 
ATOM      2  C   LIG    1       24.589 -30.342   7.328  0.00  0.00    +0.135 C 
ATOM      3  S   LIG    1       23.844 -31.088   8.848  0.00  0.00    -0.002 S 
ATOM      4  O   LIG    1       22.969 -32.180   8.472  0.00  0.00    -0.172 OA
ATOM      5  O   LIG    1       23.320 -30.009   9.668  0.00  0.00    -0.172 OA
ATOM      6  C   LIG    1       25.341 -31.751   9.613  0.00  0.00    +0.229 C 
ATOM      7  N   LIG    1       26.392 -31.164   8.749  0.00  0.00    -0.263 N 
ATOM      8  C   LIG    1       26.699 -30.196   9.661  0.00  0.00    +0.221 C 
ATOM      9  O   LIG    1       27.143 -29.081   9.485  0.00  0.00    -0.275 OA
ATOM     10  C   LIG    1       25.974 -30.965  10.775  0.00  0.00    +0.142 C 
ATOM     11  C   LIG    1       26.049 -30.843   7.368  0.00  0.00    +0.215 C 
ENDROOT
BRANCH  11  12
ATOM     12  C   LIG    1       26.263 -32.103   6.536  0.00  0.00    +0.328 C 
ATOM     13  O   LIG    1       26.080 -33.235   6.964  0.00  0.00    -0.249 OA
BRANCH  12  14
ATOM     14  O   LIG    1       26.635 -31.861   5.258  0.00  0.00    -0.479 OA
ATOM     15  H   LIG    1       26.029 -32.184   4.558  0.00  0.00    +0.295 HD
ENDBRANCH  12  14
ENDBRANCH  11  12
BRANCH   2  16
ATOM     16  C   LIG    1       24.508 -28.800   7.476  0.00  0.00    +0.177 C 
BRANCH  16  17
ATOM     17  N   LIG    1       25.275 -28.017   6.526  0.00  0.00    -0.249 N 
ATOM     18  N   LIG    1       26.154 -27.083   6.931  0.00  0.00    -0.066 NA
ATOM     19  N   LIG    1       26.694 -26.545   5.847  0.00  0.00    -0.138 NA
ATOM     20  C   LIG    1       26.123 -27.133   4.754  0.00  0.00    +0.156 A 
ATOM     21  C   LIG    1       25.195 -28.059   5.166  0.00  0.00    +0.130 A 
ENDBRANCH  16  17
ENDBRANCH   2  16
TORSDOF 4
ENDMDL
