MODEL 1
REMARK VINA RESULT:      -4.4      0.000      0.000
REMARK  Name = *****
REMARK                            x       y       z     vdW  Elec       q    Type
REMARK                         _______ _______ _______ _____ _____    ______ ____
ROOT
ATOM      1  C   LIG    1       24.364 -20.747   5.092  0.00  0.00    -0.021 C 
ATOM      2  C   LIG    1       24.023 -19.445   4.593  0.00  0.00    +0.003 C 
ATOM      3  C   LIG    1       22.649 -19.273   4.738  0.00  0.00    +0.047 C 
ATOM      4  C   LIG    1       21.999 -18.066   4.440  0.00  0.00    +0.026 C 
ATOM      5  C   LIG    1       22.784 -16.990   4.001  0.00  0.00    +0.007 C 
ATOM      6  C   LIG    1       24.167 -17.126   3.827  0.00  0.00    -0.024 C 
ATOM      7  N   LIG    1       22.151 -20.464   5.212  0.00  0.00    -0.360 NA
ATOM      8  H   LIG    1       21.175 -20.642   5.402  0.00  0.00    +0.165 HD
ATOM      9  C   LIG    1       24.774 -18.371   4.079  0.00  0.00    +0.015 C 
ATOM     10  C   LIG    1       23.174 -21.344   5.454  0.00  0.00    +0.087 C 
ENDROOT
BRANCH   1  11
ATOM     11  C   LIG    1       25.748 -21.301   5.310  0.00  0.00    +0.052 C 
BRANCH  11  12
ATOM     12  C   LIG    1       26.328 -21.063   6.720  0.00  0.00    +0.088 C 
BRANCH  12  14
ATOM     13  C   LIG    1       28.728 -21.252   7.062  0.00  0.00    +0.104 C 
ATOM     14  N   LIG    1       27.627 -20.344   6.725  0.00  0.00    -0.308 NA
ATOM     15  C   LIG    1       27.914 -19.684   5.450  0.00  0.00    +0.104 C 
ENDBRANCH  12  14
ENDBRANCH  11  12
ENDBRANCH   1  11
BRANCH   6  16
ATOM     16  C   LIG    1       25.014 -15.962   3.376  0.00  0.00    +0.220 C 
BRANCH  16  17
ATOM     17  S   LIG    1       24.259 -14.416   3.939  0.00  0.00    +0.036 S 
ATOM     18  O   LIG    1       23.734 -14.558   5.284  0.00  0.00    -0.158 OA
ATOM     19  O   LIG    1       23.443 -13.858   2.867  0.00  0.00    -0.158 OA
BRANCH  17  20
ATOM     20  N   LIG    1       25.619 -13.404   4.064  0.00  0.00    -0.181 NA
ATOM     21  C   LIG    1       26.478 -13.672   5.251  0.00  0.00    +0.109 C 
ATOM     22  C   LIG    1       27.885 -13.318   4.794  0.00  0.00    +0.018 C 
ATOM     23  C   LIG    1       27.877 -13.716   3.334  0.00  0.00    +0.018 C 
ATOM     24  C   LIG    1       26.491 -13.307   2.865  0.00  0.00    +0.109 C 
ENDBRANCH  17  20
ENDBRANCH  16  17
ENDBRANCH   6  16
TORSDOF 6
ENDMDL
MODEL 2
REMARK VINA RESULT:      -4.1      2.670      6.351
REMARK  Name = *****
REMARK                            x       y       z     vdW  Elec       q    Type
REMARK                         _______ _______ _______ _____ _____    ______ ____
ROOT
ATOM      1  C   LIG    1       25.011 -14.539   3.666  0.00  0.00    -0.021 C 
ATOM      2  C   LIG    1       24.216 -15.687   3.999  0.00  0.00    +0.003 C 
ATOM      3  C   LIG    1       23.072 -15.244   4.659  0.00  0.00    +0.047 C 
ATOM      4  C   LIG    1       22.031 -16.105   5.034  0.00  0.00    +0.026 C 
ATOM      5  C   LIG    1       22.151 -17.462   4.703  0.00  0.00    +0.007 C 
ATOM      6  C   LIG    1       23.292 -17.951   4.055  0.00  0.00    -0.024 C 
ATOM      7  N   LIG    1       23.211 -13.884   4.815  0.00  0.00    -0.360 NA
ATOM      8  H   LIG    1       22.535 -13.289   5.274  0.00  0.00    +0.165 HD
ATOM      9  C   LIG    1       24.343 -17.066   3.748  0.00  0.00    +0.015 C 
ATOM     10  C   LIG    1       24.355 -13.448   4.200  0.00  0.00    +0.087 C 
ENDROOT
BRANCH   1  11
ATOM     11  C   LIG    1       26.238 -14.508   2.793  0.00  0.00    +0.052 C 
BRANCH  11  12
ATOM     12  C   LIG    1       27.576 -14.423   3.556  0.00  0.00    +0.088 C 
BRANCH  12  14
ATOM     13  C   LIG    1       27.555 -13.313   5.720  0.00  0.00    +0.104 C 
ATOM     14  N   LIG    1       27.778 -13.143   4.280  0.00  0.00    -0.308 NA
ATOM     15  C   LIG    1       29.107 -12.571   4.060  0.00  0.00    +0.104 C 
ENDBRANCH  12  14
ENDBRANCH  11  12
ENDBRANCH   1  11
BRANCH   6  16
ATOM     16  C   LIG    1       23.412 -19.408   3.681  0.00  0.00    +0.220 C 
BRANCH  16  17
ATOM     17  S   LIG    1       23.120 -20.430   5.146  0.00  0.00    +0.036 S 
ATOM     18  O   LIG    1       22.284 -21.571   4.820  0.00  0.00    -0.158 OA
ATOM     19  O   LIG    1       22.812 -19.570   6.282  0.00  0.00    -0.158 OA
BRANCH  17  20
ATOM     20  N   LIG    1       24.675 -21.050   5.438  0.00  0.00    -0.181 NA
ATOM     21  C   LIG    1       25.772 -20.307   4.758  0.00  0.00    +0.109 C 
ATOM     22  C   LIG    1       26.966 -20.444   5.690  0.00  0.00    +0.018 C 
ATOM     23  C   LIG    1       26.326 -20.441   7.062  0.00  0.00    +0.018 C 
ATOM     24  C   LIG    1       25.057 -21.252   6.860  0.00  0.00    +0.109 C 
ENDBRANCH  17  20
ENDBRANCH  16  17
ENDBRANCH   6  16
TORSDOF 6
ENDMDL
MODEL 3
REMARK VINA RESULT:      -4.0      1.982      4.196
REMARK  Name = *****
REMARK                            x       y       z     vdW  Elec       q    Type
REMARK                         _______ _______ _______ _____ _____    ______ ____
ROOT
ATOM      1  C   LIG    1       26.690 -20.813   6.300  0.00  0.00    -0.021 C 
ATOM      2  C   LIG    1       27.066 -19.597   5.638  0.00  0.00    +0.003 C 
ATOM      3  C   LIG    1       28.408 -19.350   5.919  0.00  0.00    +0.047 C 
ATOM      4  C   LIG    1       29.121 -18.289   5.341  0.00  0.00    +0.026 C 
ATOM      5  C   LIG    1       28.447 -17.467   4.427  0.00  0.00    +0.007 C 
ATOM      6  C   LIG    1       27.094 -17.672   4.130  0.00  0.00    -0.024 C 
ATOM      7  N   LIG    1       28.810 -20.323   6.804  0.00  0.00    -0.360 NA
ATOM      8  H   LIG    1       29.739 -20.390   7.197  0.00  0.00    +0.165 HD
ATOM      9  C   LIG    1       26.396 -18.710   4.776  0.00  0.00    +0.015 C 
ATOM     10  C   LIG    1       27.797 -21.221   7.017  0.00  0.00    +0.087 C 
ENDROOT
BRANCH   1  11
ATOM     11  C   LIG    1       25.398 -21.572   6.139  0.00  0.00    +0.052 C 
BRANCH  11  12
ATOM     12  C   LIG    1       24.122 -20.742   6.392  0.00  0.00    +0.088 C 
BRANCH  12  14
ATOM     13  C   LIG    1       22.578 -19.391   5.085  0.00  0.00    +0.104 C 
ATOM     14  N   LIG    1       23.180 -20.720   5.244  0.00  0.00    -0.308 NA
ATOM     15  C   LIG    1       23.810 -21.121   3.986  0.00  0.00    +0.104 C 
ENDBRANCH  12  14
ENDBRANCH  11  12
ENDBRANCH   1  11
BRANCH   6  16
ATOM     16  C   LIG    1       26.375 -16.799   3.131  0.00  0.00    +0.220 C 
BRANCH  16  17
ATOM     17  S   LIG    1       26.886 -15.078   3.360  0.00  0.00    +0.036 S 
ATOM     18  O   LIG    1       26.926 -14.378   2.089  0.00  0.00    -0.158 OA
ATOM     19  O   LIG    1       28.011 -15.026   4.284  0.00  0.00    -0.158 OA
BRANCH  17  20
ATOM     20  N   LIG    1       25.556 -14.444   4.208  0.00  0.00    -0.181 NA
ATOM     21  C   LIG    1       25.831 -13.163   4.918  0.00  0.00    +0.109 C 
ATOM     22  C   LIG    1       24.507 -12.417   4.894  0.00  0.00    +0.018 C 
ATOM     23  C   LIG    1       23.911 -12.828   3.564  0.00  0.00    +0.018 C 
ATOM     24  C   LIG    1       24.288 -14.295   3.447  0.00  0.00    +0.109 C 
ENDBRANCH  17  20
ENDBRANCH  16  17
ENDBRANCH   6  16
TORSDOF 6
ENDMDL
MODEL 4
REMARK VINA RESULT:      -4.0      2.115      4.081
REMARK  Name = *****
REMARK                            x       y       z     vdW  Elec       q    Type
REMARK                         _______ _______ _______ _____ _____    ______ ____
ROOT
ATOM      1  C   LIG    1       25.525 -20.145   4.347  0.00  0.00    -0.021 C 
ATOM      2  C   LIG    1       26.289 -18.930   4.320  0.00  0.00    +0.003 C 
ATOM      3  C   LIG    1       27.471 -19.148   5.025  0.00  0.00    +0.047 C 
ATOM      4  C   LIG    1       28.493 -18.191   5.105  0.00  0.00    +0.026 C 
ATOM      5  C   LIG    1       28.313 -16.979   4.423  0.00  0.00    +0.007 C 
ATOM      6  C   LIG    1       27.132 -16.715   3.717  0.00  0.00    -0.024 C 
ATOM      7  N   LIG    1       27.387 -20.416   5.551  0.00  0.00    -0.360 NA
ATOM      8  H   LIG    1       28.100 -20.845   6.125  0.00  0.00    +0.165 HD
ATOM      9  C   LIG    1       26.104 -17.676   3.710  0.00  0.00    +0.015 C 
ATOM     10  C   LIG    1       26.238 -21.032   5.128  0.00  0.00    +0.087 C 
ENDROOT
BRANCH   1  11
ATOM     11  C   LIG    1       24.270 -20.444   3.570  0.00  0.00    +0.052 C 
BRANCH  11  12
ATOM     12  C   LIG    1       23.190 -21.219   4.353  0.00  0.00    +0.088 C 
BRANCH  12  14
ATOM     13  C   LIG    1       23.055 -20.464   6.661  0.00  0.00    +0.104 C 
ATOM     14  N   LIG    1       22.441 -20.390   5.331  0.00  0.00    -0.308 NA
ATOM     15  C   LIG    1       22.335 -18.989   4.922  0.00  0.00    +0.104 C 
ENDBRANCH  12  14
ENDBRANCH  11  12
ENDBRANCH   1  11
BRANCH   6  16
ATOM     16  C   LIG    1       26.947 -15.419   2.966  0.00  0.00    +0.220 C 
BRANCH  16  17
ATOM     17  S   LIG    1       27.317 -14.030   4.066  0.00  0.00    +0.036 S 
ATOM     18  O   LIG    1       28.588 -13.421   3.719  0.00  0.00    -0.158 OA
ATOM     19  O   LIG    1       27.012 -14.407   5.440  0.00  0.00    -0.158 OA
BRANCH  17  20
ATOM     20  N   LIG    1       26.118 -12.914   3.612  0.00  0.00    -0.181 NA
ATOM     21  C   LIG    1       25.813 -12.896   2.154  0.00  0.00    +0.109 C 
ATOM     22  C   LIG    1       24.340 -12.529   2.072  0.00  0.00    +0.018 C 
ATOM     23  C   LIG    1       23.759 -13.186   3.305  0.00  0.00    +0.018 C 
ATOM     24  C   LIG    1       24.833 -12.973   4.358  0.00  0.00    +0.109 C 
ENDBRANCH  17  20
ENDBRANCH  16  17
ENDBRANCH   6  16
TORSDOF 6
ENDMDL
MODEL 5
REMARK VINA RESULT:      -3.0      1.942      2.776
REMARK  Name = *****
REMARK                            x       y       z     vdW  Elec       q    Type
REMARK                         _______ _______ _______ _____ _____    ______ ____
ROOT
ATOM      1  C   LIG    1       23.701 -19.135   4.273  0.00  0.00    -0.021 C 
ATOM      2  C   LIG    1       23.970 -17.751   4.002  0.00  0.00    +0.003 C 
ATOM      3  C   LIG    1       22.878 -17.006   4.441  0.00  0.00    +0.047 C 
ATOM      4  C   LIG    1       22.859 -15.603   4.418  0.00  0.00    +0.026 C 
ATOM      5  C   LIG    1       24.003 -14.939   3.953  0.00  0.00    +0.007 C 
ATOM      6  C   LIG    1       25.115 -15.652   3.488  0.00  0.00    -0.024 C 
ATOM      7  N   LIG    1       21.933 -17.908   4.870  0.00  0.00    -0.360 NA
ATOM      8  H   LIG    1       21.024 -17.655   5.233  0.00  0.00    +0.165 HD
ATOM      9  C   LIG    1       25.074 -17.059   3.471  0.00  0.00    +0.015 C 
ATOM     10  C   LIG    1       22.426 -19.185   4.799  0.00  0.00    +0.087 C 
ENDROOT
BRANCH   1  11
ATOM     11  C   LIG    1       24.662 -20.288   4.142  0.00  0.00    +0.052 C 
BRANCH  11  12
ATOM     12  C   LIG    1       25.184 -20.853   5.479  0.00  0.00    +0.088 C 
BRANCH  12  14
ATOM     13  C   LIG    1       27.177 -19.604   4.860  0.00  0.00    +0.104 C 
ATOM     14  N   LIG    1       26.651 -20.714   5.662  0.00  0.00    -0.308 NA
ATOM     15  C   LIG    1       27.033 -20.526   7.062  0.00  0.00    +0.104 C 
ENDBRANCH  12  14
ENDBRANCH  11  12
ENDBRANCH   1  11
BRANCH   6  16
ATOM     16  C   LIG    1       26.353 -14.937   3.008  0.00  0.00    +0.220 C 
BRANCH  16  17
ATOM     17  S   LIG    1       26.796 -13.641   4.192  0.00  0.00    +0.036 S 
ATOM     18  O   LIG    1       28.222 -13.373   4.155  0.00  0.00    -0.158 OA
ATOM     19  O   LIG    1       26.108 -13.883   5.454  0.00  0.00    -0.158 OA
BRANCH  17  20
ATOM     20  N   LIG    1       26.041 -12.284   3.502  0.00  0.00    -0.181 NA
ATOM     21  C   LIG    1       25.708 -12.431   2.058  0.00  0.00    +0.109 C 
ATOM     22  C   LIG    1       24.451 -11.598   1.865  0.00  0.00    +0.018 C 
ATOM     23  C   LIG    1       23.724 -11.774   3.181  0.00  0.00    +0.018 C 
ATOM     24  C   LIG    1       24.843 -11.755   4.207  0.00  0.00    +0.109 C 
ENDBRANCH  17  20
ENDBRANCH  16  17
ENDBRANCH   6  16
TORSDOF 6
ENDMDL
MODEL 6
REMARK VINA RESULT:      -2.9      2.509      6.498
REMARK  Name = *****
REMARK                            x       y       z     vdW  Elec       q    Type
REMARK                         _______ _______ _______ _____ _____    ______ ____
ROOT
ATOM      1  C   LIG    1       25.176 -14.181   3.495  0.00  0.00    -0.021 C 
ATOM      2  C   LIG    1       24.367 -15.289   3.918  0.00  0.00    +0.003 C 
ATOM      3  C   LIG    1       23.351 -14.796   4.733  0.00  0.00    +0.047 C 
ATOM      4  C   LIG    1       22.322 -15.605   5.236  0.00  0.00    +0.026 C 
ATOM      5  C   LIG    1       22.316 -16.960   4.874  0.00  0.00    +0.007 C 
ATOM      6  C   LIG    1       23.328 -17.498   4.069  0.00  0.00    -0.024 C 
ATOM      7  N   LIG    1       23.589 -13.450   4.888  0.00  0.00    -0.360 NA
ATOM      8  H   LIG    1       23.018 -12.828   5.443  0.00  0.00    +0.165 HD
ATOM      9  C   LIG    1       24.378 -16.667   3.633  0.00  0.00    +0.015 C 
ATOM     10  C   LIG    1       24.663 -13.066   4.127  0.00  0.00    +0.087 C 
ENDROOT
BRANCH   1  11
ATOM     11  C   LIG    1       26.272 -14.200   2.462  0.00  0.00    +0.052 C 
BRANCH  11  12
ATOM     12  C   LIG    1       27.424 -13.207   2.720  0.00  0.00    +0.088 C 
BRANCH  12  14
ATOM     13  C   LIG    1       28.488 -12.590   4.818  0.00  0.00    +0.104 C 
ATOM     14  N   LIG    1       28.359 -13.631   3.792  0.00  0.00    -0.308 NA
ATOM     15  C   LIG    1       27.962 -14.889   4.426  0.00  0.00    +0.104 C 
ENDBRANCH  12  14
ENDBRANCH  11  12
ENDBRANCH   1  11
BRANCH   6  16
ATOM     16  C   LIG    1       23.311 -18.951   3.662  0.00  0.00    +0.220 C 
BRANCH  16  17
ATOM     17  S   LIG    1       25.004 -19.591   3.647  0.00  0.00    +0.036 S 
ATOM     18  O   LIG    1       25.923 -18.634   4.235  0.00  0.00    -0.158 OA
ATOM     19  O   LIG    1       25.278 -20.201   2.352  0.00  0.00    -0.158 OA
BRANCH  17  20
ATOM     20  N   LIG    1       24.887 -20.877   4.752  0.00  0.00    -0.181 NA
ATOM     21  C   LIG    1       25.800 -20.767   5.924  0.00  0.00    +0.109 C 
ATOM     22  C   LIG    1       25.050 -21.443   7.061  0.00  0.00    +0.018 C 
ATOM     23  C   LIG    1       23.605 -21.105   6.761  0.00  0.00    +0.018 C 
ATOM     24  C   LIG    1       23.525 -21.209   5.248  0.00  0.00    +0.109 C 
ENDBRANCH  17  20
ENDBRANCH  16  17
ENDBRANCH   6  16
TORSDOF 6
ENDMDL
MODEL 7
REMARK VINA RESULT:      -2.6      2.919      7.433
REMARK  Name = *****
REMARK                            x       y       z     vdW  Elec       q    Type
REMARK                         _______ _______ _______ _____ _____    ______ ____
ROOT
ATOM      1  C   LIG    1       26.365 -13.430   2.709  0.00  0.00    -0.021 C 
ATOM      2  C   LIG    1       26.377 -14.824   3.053  0.00  0.00    +0.003 C 
ATOM      3  C   LIG    1       27.581 -15.099   3.698  0.00  0.00    +0.047 C 
ATOM      4  C   LIG    1       27.872 -16.352   4.258  0.00  0.00    +0.026 C 
ATOM      5  C   LIG    1       26.890 -17.350   4.178  0.00  0.00    +0.007 C 
ATOM      6  C   LIG    1       25.674 -17.119   3.525  0.00  0.00    -0.024 C 
ATOM      7  N   LIG    1       28.322 -13.942   3.658  0.00  0.00    -0.360 NA
ATOM      8  H   LIG    1       29.253 -13.845   4.039  0.00  0.00    +0.165 HD
ATOM      9  C   LIG    1       25.442 -15.867   2.922  0.00  0.00    +0.015 C 
ATOM     10  C   LIG    1       27.593 -12.928   3.093  0.00  0.00    +0.087 C 
ENDROOT
BRANCH   1  11
ATOM     11  C   LIG    1       25.203 -12.639   2.168  0.00  0.00    +0.052 C 
BRANCH  11  12
ATOM     12  C   LIG    1       23.978 -12.563   3.102  0.00  0.00    +0.088 C 
BRANCH  12  14
ATOM     13  C   LIG    1       23.835 -11.451   5.260  0.00  0.00    +0.104 C 
ATOM     14  N   LIG    1       24.314 -12.640   4.546  0.00  0.00    -0.308 NA
ATOM     15  C   LIG    1       23.778 -13.840   5.190  0.00  0.00    +0.104 C 
ENDBRANCH  12  14
ENDBRANCH  11  12
ENDBRANCH   1  11
BRANCH   6  16
ATOM     16  C   LIG    1       24.610 -18.186   3.457  0.00  0.00    +0.220 C 
BRANCH  16  17
ATOM     17  S   LIG    1       25.370 -19.809   3.716  0.00  0.00    +0.036 S 
ATOM     18  O   LIG    1       26.426 -19.731   4.709  0.00  0.00    -0.158 OA
ATOM     19  O   LIG    1       25.594 -20.449   2.426  0.00  0.00    -0.158 OA
BRANCH  17  20
ATOM     20  N   LIG    1       24.095 -20.664   4.446  0.00  0.00    -0.181 NA
ATOM     21  C   LIG    1       24.499 -21.491   5.617  0.00  0.00    +0.109 C 
ATOM     22  C   LIG    1       23.282 -21.488   6.529  0.00  0.00    +0.018 C 
ATOM     23  C   LIG    1       22.699 -20.108   6.310  0.00  0.00    +0.018 C 
ATOM     24  C   LIG    1       22.891 -19.877   4.821  0.00  0.00    +0.109 C 
ENDBRANCH  17  20
ENDBRANCH  16  17
ENDBRANCH   6  16
TORSDOF 6
ENDMDL
MODEL 8
REMARK VINA RESULT:      -2.5      3.049      7.249
REMARK  Name = *****
REMARK                            x       y       z     vdW  Elec       q    Type
REMARK                         _______ _______ _______ _____ _____    ______ ____
ROOT
ATOM      1  C   LIG    1       26.450 -14.257   2.982  0.00  0.00    -0.021 C 
ATOM      2  C   LIG    1       26.696 -15.643   3.265  0.00  0.00    +0.003 C 
ATOM      3  C   LIG    1       27.802 -15.722   4.108  0.00  0.00    +0.047 C 
ATOM      4  C   LIG    1       28.250 -16.932   4.660  0.00  0.00    +0.026 C 
ATOM      5  C   LIG    1       27.529 -18.096   4.359  0.00  0.00    +0.007 C 
ATOM      6  C   LIG    1       26.421 -18.062   3.503  0.00  0.00    -0.024 C 
ATOM      7  N   LIG    1       28.278 -14.440   4.253  0.00  0.00    -0.360 NA
ATOM      8  H   LIG    1       29.089 -14.190   4.803  0.00  0.00    +0.165 HD
ATOM      9  C   LIG    1       26.038 -16.838   2.921  0.00  0.00    +0.015 C 
ATOM     10  C   LIG    1       27.460 -13.552   3.606  0.00  0.00    +0.087 C 
ENDROOT
BRANCH   1  11
ATOM     11  C   LIG    1       25.258 -13.674   2.270  0.00  0.00    +0.052 C 
BRANCH  11  12
ATOM     12  C   LIG    1       24.582 -12.492   2.995  0.00  0.00    +0.088 C 
BRANCH  12  14
ATOM     13  C   LIG    1       23.610 -11.609   5.042  0.00  0.00    +0.104 C 
ATOM     14  N   LIG    1       24.348 -12.726   4.443  0.00  0.00    -0.308 NA
ATOM     15  C   LIG    1       23.634 -13.976   4.706  0.00  0.00    +0.104 C 
ENDBRANCH  12  14
ENDBRANCH  11  12
ENDBRANCH   1  11
BRANCH   6  16
ATOM     16  C   LIG    1       25.633 -19.311   3.197  0.00  0.00    +0.220 C 
BRANCH  16  17
ATOM     17  S   LIG    1       25.224 -20.157   4.745  0.00  0.00    +0.036 S 
ATOM     18  O   LIG    1       26.106 -19.731   5.815  0.00  0.00    -0.158 OA
ATOM     19  O   LIG    1       24.994 -21.571   4.476  0.00  0.00    -0.158 OA
BRANCH  17  20
ATOM     20  N   LIG    1       23.698 -19.495   5.096  0.00  0.00    -0.181 NA
ATOM     21  C   LIG    1       23.083 -18.736   3.972  0.00  0.00    +0.109 C 
ATOM     22  C   LIG    1       21.585 -18.935   4.147  0.00  0.00    +0.018 C 
ATOM     23  C   LIG    1       21.494 -20.341   4.701  0.00  0.00    +0.018 C 
ATOM     24  C   LIG    1       22.678 -20.425   5.648  0.00  0.00    +0.109 C 
ENDBRANCH  17  20
ENDBRANCH  16  17
ENDBRANCH   6  16
TORSDOF 6
ENDMDL
MODEL 9
REMARK VINA RESULT:      -2.0      1.385      3.600
REMARK  Name = *****
REMARK                            x       y       z     vdW  Elec       q    Type
REMARK                         _______ _______ _______ _____ _____    ______ ____
ROOT
ATOM      1  C   LIG    1       25.444 -20.609   4.722  0.00  0.00    -0.021 C 
ATOM      2  C   LIG    1       25.986 -19.309   4.446  0.00  0.00    +0.003 C 
ATOM      3  C   LIG    1       27.245 -19.231   5.038  0.00  0.00    +0.047 C 
ATOM      4  C   LIG    1       28.093 -18.126   4.875  0.00  0.00    +0.026 C 
ATOM      5  C   LIG    1       27.651 -17.074   4.059  0.00  0.00    +0.007 C 
ATOM      6  C   LIG    1       26.386 -17.106   3.459  0.00  0.00    -0.024 C 
ATOM      7  N   LIG    1       27.423 -20.402   5.737  0.00  0.00    -0.360 NA
ATOM      8  H   LIG    1       28.246 -20.624   6.281  0.00  0.00    +0.165 HD
ATOM      9  C   LIG    1       25.538 -18.206   3.696  0.00  0.00    +0.015 C 
ATOM     10  C   LIG    1       26.363 -21.246   5.531  0.00  0.00    +0.087 C 
ENDROOT
BRANCH   1  11
ATOM     11  C   LIG    1       24.195 -21.214   4.136  0.00  0.00    +0.052 C 
BRANCH  11  12
ATOM     12  C   LIG    1       23.154 -20.193   3.632  0.00  0.00    +0.088 C 
BRANCH  12  14
ATOM     13  C   LIG    1       22.738 -20.060   6.025  0.00  0.00    +0.104 C 
ATOM     14  N   LIG    1       22.262 -19.664   4.695  0.00  0.00    -0.308 NA
ATOM     15  C   LIG    1       22.121 -18.208   4.644  0.00  0.00    +0.104 C 
ENDBRANCH  12  14
ENDBRANCH  11  12
ENDBRANCH   1  11
BRANCH   6  16
ATOM     16  C   LIG    1       25.919 -15.984   2.566  0.00  0.00    +0.220 C 
BRANCH  16  17
ATOM     17  S   LIG    1       25.638 -14.500   3.563  0.00  0.00    +0.036 S 
ATOM     18  O   LIG    1       24.803 -14.799   4.711  0.00  0.00    -0.158 OA
ATOM     19  O   LIG    1       25.337 -13.377   2.684  0.00  0.00    -0.158 OA
BRANCH  17  20
ATOM     20  N   LIG    1       27.197 -14.207   4.174  0.00  0.00    -0.181 NA
ATOM     21  C   LIG    1       28.122 -13.545   3.213  0.00  0.00    +0.109 C 
ATOM     22  C   LIG    1       29.043 -12.703   4.082  0.00  0.00    +0.018 C 
ATOM     23  C   LIG    1       28.135 -12.263   5.210  0.00  0.00    +0.018 C 
ATOM     24  C   LIG    1       27.280 -13.491   5.475  0.00  0.00    +0.109 C 
ENDBRANCH  17  20
ENDBRANCH  16  17
ENDBRANCH   6  16
TORSDOF 6
ENDMDL
