MODEL 1
REMARK VINA RESULT:      -7.7      0.000      0.000
REMARK  Name = *****
REMARK                            x       y       z     vdW  Elec       q    Type
REMARK                         _______ _______ _______ _____ _____    ______ ____
ROOT
ATOM      1  P   LIG    1       24.491 -30.841   7.031  0.00  0.00    +0.216 P 
ATOM      2  O   LIG    1       24.868 -31.162   5.567  0.00  0.00    -0.290 OA
ENDROOT
BRANCH   1   3
ATOM      3  O   LIG    1       26.116 -30.693   7.535  0.00  0.00    -0.286 OA
BRANCH   3   4
ATOM      4  C   LIG    1       26.456 -31.205   8.843  0.00  0.00    +0.320 C 
BRANCH   4   5
ATOM      5  C   LIG    1       27.080 -32.636   8.737  0.00  0.00    +0.052 C 
ATOM      6  C   LIG    1       27.524 -32.982   7.304  0.00  0.00    +0.013 C 
ATOM      7  C   LIG    1       26.132 -33.747   9.208  0.00  0.00    +0.013 C 
ENDBRANCH   4   5
BRANCH   4   8
ATOM      8  O   LIG    1       27.425 -30.317   9.397  0.00  0.00    -0.434 OA
BRANCH   8   9
ATOM      9  C   LIG    1       27.143 -29.817  10.637  0.00  0.00    +0.309 C 
ATOM     10  O   LIG    1       27.167 -30.409  11.684  0.00  0.00    -0.251 OA
BRANCH   9  12
ATOM     11  C   LIG    1       26.889 -27.579  11.709  0.00  0.00    +0.015 C 
ATOM     12  C   LIG    1       26.687 -28.382  10.437  0.00  0.00    +0.117 C 
ENDBRANCH   9  12
ENDBRANCH   8   9
ENDBRANCH   4   8
ENDBRANCH   3   4
ENDBRANCH   1   3
BRANCH   1  13
ATOM     13  C   LIG    1       24.045 -30.460   8.764  0.00  0.00    +0.193 C 
BRANCH  13  14
ATOM     14  C   LIG    1       22.956 -31.356   9.306  0.00  0.00    +0.226 C 
ATOM     15  N   LIG    1       22.298 -30.938  10.437  0.00  0.00    -0.287 N 
ATOM     16  C   LIG    1       21.452 -31.814  11.242  0.00  0.00    +0.185 C 
ATOM     17  C   LIG    1       21.738 -31.304  12.661  0.00  0.00    +0.039 C 
ATOM     18  C   LIG    1       21.936 -29.784  12.509  0.00  0.00    +0.012 C 
ATOM     19  C   LIG    1       22.488 -29.663  11.094  0.00  0.00    +0.112 C 
ATOM     20  O   LIG    1       22.757 -32.471   8.823  0.00  0.00    -0.275 OA
BRANCH  18  21
ATOM     21  C   LIG    1       22.906 -29.154  13.538  0.00  0.00    -0.006 C 
ATOM     22  C   LIG    1       23.473 -27.788  13.081  0.00  0.00    +0.004 C 
ATOM     23  C   LIG    1       22.494 -26.634  13.257  0.00  0.00    +0.000 C 
ATOM     24  C   LIG    1       22.019 -26.549  14.700  0.00  0.00    +0.000 C 
ATOM     25  C   LIG    1       21.362 -27.854  15.133  0.00  0.00    +0.000 C 
ATOM     26  C   LIG    1       22.292 -29.051  14.944  0.00  0.00    +0.004 C 
ENDBRANCH  18  21
BRANCH  16  27
ATOM     27  C   LIG    1       19.968 -31.715  10.845  0.00  0.00    +0.326 C 
ATOM     28  O   LIG    1       19.513 -30.900  10.047  0.00  0.00    -0.249 OA
BRANCH  27  29
ATOM     29  O   LIG    1       19.171 -32.634  11.442  0.00  0.00    -0.479 OA
ATOM     30  H   LIG    1       18.603 -33.150  10.835  0.00  0.00    +0.295 HD
ENDBRANCH  27  29
ENDBRANCH  16  27
ENDBRANCH  13  14
ENDBRANCH   1  13
BRANCH   1  31
ATOM     31  C   LIG    1       24.264 -28.858   6.586  0.00  0.00    +0.098 C 
BRANCH  31  32
ATOM     32  C   LIG    1       25.528 -28.038   6.400  0.00  0.00    +0.010 C 
BRANCH  32  33
ATOM     33  C   LIG    1       25.393 -26.723   5.648  0.00  0.00    +0.005 C 
BRANCH  33  34
ATOM     34  C   LIG    1       24.116 -25.901   5.905  0.00  0.00    +0.035 C 
BRANCH  34  35
ATOM     35  C   LIG    1       24.229 -24.552   6.578  0.00  0.00    -0.047 A 
ATOM     36  C   LIG    1       25.485 -24.071   6.987  0.00  0.00    +0.003 A 
ATOM     37  C   LIG    1       25.632 -22.764   7.465  0.00  0.00    +0.000 A 
ATOM     38  C   LIG    1       24.528 -21.922   7.552  0.00  0.00    +0.000 A 
ATOM     39  C   LIG    1       23.270 -22.400   7.193  0.00  0.00    +0.000 A 
ATOM     40  C   LIG    1       23.120 -23.703   6.707  0.00  0.00    +0.003 A 
ENDBRANCH  34  35
ENDBRANCH  33  34
ENDBRANCH  32  33
ENDBRANCH  31  32
ENDBRANCH   1  31
TORSDOF 16
ENDMDL
MODEL 2
REMARK VINA RESULT:      -7.6      6.543     11.040
REMARK  Name = *****
REMARK                            x       y       z     vdW  Elec       q    Type
REMARK                         _______ _______ _______ _____ _____    ______ ____
ROOT
ATOM      1  P   LIG    1       26.182 -21.345   8.082  0.00  0.00    +0.216 P 
ATOM      2  O   LIG    1       25.136 -22.238   8.785  0.00  0.00    -0.290 OA
ENDROOT
BRANCH   1   3
ATOM      3  O   LIG    1       26.476 -22.476   6.837  0.00  0.00    -0.286 OA
BRANCH   3   4
ATOM      4  C   LIG    1       25.805 -23.754   6.926  0.00  0.00    +0.320 C 
BRANCH   4   5
ATOM      5  C   LIG    1       24.492 -23.754   6.076  0.00  0.00    +0.052 C 
ATOM      6  C   LIG    1       23.508 -24.856   6.509  0.00  0.00    +0.013 C 
ATOM      7  C   LIG    1       24.744 -23.922   4.572  0.00  0.00    +0.013 C 
ENDBRANCH   4   5
BRANCH   4   8
ATOM      8  O   LIG    1       26.701 -24.729   6.396  0.00  0.00    -0.434 OA
BRANCH   8   9
ATOM      9  C   LIG    1       26.379 -26.035   6.640  0.00  0.00    +0.309 C 
ATOM     10  O   LIG    1       26.042 -26.519   7.689  0.00  0.00    -0.251 OA
BRANCH   9  12
ATOM     11  C   LIG    1       25.386 -27.567   4.940  0.00  0.00    +0.015 C 
ATOM     12  C   LIG    1       26.627 -26.796   5.349  0.00  0.00    +0.117 C 
ENDBRANCH   9  12
ENDBRANCH   8   9
ENDBRANCH   4   8
ENDBRANCH   3   4
ENDBRANCH   1   3
BRANCH   1  13
ATOM     13  C   LIG    1       27.422 -20.288   7.250  0.00  0.00    +0.193 C 
BRANCH  13  14
ATOM     14  C   LIG    1       28.816 -20.870   7.285  0.00  0.00    +0.226 C 
ATOM     15  N   LIG    1       29.693 -20.353   8.208  0.00  0.00    -0.287 N 
ATOM     16  C   LIG    1       31.132 -20.588   8.165  0.00  0.00    +0.185 C 
ATOM     17  C   LIG    1       31.682 -19.242   8.657  0.00  0.00    +0.039 C 
ATOM     18  C   LIG    1       30.667 -18.755   9.708  0.00  0.00    +0.012 C 
ATOM     19  C   LIG    1       29.363 -19.373   9.219  0.00  0.00    +0.112 C 
ATOM     20  O   LIG    1       29.183 -21.683   6.436  0.00  0.00    -0.275 OA
BRANCH  18  21
ATOM     21  C   LIG    1       30.543 -17.216   9.820  0.00  0.00    -0.006 C 
ATOM     22  C   LIG    1       30.380 -16.724  11.279  0.00  0.00    +0.004 C 
ATOM     23  C   LIG    1       31.686 -16.702  12.063  0.00  0.00    +0.000 C 
ATOM     24  C   LIG    1       32.731 -15.866  11.341  0.00  0.00    +0.000 C 
ATOM     25  C   LIG    1       32.981 -16.402   9.937  0.00  0.00    +0.000 C 
ATOM     26  C   LIG    1       31.694 -16.476   9.117  0.00  0.00    +0.004 C 
ENDBRANCH  18  21
BRANCH  16  27
ATOM     27  C   LIG    1       31.554 -21.779   9.044  0.00  0.00    +0.326 C 
ATOM     28  O   LIG    1       31.202 -21.945  10.208  0.00  0.00    -0.249 OA
BRANCH  27  29
ATOM     29  O   LIG    1       32.356 -22.674   8.418  0.00  0.00    -0.479 OA
ATOM     30  H   LIG    1       32.506 -22.505   7.466  0.00  0.00    +0.295 HD
ENDBRANCH  27  29
ENDBRANCH  16  27
ENDBRANCH  13  14
ENDBRANCH   1  13
BRANCH   1  31
ATOM     31  C   LIG    1       24.715 -20.344   7.069  0.00  0.00    +0.098 C 
BRANCH  31  32
ATOM     32  C   LIG    1       23.278 -20.728   7.369  0.00  0.00    +0.010 C 
BRANCH  32  33
ATOM     33  C   LIG    1       22.565 -21.589   6.337  0.00  0.00    +0.005 C 
BRANCH  33  34
ATOM     34  C   LIG    1       22.125 -20.896   5.035  0.00  0.00    +0.035 C 
BRANCH  34  35
ATOM     35  C   LIG    1       23.083 -19.955   4.339  0.00  0.00    -0.047 A 
ATOM     36  C   LIG    1       22.879 -18.565   4.404  0.00  0.00    +0.003 A 
ATOM     37  C   LIG    1       23.836 -17.675   3.905  0.00  0.00    +0.000 A 
ATOM     38  C   LIG    1       25.006 -18.157   3.325  0.00  0.00    +0.000 A 
ATOM     39  C   LIG    1       25.200 -19.531   3.213  0.00  0.00    +0.000 A 
ATOM     40  C   LIG    1       24.249 -20.425   3.718  0.00  0.00    +0.003 A 
ENDBRANCH  34  35
ENDBRANCH  33  34
ENDBRANCH  32  33
ENDBRANCH  31  32
ENDBRANCH   1  31
TORSDOF 16
ENDMDL
MODEL 3
REMARK VINA RESULT:      -7.5      6.868     11.911
REMARK  Name = *****
REMARK                            x       y       z     vdW  Elec       q    Type
REMARK                         _______ _______ _______ _____ _____    ______ ____
ROOT
ATOM      1  P   LIG    1       26.265 -21.212   5.846  0.00  0.00    +0.216 P 
ATOM      2  O   LIG    1       25.356 -21.956   4.843  0.00  0.00    -0.290 OA
ENDROOT
BRANCH   1   3
ATOM      3  O   LIG    1       24.990 -20.262   6.469  0.00  0.00    -0.286 OA
BRANCH   3   4
ATOM      4  C   LIG    1       23.676 -20.455   5.899  0.00  0.00    +0.320 C 
BRANCH   4   5
ATOM      5  C   LIG    1       22.756 -21.258   6.877  0.00  0.00    +0.052 C 
ATOM      6  C   LIG    1       23.354 -21.371   8.291  0.00  0.00    +0.013 C 
ATOM      7  C   LIG    1       22.448 -22.679   6.389  0.00  0.00    +0.013 C 
ENDBRANCH   4   5
BRANCH   4   8
ATOM      8  O   LIG    1       23.118 -19.157   5.697  0.00  0.00    -0.434 OA
BRANCH   8   9
ATOM      9  C   LIG    1       22.712 -18.870   4.424  0.00  0.00    +0.309 C 
ATOM     10  O   LIG    1       21.651 -18.418   4.082  0.00  0.00    -0.251 OA
BRANCH   9  12
ATOM     11  C   LIG    1       24.941 -18.300   3.460  0.00  0.00    +0.015 C 
ATOM     12  C   LIG    1       23.824 -19.327   3.497  0.00  0.00    +0.117 C 
ENDBRANCH   9  12
ENDBRANCH   8   9
ENDBRANCH   4   8
ENDBRANCH   3   4
ENDBRANCH   1   3
BRANCH   1  13
ATOM     13  C   LIG    1       27.342 -20.330   7.034  0.00  0.00    +0.193 C 
BRANCH  13  14
ATOM     14  C   LIG    1       28.719 -20.940   7.151  0.00  0.00    +0.226 C 
ATOM     15  N   LIG    1       29.564 -20.415   8.099  0.00  0.00    -0.287 N 
ATOM     16  C   LIG    1       30.998 -20.682   8.130  0.00  0.00    +0.185 C 
ATOM     17  C   LIG    1       31.555 -19.335   8.609  0.00  0.00    +0.039 C 
ATOM     18  C   LIG    1       30.504 -18.795   9.597  0.00  0.00    +0.012 C 
ATOM     19  C   LIG    1       29.211 -19.399   9.066  0.00  0.00    +0.112 C 
ATOM     20  O   LIG    1       29.106 -21.785   6.344  0.00  0.00    -0.275 OA
BRANCH  18  21
ATOM     21  C   LIG    1       30.410 -17.251   9.660  0.00  0.00    -0.006 C 
ATOM     22  C   LIG    1       30.228 -16.712  11.099  0.00  0.00    +0.004 C 
ATOM     23  C   LIG    1       31.518 -16.692  11.909  0.00  0.00    +0.000 C 
ATOM     24  C   LIG    1       32.595 -15.900  11.184  0.00  0.00    +0.000 C 
ATOM     25  C   LIG    1       32.862 -16.484   9.802  0.00  0.00    +0.000 C 
ATOM     26  C   LIG    1       31.589 -16.557   8.959  0.00  0.00    +0.004 C 
ENDBRANCH  18  21
BRANCH  16  27
ATOM     27  C   LIG    1       31.352 -21.855   9.061  0.00  0.00    +0.326 C 
ATOM     28  O   LIG    1       30.831 -22.060  10.153  0.00  0.00    -0.249 OA
BRANCH  27  29
ATOM     29  O   LIG    1       32.301 -22.688   8.569  0.00  0.00    -0.479 OA
ATOM     30  H   LIG    1       31.961 -23.496   8.134  0.00  0.00    +0.295 HD
ENDBRANCH  27  29
ENDBRANCH  16  27
ENDBRANCH  13  14
ENDBRANCH   1  13
BRANCH   1  31
ATOM     31  C   LIG    1       26.056 -22.712   7.220  0.00  0.00    +0.098 C 
BRANCH  31  32
ATOM     32  C   LIG    1       26.223 -24.136   6.724  0.00  0.00    +0.010 C 
BRANCH  32  33
ATOM     33  C   LIG    1       24.954 -24.951   6.528  0.00  0.00    +0.005 C 
BRANCH  33  34
ATOM     34  C   LIG    1       25.042 -26.160   5.578  0.00  0.00    +0.035 C 
BRANCH  34  35
ATOM     35  C   LIG    1       24.979 -27.557   6.153  0.00  0.00    -0.047 A 
ATOM     36  C   LIG    1       25.584 -27.838   7.392  0.00  0.00    +0.003 A 
ATOM     37  C   LIG    1       25.403 -29.078   8.015  0.00  0.00    +0.000 A 
ATOM     38  C   LIG    1       24.625 -30.059   7.408  0.00  0.00    +0.000 A 
ATOM     39  C   LIG    1       24.057 -29.811   6.161  0.00  0.00    +0.000 A 
ATOM     40  C   LIG    1       24.229 -28.569   5.538  0.00  0.00    +0.003 A 
ENDBRANCH  34  35
ENDBRANCH  33  34
ENDBRANCH  32  33
ENDBRANCH  31  32
ENDBRANCH   1  31
TORSDOF 16
ENDMDL
MODEL 4
REMARK VINA RESULT:      -7.4      7.433     12.557
REMARK  Name = *****
REMARK                            x       y       z     vdW  Elec       q    Type
REMARK                         _______ _______ _______ _____ _____    ______ ____
ROOT
ATOM      1  P   LIG    1       26.368 -20.714   5.699  0.00  0.00    +0.216 P 
ATOM      2  O   LIG    1       25.337 -21.568   4.930  0.00  0.00    -0.290 OA
ENDROOT
BRANCH   1   3
ATOM      3  O   LIG    1       25.709 -19.233   5.164  0.00  0.00    -0.286 OA
BRANCH   3   4
ATOM      4  C   LIG    1       24.711 -19.287   4.119  0.00  0.00    +0.320 C 
BRANCH   4   5
ATOM      5  C   LIG    1       23.309 -18.856   4.664  0.00  0.00    +0.052 C 
ATOM      6  C   LIG    1       22.552 -20.019   5.331  0.00  0.00    +0.013 C 
ATOM      7  C   LIG    1       22.394 -18.267   3.583  0.00  0.00    +0.013 C 
ENDBRANCH   4   5
BRANCH   4   8
ATOM      8  O   LIG    1       25.119 -18.366   3.109  0.00  0.00    -0.434 OA
BRANCH   8   9
ATOM      9  C   LIG    1       26.057 -17.444   3.480  0.00  0.00    +0.309 C 
ATOM     10  O   LIG    1       27.187 -17.656   3.836  0.00  0.00    -0.251 OA
BRANCH   9  12
ATOM     11  C   LIG    1       26.399 -14.974   3.426  0.00  0.00    +0.015 C 
ATOM     12  C   LIG    1       25.371 -16.090   3.461  0.00  0.00    +0.117 C 
ENDBRANCH   9  12
ENDBRANCH   8   9
ENDBRANCH   4   8
ENDBRANCH   3   4
ENDBRANCH   1   3
BRANCH   1  13
ATOM     13  C   LIG    1       27.591 -19.701   6.611  0.00  0.00    +0.193 C 
BRANCH  13  14
ATOM     14  C   LIG    1       28.895 -20.424   6.854  0.00  0.00    +0.226 C 
ATOM     15  N   LIG    1       29.651 -20.019   7.927  0.00  0.00    -0.287 N 
ATOM     16  C   LIG    1       31.048 -20.399   8.113  0.00  0.00    +0.185 C 
ATOM     17  C   LIG    1       31.636 -19.128   8.737  0.00  0.00    +0.039 C 
ATOM     18  C   LIG    1       30.513 -18.559   9.623  0.00  0.00    +0.012 C 
ATOM     19  C   LIG    1       29.255 -19.029   8.905  0.00  0.00    +0.112 C 
ATOM     20  O   LIG    1       29.317 -21.254   6.048  0.00  0.00    -0.275 OA
BRANCH  18  21
ATOM     21  C   LIG    1       30.524 -17.017   9.770  0.00  0.00    -0.006 C 
ATOM     22  C   LIG    1       30.440 -16.546  11.241  0.00  0.00    +0.004 C 
ATOM     23  C   LIG    1       31.761 -16.652  11.991  0.00  0.00    +0.000 C 
ATOM     24  C   LIG    1       32.856 -15.893  11.259  0.00  0.00    +0.000 C 
ATOM     25  C   LIG    1       33.025 -16.417   9.838  0.00  0.00    +0.000 C 
ATOM     26  C   LIG    1       31.716 -16.363   9.051  0.00  0.00    +0.004 C 
ENDBRANCH  18  21
BRANCH  16  27
ATOM     27  C   LIG    1       31.197 -21.644   9.006  0.00  0.00    +0.326 C 
ATOM     28  O   LIG    1       30.499 -21.887   9.986  0.00  0.00    -0.249 OA
BRANCH  27  29
ATOM     29  O   LIG    1       32.176 -22.495   8.612  0.00  0.00    -0.479 OA
ATOM     30  H   LIG    1       31.914 -23.437   8.562  0.00  0.00    +0.295 HD
ENDBRANCH  27  29
ENDBRANCH  16  27
ENDBRANCH  13  14
ENDBRANCH   1  13
BRANCH   1  31
ATOM     31  C   LIG    1       25.241 -20.803   7.403  0.00  0.00    +0.098 C 
BRANCH  31  32
ATOM     32  C   LIG    1       25.530 -21.938   8.368  0.00  0.00    +0.010 C 
BRANCH  32  33
ATOM     33  C   LIG    1       25.912 -23.279   7.761  0.00  0.00    +0.005 C 
BRANCH  33  34
ATOM     34  C   LIG    1       24.815 -24.033   6.988  0.00  0.00    +0.035 C 
BRANCH  34  35
ATOM     35  C   LIG    1       25.115 -25.405   6.428  0.00  0.00    -0.047 A 
ATOM     36  C   LIG    1       24.068 -26.306   6.166  0.00  0.00    +0.003 A 
ATOM     37  C   LIG    1       24.308 -27.513   5.502  0.00  0.00    +0.000 A 
ATOM     38  C   LIG    1       25.597 -27.846   5.098  0.00  0.00    +0.000 A 
ATOM     39  C   LIG    1       26.652 -26.984   5.390  0.00  0.00    +0.000 A 
ATOM     40  C   LIG    1       26.414 -25.771   6.047  0.00  0.00    +0.003 A 
ENDBRANCH  34  35
ENDBRANCH  33  34
ENDBRANCH  32  33
ENDBRANCH  31  32
ENDBRANCH   1  31
TORSDOF 16
ENDMDL
MODEL 5
REMARK VINA RESULT:      -7.3      2.196      7.369
REMARK  Name = *****
REMARK                            x       y       z     vdW  Elec       q    Type
REMARK                         _______ _______ _______ _____ _____    ______ ____
ROOT
ATOM      1  P   LIG    1       26.838 -29.635   9.669  0.00  0.00    +0.216 P 
ATOM      2  O   LIG    1       27.367 -30.980  10.216  0.00  0.00    -0.290 OA
ENDROOT
BRANCH   1   3
ATOM      3  O   LIG    1       25.264 -29.874  10.286  0.00  0.00    -0.286 OA
BRANCH   3   4
ATOM      4  C   LIG    1       24.766 -31.231  10.332  0.00  0.00    +0.320 C 
BRANCH   4   5
ATOM      5  C   LIG    1       24.241 -31.583  11.763  0.00  0.00    +0.052 C 
ATOM      6  C   LIG    1       25.262 -32.389  12.585  0.00  0.00    +0.013 C 
ATOM      7  C   LIG    1       22.928 -32.377  11.748  0.00  0.00    +0.013 C 
ENDBRANCH   4   5
BRANCH   4   8
ATOM      8  O   LIG    1       23.681 -31.305   9.408  0.00  0.00    -0.434 OA
BRANCH   8   9
ATOM      9  C   LIG    1       23.925 -31.988   8.249  0.00  0.00    +0.309 C 
ATOM     10  O   LIG    1       23.342 -31.880   7.203  0.00  0.00    -0.251 OA
BRANCH   9  12
ATOM     11  C   LIG    1       26.079 -32.979   7.473  0.00  0.00    +0.015 C 
ATOM     12  C   LIG    1       25.018 -32.996   8.558  0.00  0.00    +0.117 C 
ENDBRANCH   9  12
ENDBRANCH   8   9
ENDBRANCH   4   8
ENDBRANCH   3   4
ENDBRANCH   1   3
BRANCH   1  13
ATOM     13  C   LIG    1       26.212 -28.043   9.020  0.00  0.00    +0.193 C 
BRANCH  13  14
ATOM     14  C   LIG    1       25.810 -28.113   7.565  0.00  0.00    +0.226 C 
ATOM     15  N   LIG    1       25.697 -26.926   6.883  0.00  0.00    -0.287 N 
ATOM     16  C   LIG    1       25.036 -26.805   5.588  0.00  0.00    +0.185 C 
ATOM     17  C   LIG    1       24.370 -25.428   5.705  0.00  0.00    +0.039 C 
ATOM     18  C   LIG    1       25.349 -24.578   6.535  0.00  0.00    +0.012 C 
ATOM     19  C   LIG    1       26.031 -25.621   7.411  0.00  0.00    +0.112 C 
ATOM     20  O   LIG    1       25.478 -29.182   7.052  0.00  0.00    -0.275 OA
BRANCH  18  21
ATOM     21  C   LIG    1       24.680 -23.481   7.398  0.00  0.00    -0.006 C 
ATOM     22  C   LIG    1       25.673 -22.396   7.878  0.00  0.00    +0.004 C 
ATOM     23  C   LIG    1       26.024 -21.373   6.805  0.00  0.00    +0.000 C 
ATOM     24  C   LIG    1       24.764 -20.725   6.251  0.00  0.00    +0.000 C 
ATOM     25  C   LIG    1       23.820 -21.773   5.677  0.00  0.00    +0.000 C 
ATOM     26  C   LIG    1       23.463 -22.844   6.707  0.00  0.00    +0.004 C 
ENDBRANCH  18  21
BRANCH  16  27
ATOM     27  C   LIG    1       26.030 -26.906   4.416  0.00  0.00    +0.326 C 
ATOM     28  O   LIG    1       25.845 -26.425   3.302  0.00  0.00    -0.249 OA
BRANCH  27  29
ATOM     29  O   LIG    1       27.173 -27.570   4.714  0.00  0.00    -0.479 OA
ATOM     30  H   LIG    1       27.071 -28.533   4.853  0.00  0.00    +0.295 HD
ENDBRANCH  27  29
ENDBRANCH  16  27
ENDBRANCH  13  14
ENDBRANCH   1  13
BRANCH   1  31
ATOM     31  C   LIG    1       27.525 -28.640  11.318  0.00  0.00    +0.098 C 
BRANCH  31  32
ATOM     32  C   LIG    1       26.555 -28.450  12.468  0.00  0.00    +0.010 C 
BRANCH  32  33
ATOM     33  C   LIG    1       26.154 -27.021  12.804  0.00  0.00    +0.005 C 
BRANCH  33  34
ATOM     34  C   LIG    1       24.982 -26.838  13.785  0.00  0.00    +0.035 C 
BRANCH  34  35
ATOM     35  C   LIG    1       23.580 -27.174  13.332  0.00  0.00    -0.047 A 
ATOM     36  C   LIG    1       23.269 -28.478  12.907  0.00  0.00    +0.003 A 
ATOM     37  C   LIG    1       21.948 -28.850  12.637  0.00  0.00    +0.000 A 
ATOM     38  C   LIG    1       20.918 -27.925  12.776  0.00  0.00    +0.000 A 
ATOM     39  C   LIG    1       21.216 -26.617  13.153  0.00  0.00    +0.000 A 
ATOM     40  C   LIG    1       22.535 -26.244  13.432  0.00  0.00    +0.003 A 
ENDBRANCH  34  35
ENDBRANCH  33  34
ENDBRANCH  32  33
ENDBRANCH  31  32
ENDBRANCH   1  31
TORSDOF 16
ENDMDL
MODEL 6
REMARK VINA RESULT:      -7.3      1.838      2.802
REMARK  Name = *****
REMARK                            x       y       z     vdW  Elec       q    Type
REMARK                         _______ _______ _______ _____ _____    ______ ____
ROOT
ATOM      1  P   LIG    1       25.574 -30.204   9.163  0.00  0.00    +0.216 P 
ATOM      2  O   LIG    1       27.118 -30.206   9.231  0.00  0.00    -0.290 OA
ENDROOT
BRANCH   1   3
ATOM      3  O   LIG    1       25.398 -29.379  10.648  0.00  0.00    -0.286 OA
BRANCH   3   4
ATOM      4  C   LIG    1       26.119 -29.899  11.788  0.00  0.00    +0.320 C 
BRANCH   4   5
ATOM      5  C   LIG    1       26.728 -28.736  12.640  0.00  0.00    +0.052 C 
ATOM      6  C   LIG    1       26.875 -27.431  11.837  0.00  0.00    +0.013 C 
ATOM      7  C   LIG    1       28.102 -29.073  13.232  0.00  0.00    +0.013 C 
ENDBRANCH   4   5
BRANCH   4   8
ATOM      8  O   LIG    1       25.175 -30.612  12.585  0.00  0.00    -0.434 OA
BRANCH   8   9
ATOM      9  C   LIG    1       25.464 -31.927  12.825  0.00  0.00    +0.309 C 
ATOM     10  O   LIG    1       25.670 -32.788  12.011  0.00  0.00    -0.251 OA
BRANCH   9  12
ATOM     11  C   LIG    1       26.761 -32.098  14.949  0.00  0.00    +0.015 C 
ATOM     12  C   LIG    1       25.376 -32.127  14.328  0.00  0.00    +0.117 C 
ENDBRANCH   9  12
ENDBRANCH   8   9
ENDBRANCH   4   8
ENDBRANCH   3   4
ENDBRANCH   1   3
BRANCH   1  13
ATOM     13  C   LIG    1       23.746 -30.202   9.083  0.00  0.00    +0.193 C 
BRANCH  13  14
ATOM     14  C   LIG    1       23.124 -31.415   9.734  0.00  0.00    +0.226 C 
ATOM     15  N   LIG    1       22.308 -31.201  10.819  0.00  0.00    -0.287 N 
ATOM     16  C   LIG    1       21.886 -32.263  11.727  0.00  0.00    +0.185 C 
ATOM     17  C   LIG    1       21.872 -31.532  13.076  0.00  0.00    +0.039 C 
ATOM     18  C   LIG    1       21.409 -30.100  12.751  0.00  0.00    +0.012 C 
ATOM     19  C   LIG    1       21.910 -29.906  11.326  0.00  0.00    +0.112 C 
ATOM     20  O   LIG    1       23.438 -32.553   9.382  0.00  0.00    -0.275 OA
BRANCH  18  21
ATOM     21  C   LIG    1       21.978 -29.009  13.692  0.00  0.00    -0.006 C 
ATOM     22  C   LIG    1       22.040 -27.610  13.033  0.00  0.00    +0.004 C 
ATOM     23  C   LIG    1       20.693 -26.901  12.982  0.00  0.00    +0.000 C 
ATOM     24  C   LIG    1       20.087 -26.799  14.373  0.00  0.00    +0.000 C 
ATOM     25  C   LIG    1       19.921 -28.180  14.996  0.00  0.00    +0.000 C 
ATOM     26  C   LIG    1       21.241 -28.948  15.040  0.00  0.00    +0.004 C 
ENDBRANCH  18  21
BRANCH  16  27
ATOM     27  C   LIG    1       20.518 -32.852  11.337  0.00  0.00    +0.326 C 
ATOM     28  O   LIG    1       20.140 -33.033  10.183  0.00  0.00    -0.249 OA
BRANCH  27  29
ATOM     29  O   LIG    1       19.736 -33.187  12.392  0.00  0.00    -0.479 OA
ATOM     30  H   LIG    1       19.680 -34.146  12.581  0.00  0.00    +0.295 HD
ENDBRANCH  27  29
ENDBRANCH  16  27
ENDBRANCH  13  14
ENDBRANCH   1  13
BRANCH   1  31
ATOM     31  C   LIG    1       25.580 -28.509   8.020  0.00  0.00    +0.098 C 
BRANCH  31  32
ATOM     32  C   LIG    1       25.120 -28.641   6.580  0.00  0.00    +0.010 C 
BRANCH  32  33
ATOM     33  C   LIG    1       24.758 -27.356   5.851  0.00  0.00    +0.005 C 
BRANCH  33  34
ATOM     34  C   LIG    1       25.651 -26.130   6.115  0.00  0.00    +0.035 C 
BRANCH  34  35
ATOM     35  C   LIG    1       25.021 -24.853   6.623  0.00  0.00    -0.047 A 
ATOM     36  C   LIG    1       25.829 -23.828   7.148  0.00  0.00    +0.003 A 
ATOM     37  C   LIG    1       25.284 -22.582   7.475  0.00  0.00    +0.000 A 
ATOM     38  C   LIG    1       23.926 -22.342   7.294  0.00  0.00    +0.000 A 
ATOM     39  C   LIG    1       23.106 -23.362   6.817  0.00  0.00    +0.000 A 
ATOM     40  C   LIG    1       23.648 -24.607   6.481  0.00  0.00    +0.003 A 
ENDBRANCH  34  35
ENDBRANCH  33  34
ENDBRANCH  32  33
ENDBRANCH  31  32
ENDBRANCH   1  31
TORSDOF 16
ENDMDL
MODEL 7
REMARK VINA RESULT:      -7.1      4.434      8.164
REMARK  Name = *****
REMARK                            x       y       z     vdW  Elec       q    Type
REMARK                         _______ _______ _______ _____ _____    ______ ____
ROOT
ATOM      1  P   LIG    1       24.627 -24.465   6.453  0.00  0.00    +0.216 P 
ATOM      2  O   LIG    1       23.441 -23.619   6.967  0.00  0.00    -0.290 OA
ENDROOT
BRANCH   1   3
ATOM      3  O   LIG    1       24.970 -23.404   5.160  0.00  0.00    -0.286 OA
BRANCH   3   4
ATOM      4  C   LIG    1       24.745 -21.993   5.380  0.00  0.00    +0.320 C 
BRANCH   4   5
ATOM      5  C   LIG    1       25.553 -21.133   4.352  0.00  0.00    +0.052 C 
ATOM      6  C   LIG    1       26.147 -19.862   4.985  0.00  0.00    +0.013 C 
ATOM      7  C   LIG    1       24.722 -20.701   3.137  0.00  0.00    +0.013 C 
ENDBRANCH   4   5
BRANCH   4   8
ATOM      8  O   LIG    1       23.351 -21.761   5.183  0.00  0.00    -0.434 OA
BRANCH   8   9
ATOM      9  C   LIG    1       22.838 -20.644   5.782  0.00  0.00    +0.309 C 
ATOM     10  O   LIG    1       23.012 -20.280   6.915  0.00  0.00    -0.251 OA
BRANCH   9  12
ATOM     11  C   LIG    1       22.240 -18.518   4.622  0.00  0.00    +0.015 C 
ATOM     12  C   LIG    1       21.911 -19.992   4.770  0.00  0.00    +0.117 C 
ENDBRANCH   9  12
ENDBRANCH   8   9
ENDBRANCH   4   8
ENDBRANCH   3   4
ENDBRANCH   1   3
BRANCH   1  13
ATOM     13  C   LIG    1       26.031 -25.468   5.843  0.00  0.00    +0.193 C 
BRANCH  13  14
ATOM     14  C   LIG    1       25.610 -26.822   5.322  0.00  0.00    +0.226 C 
ATOM     15  N   LIG    1       25.423 -27.823   6.245  0.00  0.00    -0.287 N 
ATOM     16  C   LIG    1       25.316 -29.234   5.885  0.00  0.00    +0.185 C 
ATOM     17  C   LIG    1       26.029 -29.910   7.064  0.00  0.00    +0.039 C 
ATOM     18  C   LIG    1       25.680 -29.047   8.291  0.00  0.00    +0.012 C 
ATOM     19  C   LIG    1       25.494 -27.665   7.681  0.00  0.00    +0.112 C 
ATOM     20  O   LIG    1       25.560 -27.046   4.113  0.00  0.00    -0.275 OA
BRANCH  18  21
ATOM     21  C   LIG    1       26.767 -29.024   9.394  0.00  0.00    -0.006 C 
ATOM     22  C   LIG    1       26.385 -28.141  10.605  0.00  0.00    +0.004 C 
ATOM     23  C   LIG    1       25.398 -28.806  11.556  0.00  0.00    +0.000 C 
ATOM     24  C   LIG    1       25.934 -30.147  12.033  0.00  0.00    +0.000 C 
ATOM     25  C   LIG    1       26.217 -31.070  10.853  0.00  0.00    +0.000 C 
ATOM     26  C   LIG    1       27.178 -30.434   9.850  0.00  0.00    +0.004 C 
ENDBRANCH  18  21
BRANCH  16  27
ATOM     27  C   LIG    1       23.853 -29.683   5.717  0.00  0.00    +0.326 C 
ATOM     28  O   LIG    1       23.371 -30.692   6.222  0.00  0.00    -0.249 OA
BRANCH  27  29
ATOM     29  O   LIG    1       23.101 -28.848   4.960  0.00  0.00    -0.479 OA
ATOM     30  H   LIG    1       23.580 -28.083   4.581  0.00  0.00    +0.295 HD
ENDBRANCH  27  29
ENDBRANCH  16  27
ENDBRANCH  13  14
ENDBRANCH   1  13
BRANCH   1  31
ATOM     31  C   LIG    1       25.904 -23.560   7.768  0.00  0.00    +0.098 C 
BRANCH  31  32
ATOM     32  C   LIG    1       25.555 -22.154   8.220  0.00  0.00    +0.010 C 
BRANCH  32  33
ATOM     33  C   LIG    1       26.691 -21.143   8.266  0.00  0.00    +0.005 C 
BRANCH  33  34
ATOM     34  C   LIG    1       27.965 -21.489   7.474  0.00  0.00    +0.035 C 
BRANCH  34  35
ATOM     35  C   LIG    1       29.202 -20.639   7.657  0.00  0.00    -0.047 A 
ATOM     36  C   LIG    1       29.247 -19.336   7.131  0.00  0.00    +0.003 A 
ATOM     37  C   LIG    1       30.314 -18.479   7.425  0.00  0.00    +0.000 A 
ATOM     38  C   LIG    1       31.356 -18.912   8.239  0.00  0.00    +0.000 A 
ATOM     39  C   LIG    1       31.347 -20.215   8.731  0.00  0.00    +0.000 A 
ATOM     40  C   LIG    1       30.278 -21.072   8.446  0.00  0.00    +0.003 A 
ENDBRANCH  34  35
ENDBRANCH  33  34
ENDBRANCH  32  33
ENDBRANCH  31  32
ENDBRANCH   1  31
TORSDOF 16
ENDMDL
MODEL 8
REMARK VINA RESULT:      -6.9      2.081      3.156
REMARK  Name = *****
REMARK                            x       y       z     vdW  Elec       q    Type
REMARK                         _______ _______ _______ _____ _____    ______ ____
ROOT
ATOM      1  P   LIG    1       26.031 -30.405   9.937  0.00  0.00    +0.216 P 
ATOM      2  O   LIG    1       27.229 -30.847   9.068  0.00  0.00    -0.290 OA
ENDROOT
BRANCH   1   3
ATOM      3  O   LIG    1       26.986 -29.423  10.956  0.00  0.00    -0.286 OA
BRANCH   3   4
ATOM      4  C   LIG    1       26.402 -28.994  12.206  0.00  0.00    +0.320 C 
BRANCH   4   5
ATOM      5  C   LIG    1       27.318 -29.386  13.413  0.00  0.00    +0.052 C 
ATOM      6  C   LIG    1       28.791 -29.562  13.003  0.00  0.00    +0.013 C 
ATOM      7  C   LIG    1       26.875 -30.677  14.114  0.00  0.00    +0.013 C 
ENDBRANCH   4   5
BRANCH   4   8
ATOM      8  O   LIG    1       26.297 -27.572  12.148  0.00  0.00    -0.434 OA
BRANCH   8   9
ATOM      9  C   LIG    1       25.554 -26.984  13.134  0.00  0.00    +0.309 C 
ATOM     10  O   LIG    1       24.502 -27.362  13.577  0.00  0.00    -0.251 OA
BRANCH   9  12
ATOM     11  C   LIG    1       25.256 -24.646  13.950  0.00  0.00    +0.015 C 
ATOM     12  C   LIG    1       26.261 -25.692  13.502  0.00  0.00    +0.117 C 
ENDBRANCH   9  12
ENDBRANCH   8   9
ENDBRANCH   4   8
ENDBRANCH   3   4
ENDBRANCH   1   3
BRANCH   1  13
ATOM     13  C   LIG    1       24.611 -29.882  10.967  0.00  0.00    +0.193 C 
BRANCH  13  14
ATOM     14  C   LIG    1       23.599 -30.983  11.183  0.00  0.00    +0.226 C 
ATOM     15  N   LIG    1       22.366 -30.620  11.671  0.00  0.00    -0.287 N 
ATOM     16  C   LIG    1       21.406 -31.577  12.211  0.00  0.00    +0.185 C 
ATOM     17  C   LIG    1       20.771 -30.770  13.351  0.00  0.00    +0.039 C 
ATOM     18  C   LIG    1       20.724 -29.319  12.838  0.00  0.00    +0.012 C 
ATOM     19  C   LIG    1       21.920 -29.263  11.896  0.00  0.00    +0.112 C 
ATOM     20  O   LIG    1       23.912 -32.165  11.045  0.00  0.00    -0.275 OA
BRANCH  18  21
ATOM     21  C   LIG    1       20.838 -28.239  13.942  0.00  0.00    -0.006 C 
ATOM     22  C   LIG    1       21.006 -26.808  13.378  0.00  0.00    +0.004 C 
ATOM     23  C   LIG    1       19.705 -26.195  12.875  0.00  0.00    +0.000 C 
ATOM     24  C   LIG    1       18.649 -26.206  13.970  0.00  0.00    +0.000 C 
ATOM     25  C   LIG    1       18.394 -27.625  14.464  0.00  0.00    +0.000 C 
ATOM     26  C   LIG    1       19.677 -28.299  14.949  0.00  0.00    +0.004 C 
ENDBRANCH  18  21
BRANCH  16  27
ATOM     27  C   LIG    1       20.390 -32.042  11.153  0.00  0.00    +0.326 C 
ATOM     28  O   LIG    1       19.174 -32.077  11.321  0.00  0.00    -0.249 OA
BRANCH  27  29
ATOM     29  O   LIG    1       20.946 -32.408   9.972  0.00  0.00    -0.479 OA
ATOM     30  H   LIG    1       21.149 -33.361   9.885  0.00  0.00    +0.295 HD
ENDBRANCH  27  29
ENDBRANCH  16  27
ENDBRANCH  13  14
ENDBRANCH   1  13
BRANCH   1  31
ATOM     31  C   LIG    1       25.572 -28.906   8.625  0.00  0.00    +0.098 C 
BRANCH  31  32
ATOM     32  C   LIG    1       24.643 -29.248   7.476  0.00  0.00    +0.010 C 
BRANCH  32  33
ATOM     33  C   LIG    1       25.224 -29.172   6.072  0.00  0.00    +0.005 C 
BRANCH  33  34
ATOM     34  C   LIG    1       24.872 -27.925   5.239  0.00  0.00    +0.035 C 
BRANCH  34  35
ATOM     35  C   LIG    1       24.885 -26.566   5.902  0.00  0.00    -0.047 A 
ATOM     36  C   LIG    1       26.101 -25.990   6.308  0.00  0.00    +0.003 A 
ATOM     37  C   LIG    1       26.151 -24.672   6.776  0.00  0.00    +0.000 A 
ATOM     38  C   LIG    1       24.988 -23.913   6.855  0.00  0.00    +0.000 A 
ATOM     39  C   LIG    1       23.769 -24.486   6.498  0.00  0.00    +0.000 A 
ATOM     40  C   LIG    1       23.716 -25.800   6.023  0.00  0.00    +0.003 A 
ENDBRANCH  34  35
ENDBRANCH  33  34
ENDBRANCH  32  33
ENDBRANCH  31  32
ENDBRANCH   1  31
TORSDOF 16
ENDMDL
MODEL 9
REMARK VINA RESULT:      -6.8      2.505      4.111
REMARK  Name = *****
REMARK                            x       y       z     vdW  Elec       q    Type
REMARK                         _______ _______ _______ _____ _____    ______ ____
ROOT
ATOM      1  P   LIG    1       24.766 -29.703   7.421  0.00  0.00    +0.216 P 
ATOM      2  O   LIG    1       23.598 -29.724   6.410  0.00  0.00    -0.290 OA
ENDROOT
BRANCH   1   3
ATOM      3  O   LIG    1       25.700 -30.826   6.537  0.00  0.00    -0.286 OA
BRANCH   3   4
ATOM      4  C   LIG    1       25.007 -31.946   5.942  0.00  0.00    +0.320 C 
BRANCH   4   5
ATOM      5  C   LIG    1       26.014 -32.915   5.238  0.00  0.00    +0.052 C 
ATOM      6  C   LIG    1       27.320 -33.090   6.035  0.00  0.00    +0.013 C 
ATOM      7  C   LIG    1       26.393 -32.468   3.820  0.00  0.00    +0.013 C 
ENDBRANCH   4   5
BRANCH   4   8
ATOM      8  O   LIG    1       24.359 -32.644   7.005  0.00  0.00    -0.434 OA
BRANCH   8   9
ATOM      9  C   LIG    1       23.201 -33.294   6.679  0.00  0.00    +0.309 C 
ATOM     10  O   LIG    1       22.711 -33.405   5.586  0.00  0.00    -0.251 OA
BRANCH   9  12
ATOM     11  C   LIG    1       22.561 -32.643   9.000  0.00  0.00    +0.015 C 
ATOM     12  C   LIG    1       22.584 -33.769   7.982  0.00  0.00    +0.117 C 
ENDBRANCH   9  12
ENDBRANCH   8   9
ENDBRANCH   4   8
ENDBRANCH   3   4
ENDBRANCH   1   3
BRANCH   1  13
ATOM     13  C   LIG    1       26.149 -29.678   8.619  0.00  0.00    +0.193 C 
BRANCH  13  14
ATOM     14  C   LIG    1       25.923 -30.588   9.804  0.00  0.00    +0.226 C 
ATOM     15  N   LIG    1       25.760 -29.995  11.033  0.00  0.00    -0.287 N 
ATOM     16  C   LIG    1       25.837 -30.728  12.293  0.00  0.00    +0.185 C 
ATOM     17  C   LIG    1       26.506 -29.698  13.211  0.00  0.00    +0.039 C 
ATOM     18  C   LIG    1       25.958 -28.334  12.752  0.00  0.00    +0.012 C 
ATOM     19  C   LIG    1       25.682 -28.571  11.273  0.00  0.00    +0.112 C 
ATOM     20  O   LIG    1       26.008 -31.811   9.687  0.00  0.00    -0.275 OA
BRANCH  18  21
ATOM     21  C   LIG    1       26.931 -27.146  12.951  0.00  0.00    -0.006 C 
ATOM     22  C   LIG    1       26.257 -25.768  12.749  0.00  0.00    +0.004 C 
ATOM     23  C   LIG    1       25.422 -25.318  13.941  0.00  0.00    +0.000 C 
ATOM     24  C   LIG    1       26.260 -25.312  15.210  0.00  0.00    +0.000 C 
ATOM     25  C   LIG    1       26.847 -26.691  15.482  0.00  0.00    +0.000 C 
ATOM     26  C   LIG    1       27.667 -27.205  14.300  0.00  0.00    +0.004 C 
ENDBRANCH  18  21
BRANCH  16  27
ATOM     27  C   LIG    1       24.452 -31.180  12.788  0.00  0.00    +0.326 C 
ATOM     28  O   LIG    1       23.800 -30.607  13.656  0.00  0.00    -0.249 OA
BRANCH  27  29
ATOM     29  O   LIG    1       23.973 -32.285  12.166  0.00  0.00    -0.479 OA
ATOM     30  H   LIG    1       24.629 -32.996  12.017  0.00  0.00    +0.295 HD
ENDBRANCH  27  29
ENDBRANCH  16  27
ENDBRANCH  13  14
ENDBRANCH   1  13
BRANCH   1  31
ATOM     31  C   LIG    1       25.575 -28.054   6.523  0.00  0.00    +0.098 C 
BRANCH  31  32
ATOM     32  C   LIG    1       24.731 -27.347   5.479  0.00  0.00    +0.010 C 
BRANCH  32  33
ATOM     33  C   LIG    1       24.289 -25.926   5.798  0.00  0.00    +0.005 C 
BRANCH  33  34
ATOM     34  C   LIG    1       25.214 -25.095   6.705  0.00  0.00    +0.035 C 
BRANCH  34  35
ATOM     35  C   LIG    1       24.957 -23.613   6.863  0.00  0.00    -0.047 A 
ATOM     36  C   LIG    1       23.638 -23.124   6.887  0.00  0.00    +0.003 A 
ATOM     37  C   LIG    1       23.375 -21.784   7.190  0.00  0.00    +0.000 A 
ATOM     38  C   LIG    1       24.422 -20.909   7.463  0.00  0.00    +0.000 A 
ATOM     39  C   LIG    1       25.735 -21.369   7.399  0.00  0.00    +0.000 A 
ATOM     40  C   LIG    1       26.002 -22.711   7.105  0.00  0.00    +0.003 A 
ENDBRANCH  34  35
ENDBRANCH  33  34
ENDBRANCH  32  33
ENDBRANCH  31  32
ENDBRANCH   1  31
TORSDOF 16
ENDMDL
