MODEL 1
REMARK VINA RESULT:      -5.4      0.000      0.000
REMARK  Name = *****
REMARK                            x       y       z     vdW  Elec       q    Type
REMARK                         _______ _______ _______ _____ _____    ______ ____
ROOT
ATOM      1  C   LIG    1       23.859 -20.844   5.841  0.00  0.00    +0.318 C 
ATOM      2 CL   LIG    1       25.510 -20.410   5.252  0.00  0.00    -0.081 Cl
ENDROOT
BRANCH   1   3
ATOM      3  C   LIG    1       22.769 -20.065   5.069  0.00  0.00    +0.430 C 
ATOM      4  F   LIG    1       22.304 -18.991   5.750  0.00  0.00    -0.167 F 
ATOM      5  F   LIG    1       21.695 -20.859   4.832  0.00  0.00    -0.167 F 
ATOM      6  F   LIG    1       23.214 -19.607   3.875  0.00  0.00    -0.167 F 
ENDBRANCH   1   3
BRANCH   1   7
ATOM      7  O   LIG    1       23.783 -22.269   5.743  0.00  0.00    -0.294 OA
BRANCH   7   9
ATOM      8  F   LIG    1       22.957 -21.893   7.792  0.00  0.00    -0.178 F 
ATOM      9  C   LIG    1       23.359 -22.871   6.946  0.00  0.00    +0.484 C 
ATOM     10  F   LIG    1       22.305 -23.662   6.707  0.00  0.00    -0.178 F 
ENDBRANCH   7   9
ENDBRANCH   1   7
TORSDOF 3
ENDMDL
MODEL 2
REMARK VINA RESULT:      -5.3      2.404      3.009
REMARK  Name = *****
REMARK                            x       y       z     vdW  Elec       q    Type
REMARK                         _______ _______ _______ _____ _____    ______ ____
ROOT
ATOM      1  C   LIG    1       23.711 -21.577   6.482  0.00  0.00    +0.318 C 
ATOM      2 CL   LIG    1       22.815 -23.090   6.891  0.00  0.00    -0.081 Cl
ENDROOT
BRANCH   1   3
ATOM      3  C   LIG    1       22.881 -20.677   5.536  0.00  0.00    +0.430 C 
ATOM      4  F   LIG    1       21.722 -21.255   5.140  0.00  0.00    -0.167 F 
ATOM      5  F   LIG    1       23.578 -20.407   4.404  0.00  0.00    -0.167 F 
ATOM      6  F   LIG    1       22.552 -19.496   6.110  0.00  0.00    -0.167 F 
ENDBRANCH   1   3
BRANCH   1   7
ATOM      7  O   LIG    1       24.061 -20.990   7.739  0.00  0.00    -0.294 OA
BRANCH   7   9
ATOM      8  F   LIG    1       25.963 -20.138   6.919  0.00  0.00    -0.178 F 
ATOM      9  C   LIG    1       25.456 -20.894   7.920  0.00  0.00    +0.484 C 
ATOM     10  F   LIG    1       25.718 -20.268   9.076  0.00  0.00    -0.178 F 
ENDBRANCH   7   9
ENDBRANCH   1   7
TORSDOF 3
ENDMDL
MODEL 3
REMARK VINA RESULT:      -5.2      1.540      1.990
REMARK  Name = *****
REMARK                            x       y       z     vdW  Elec       q    Type
REMARK                         _______ _______ _______ _____ _____    ______ ____
ROOT
ATOM      1  C   LIG    1       23.137 -21.784   6.235  0.00  0.00    +0.318 C 
ATOM      2 CL   LIG    1       23.896 -20.804   7.548  0.00  0.00    -0.081 Cl
ENDROOT
BRANCH   1   3
ATOM      3  C   LIG    1       22.496 -20.875   5.160  0.00  0.00    +0.430 C 
ATOM      4  F   LIG    1       23.238 -20.792   4.029  0.00  0.00    -0.167 F 
ATOM      5  F   LIG    1       22.368 -19.607   5.625  0.00  0.00    -0.167 F 
ATOM      6  F   LIG    1       21.268 -21.306   4.790  0.00  0.00    -0.167 F 
ENDBRANCH   1   3
BRANCH   1   7
ATOM      7  O   LIG    1       24.169 -22.657   5.767  0.00  0.00    -0.294 OA
BRANCH   7   9
ATOM      8  F   LIG    1       25.079 -23.973   7.336  0.00  0.00    -0.178 F 
ATOM      9  C   LIG    1       24.122 -23.927   6.380  0.00  0.00    +0.484 C 
ATOM     10  F   LIG    1       22.937 -24.093   6.981  0.00  0.00    -0.178 F 
ENDBRANCH   7   9
ENDBRANCH   1   7
TORSDOF 3
ENDMDL
MODEL 4
REMARK VINA RESULT:      -5.1      2.213      2.934
REMARK  Name = *****
REMARK                            x       y       z     vdW  Elec       q    Type
REMARK                         _______ _______ _______ _____ _____    ______ ____
ROOT
ATOM      1  C   LIG    1       24.352 -20.282   5.144  0.00  0.00    +0.318 C 
ATOM      2 CL   LIG    1       24.178 -20.601   3.376  0.00  0.00    -0.081 Cl
ENDROOT
BRANCH   1   3
ATOM      3  C   LIG    1       22.972 -20.237   5.841  0.00  0.00    +0.430 C 
ATOM      4  F   LIG    1       23.053 -20.397   7.184  0.00  0.00    -0.167 F 
ATOM      5  F   LIG    1       22.177 -21.237   5.386  0.00  0.00    -0.167 F 
ATOM      6  F   LIG    1       22.328 -19.066   5.626  0.00  0.00    -0.167 F 
ENDBRANCH   1   3
BRANCH   1   7
ATOM      7  O   LIG    1       25.251 -21.287   5.625  0.00  0.00    -0.294 OA
BRANCH   7   9
ATOM      8  F   LIG    1       26.935 -19.820   5.444  0.00  0.00    -0.178 F 
ATOM      9  C   LIG    1       26.379 -20.739   6.269  0.00  0.00    +0.484 C 
ATOM     10  F   LIG    1       25.997 -20.105   7.386  0.00  0.00    -0.178 F 
ENDBRANCH   7   9
ENDBRANCH   1   7
TORSDOF 3
ENDMDL
MODEL 5
REMARK VINA RESULT:      -5.1      2.551      3.206
REMARK  Name = *****
REMARK                            x       y       z     vdW  Elec       q    Type
REMARK                         _______ _______ _______ _____ _____    ______ ____
ROOT
ATOM      1  C   LIG    1       23.794 -22.310   5.970  0.00  0.00    +0.318 C 
ATOM      2 CL   LIG    1       22.792 -23.588   6.758  0.00  0.00    -0.081 Cl
ENDROOT
BRANCH   1   3
ATOM      3  C   LIG    1       23.641 -20.954   6.699  0.00  0.00    +0.430 C 
ATOM      4  F   LIG    1       22.881 -20.068   6.011  0.00  0.00    -0.167 F 
ATOM      5  F   LIG    1       24.852 -20.365   6.867  0.00  0.00    -0.167 F 
ATOM      6  F   LIG    1       23.075 -21.089   7.921  0.00  0.00    -0.167 F 
ENDBRANCH   1   3
BRANCH   1   7
ATOM      7  O   LIG    1       25.123 -22.839   5.929  0.00  0.00    -0.294 OA
BRANCH   7   9
ATOM      8  F   LIG    1       26.279 -24.664   6.523  0.00  0.00    -0.178 F 
ATOM      9  C   LIG    1       25.366 -23.767   6.963  0.00  0.00    +0.484 C 
ATOM     10  F   LIG    1       25.894 -23.135   8.020  0.00  0.00    -0.178 F 
ENDBRANCH   7   9
ENDBRANCH   1   7
TORSDOF 3
ENDMDL
MODEL 6
REMARK VINA RESULT:      -5.1      2.946      4.033
REMARK  Name = *****
REMARK                            x       y       z     vdW  Elec       q    Type
REMARK                         _______ _______ _______ _____ _____    ______ ____
ROOT
ATOM      1  C   LIG    1       25.238 -21.914   7.599  0.00  0.00    +0.318 C 
ATOM      2 CL   LIG    1       25.926 -23.535   7.201  0.00  0.00    -0.081 Cl
ENDROOT
BRANCH   1   3
ATOM      3  C   LIG    1       26.326 -20.971   8.164  0.00  0.00    +0.430 C 
ATOM      4  F   LIG    1       25.917 -20.293   9.264  0.00  0.00    -0.167 F 
ATOM      5  F   LIG    1       26.667 -20.034   7.245  0.00  0.00    -0.167 F 
ATOM      6  F   LIG    1       27.452 -21.637   8.513  0.00  0.00    -0.167 F 
ENDBRANCH   1   3
BRANCH   1   7
ATOM      7  O   LIG    1       24.600 -21.467   6.398  0.00  0.00    -0.294 OA
BRANCH   7   9
ATOM      8  F   LIG    1       22.862 -21.784   7.776  0.00  0.00    -0.178 F 
ATOM      9  C   LIG    1       23.205 -21.331   6.547  0.00  0.00    +0.484 C 
ATOM     10  F   LIG    1       22.869 -20.036   6.483  0.00  0.00    -0.178 F 
ENDBRANCH   7   9
ENDBRANCH   1   7
TORSDOF 3
ENDMDL
MODEL 7
REMARK VINA RESULT:      -5.1      7.715      8.419
REMARK  Name = *****
REMARK                            x       y       z     vdW  Elec       q    Type
REMARK                         _______ _______ _______ _____ _____    ______ ____
ROOT
ATOM      1  C   LIG    1       30.907 -20.403   8.497  0.00  0.00    +0.318 C 
ATOM      2 CL   LIG    1       31.128 -22.044   9.215  0.00  0.00    -0.081 Cl
ENDROOT
BRANCH   1   3
ATOM      3  C   LIG    1       29.662 -20.359   7.580  0.00  0.00    +0.430 C 
ATOM      4  F   LIG    1       29.160 -21.588   7.312  0.00  0.00    -0.167 F 
ATOM      5  F   LIG    1       29.974 -19.806   6.381  0.00  0.00    -0.167 F 
ATOM      6  F   LIG    1       28.654 -19.635   8.119  0.00  0.00    -0.167 F 
ENDBRANCH   1   3
BRANCH   1   7
ATOM      7  O   LIG    1       30.885 -19.501   9.608  0.00  0.00    -0.294 OA
BRANCH   7   9
ATOM      8  F   LIG    1       32.154 -18.352   8.163  0.00  0.00    -0.178 F 
ATOM      9  C   LIG    1       31.404 -18.231   9.283  0.00  0.00    +0.484 C 
ATOM     10  F   LIG    1       30.398 -17.390   9.010  0.00  0.00    -0.178 F 
ENDBRANCH   7   9
ENDBRANCH   1   7
TORSDOF 3
ENDMDL
MODEL 8
REMARK VINA RESULT:      -5.0      1.631      2.074
REMARK  Name = *****
REMARK                            x       y       z     vdW  Elec       q    Type
REMARK                         _______ _______ _______ _____ _____    ______ ____
ROOT
ATOM      1  C   LIG    1       24.281 -20.557   5.066  0.00  0.00    +0.318 C 
ATOM      2 CL   LIG    1       24.556 -19.515   3.618  0.00  0.00    -0.081 Cl
ENDROOT
BRANCH   1   3
ATOM      3  C   LIG    1       22.919 -20.244   5.727  0.00  0.00    +0.430 C 
ATOM      4  F   LIG    1       21.935 -21.092   5.339  0.00  0.00    -0.167 F 
ATOM      5  F   LIG    1       22.501 -18.998   5.389  0.00  0.00    -0.167 F 
ATOM      6  F   LIG    1       22.977 -20.307   7.078  0.00  0.00    -0.167 F 
ENDBRANCH   1   3
BRANCH   1   7
ATOM      7  O   LIG    1       24.445 -21.901   4.603  0.00  0.00    -0.294 OA
BRANCH   7   9
ATOM      8  F   LIG    1       25.602 -22.048   6.516  0.00  0.00    -0.178 F 
ATOM      9  C   LIG    1       24.892 -22.771   5.619  0.00  0.00    +0.484 C 
ATOM     10  F   LIG    1       23.839 -23.294   6.260  0.00  0.00    -0.178 F 
ENDBRANCH   7   9
ENDBRANCH   1   7
TORSDOF 3
ENDMDL
MODEL 9
REMARK VINA RESULT:      -5.0      1.681      3.469
REMARK  Name = *****
REMARK                            x       y       z     vdW  Elec       q    Type
REMARK                         _______ _______ _______ _____ _____    ______ ____
ROOT
ATOM      1  C   LIG    1       24.175 -21.308   5.115  0.00  0.00    +0.318 C 
ATOM      2 CL   LIG    1       25.144 -22.533   6.021  0.00  0.00    -0.081 Cl
ENDROOT
BRANCH   1   3
ATOM      3  C   LIG    1       22.865 -20.969   5.864  0.00  0.00    +0.430 C 
ATOM      4  F   LIG    1       22.687 -19.637   6.041  0.00  0.00    -0.167 F 
ATOM      5  F   LIG    1       22.871 -21.519   7.105  0.00  0.00    -0.167 F 
ATOM      6  F   LIG    1       21.769 -21.426   5.215  0.00  0.00    -0.167 F 
ENDBRANCH   1   3
BRANCH   1   7
ATOM      7  O   LIG    1       25.062 -20.206   4.899  0.00  0.00    -0.294 OA
BRANCH   7   9
ATOM      8  F   LIG    1       24.225 -20.518   2.844  0.00  0.00    -0.178 F 
ATOM      9  C   LIG    1       24.929 -19.651   3.609  0.00  0.00    +0.484 C 
ATOM     10  F   LIG    1       24.230 -18.510   3.680  0.00  0.00    -0.178 F 
ENDBRANCH   7   9
ENDBRANCH   1   7
TORSDOF 3
ENDMDL
