MODEL 1
REMARK VINA RESULT:      -5.2      0.000      0.000
REMARK  Name = *****
REMARK                            x       y       z     vdW  Elec       q    Type
REMARK                         _______ _______ _______ _____ _____    ______ ____
ROOT
ATOM      1  C   LIG    1       25.788 -27.455   6.913  0.00  0.00    +0.166 A 
ATOM      2  C   LIG    1       24.766 -28.315   6.466  0.00  0.00    +0.204 A 
ATOM      3  C   LIG    1       24.294 -29.359   7.321  0.00  0.00    +0.173 A 
ATOM      4  C   LIG    1       24.818 -29.503   8.640  0.00  0.00    +0.031 A 
ATOM      5  C   LIG    1       24.420 -30.584   9.616  0.00  0.00    -0.009 A 
ATOM      6  C   LIG    1       25.362 -31.642  10.031  0.00  0.00    -0.016 A 
ATOM      7  C   LIG    1       26.839 -31.474   9.618  0.00  0.00    +0.104 C 
ATOM      8  C   LIG    1       27.490 -30.198  10.227  0.00  0.00    +0.032 C 
ATOM      9  C   LIG    1       26.615 -28.940  10.327  0.00  0.00    +0.038 C 
ATOM     10  C   LIG    1       25.102 -32.634  10.906  0.00  0.00    +0.060 A 
ATOM     11  C   LIG    1       23.898 -33.027  11.677  0.00  0.00    +0.221 A 
ATOM     12  O   LIG    1       24.078 -33.751  12.654  0.00  0.00    -0.284 OA
ATOM     13  C   LIG    1       22.532 -32.610  11.251  0.00  0.00    +0.167 A 
ATOM     14  C   LIG    1       22.298 -31.461  10.612  0.00  0.00    +0.050 A 
ATOM     15  C   LIG    1       23.176 -30.431  10.111  0.00  0.00    +0.012 A 
ATOM     16  C   LIG    1       25.884 -28.664   9.036  0.00  0.00    -0.032 A 
ATOM     17  C   LIG    1       26.354 -27.661   8.177  0.00  0.00    +0.053 A 
ENDROOT
BRANCH   7  18
ATOM     18  N   LIG    1       26.965 -31.598   8.172  0.00  0.00    -0.309 N 
ATOM     19  H   LIG    1       26.557 -30.881   7.589  0.00  0.00    +0.149 HD
ATOM     20  C   LIG    1       27.308 -32.797   7.571  0.00  0.00    +0.210 C 
ATOM     21  O   LIG    1       27.535 -33.825   8.171  0.00  0.00    -0.276 OA
ATOM     22  C   LIG    1       27.377 -32.708   6.064  0.00  0.00    +0.109 C 
ENDBRANCH   7  18
BRANCH   1  24
ATOM     23  C   LIG    1       25.908 -25.124   6.363  0.00  0.00    +0.277 C 
ATOM     24  O   LIG    1       26.407 -26.447   6.214  0.00  0.00    -0.491 OA
ENDBRANCH   1  24
BRANCH   2  25
ATOM     25  O   LIG    1       24.380 -28.181   5.151  0.00  0.00    -0.488 OA
ATOM     26  C   LIG    1       25.233 -28.718   4.143  0.00  0.00    +0.277 C 
ENDBRANCH   2  25
BRANCH   3  27
ATOM     27  O   LIG    1       23.510 -30.291   6.679  0.00  0.00    -0.491 OA
ATOM     28  C   LIG    1       24.060 -31.510   6.221  0.00  0.00    +0.277 C 
ENDBRANCH   3  27
BRANCH  13  29
ATOM     29  O   LIG    1       21.415 -33.423  11.456  0.00  0.00    -0.491 OA
ATOM     30  C   LIG    1       20.184 -32.989  10.892  0.00  0.00    +0.277 C 
ENDBRANCH  13  29
TORSDOF 5
ENDMDL
MODEL 2
REMARK VINA RESULT:      -4.9      4.301      7.501
REMARK  Name = *****
REMARK                            x       y       z     vdW  Elec       q    Type
REMARK                         _______ _______ _______ _____ _____    ______ ____
ROOT
ATOM      1  C   LIG    1       19.888 -31.224  11.458  0.00  0.00    +0.166 A 
ATOM      2  C   LIG    1       19.865 -30.706  12.767  0.00  0.00    +0.204 A 
ATOM      3  C   LIG    1       20.923 -29.856  13.213  0.00  0.00    +0.173 A 
ATOM      4  C   LIG    1       21.977 -29.490  12.324  0.00  0.00    +0.031 A 
ATOM      5  C   LIG    1       23.160 -28.628  12.692  0.00  0.00    -0.009 A 
ATOM      6  C   LIG    1       24.532 -29.172  12.751  0.00  0.00    -0.016 A 
ATOM      7  C   LIG    1       24.750 -30.594  12.195  0.00  0.00    +0.104 C 
ATOM      8  C   LIG    1       24.419 -30.703  10.678  0.00  0.00    +0.032 C 
ATOM      9  C   LIG    1       23.220 -29.896  10.159  0.00  0.00    +0.038 C 
ATOM     10  C   LIG    1       25.646 -28.477  13.052  0.00  0.00    +0.060 A 
ATOM     11  C   LIG    1       25.899 -27.067  13.434  0.00  0.00    +0.221 A 
ATOM     12  O   LIG    1       27.049 -26.652  13.293  0.00  0.00    -0.284 OA
ATOM     13  C   LIG    1       24.824 -26.214  14.014  0.00  0.00    +0.167 A 
ATOM     14  C   LIG    1       23.536 -26.366  13.697  0.00  0.00    +0.050 A 
ATOM     15  C   LIG    1       22.844 -27.330  12.875  0.00  0.00    +0.012 A 
ATOM     16  C   LIG    1       22.005 -30.075  11.038  0.00  0.00    -0.032 A 
ATOM     17  C   LIG    1       20.972 -30.927  10.623  0.00  0.00    +0.053 A 
ENDROOT
BRANCH   7  18
ATOM     18  N   LIG    1       24.072 -31.567  13.043  0.00  0.00    -0.309 N 
ATOM     19  H   LIG    1       23.192 -31.306  13.467  0.00  0.00    +0.149 HD
ATOM     20  C   LIG    1       24.731 -32.670  13.556  0.00  0.00    +0.210 C 
ATOM     21  O   LIG    1       25.897 -32.930  13.351  0.00  0.00    -0.276 OA
ATOM     22  C   LIG    1       23.847 -33.545  14.414  0.00  0.00    +0.109 C 
ENDBRANCH   7  18
BRANCH   1  24
ATOM     23  C   LIG    1       18.032 -31.577   9.982  0.00  0.00    +0.277 C 
ATOM     24  O   LIG    1       19.001 -32.100  10.881  0.00  0.00    -0.491 OA
ENDBRANCH   1  24
BRANCH   2  25
ATOM     25  O   LIG    1       18.873 -31.180  13.599  0.00  0.00    -0.488 OA
ATOM     26  C   LIG    1       17.630 -30.483  13.625  0.00  0.00    +0.277 C 
ENDBRANCH   2  25
BRANCH   3  27
ATOM     27  O   LIG    1       20.934 -29.648  14.574  0.00  0.00    -0.491 OA
ATOM     28  C   LIG    1       20.347 -28.493  15.137  0.00  0.00    +0.277 C 
ENDBRANCH   3  27
BRANCH  13  29
ATOM     29  O   LIG    1       25.097 -25.228  14.965  0.00  0.00    -0.491 OA
ATOM     30  C   LIG    1       25.441 -23.936  14.480  0.00  0.00    +0.277 C 
ENDBRANCH  13  29
TORSDOF 5
ENDMDL
MODEL 3
REMARK VINA RESULT:      -4.7      5.213      7.114
REMARK  Name = *****
REMARK                            x       y       z     vdW  Elec       q    Type
REMARK                         _______ _______ _______ _____ _____    ______ ____
ROOT
ATOM      1  C   LIG    1       28.035 -27.570  15.032  0.00  0.00    +0.166 A 
ATOM      2  C   LIG    1       27.389 -26.454  14.466  0.00  0.00    +0.204 A 
ATOM      3  C   LIG    1       26.011 -26.543  14.098  0.00  0.00    +0.173 A 
ATOM      4  C   LIG    1       25.274 -27.740  14.345  0.00  0.00    +0.031 A 
ATOM      5  C   LIG    1       23.829 -27.960  13.970  0.00  0.00    -0.009 A 
ATOM      6  C   LIG    1       23.433 -28.928  12.928  0.00  0.00    -0.016 A 
ATOM      7  C   LIG    1       24.526 -29.880  12.398  0.00  0.00    +0.104 C 
ATOM      8  C   LIG    1       25.102 -30.808  13.507  0.00  0.00    +0.032 C 
ATOM      9  C   LIG    1       25.279 -30.205  14.909  0.00  0.00    +0.038 C 
ATOM     10  C   LIG    1       22.172 -29.202  12.540  0.00  0.00    +0.060 A 
ATOM     11  C   LIG    1       20.845 -28.674  12.935  0.00  0.00    +0.221 A 
ATOM     12  O   LIG    1       19.868 -29.372  12.666  0.00  0.00    -0.284 OA
ATOM     13  C   LIG    1       20.699 -27.336  13.574  0.00  0.00    +0.167 A 
ATOM     14  C   LIG    1       21.641 -26.808  14.360  0.00  0.00    +0.050 A 
ATOM     15  C   LIG    1       22.964 -27.255  14.726  0.00  0.00    +0.012 A 
ATOM     16  C   LIG    1       25.966 -28.862  14.855  0.00  0.00    -0.032 A 
ATOM     17  C   LIG    1       27.324 -28.767  15.188  0.00  0.00    +0.053 A 
ENDROOT
BRANCH   7  18
ATOM     18  N   LIG    1       25.523 -29.122  11.652  0.00  0.00    -0.309 N 
ATOM     19  H   LIG    1       25.923 -28.299  12.081  0.00  0.00    +0.149 HD
ATOM     20  C   LIG    1       25.685 -29.280  10.287  0.00  0.00    +0.210 C 
ATOM     21  O   LIG    1       25.039 -30.044   9.603  0.00  0.00    -0.276 OA
ATOM     22  C   LIG    1       26.766 -28.396   9.711  0.00  0.00    +0.109 C 
ENDBRANCH   7  18
BRANCH   1  24
ATOM     23  C   LIG    1       29.997 -28.942  15.165  0.00  0.00    +0.277 C 
ATOM     24  O   LIG    1       29.357 -27.691  15.384  0.00  0.00    -0.491 OA
ENDBRANCH   1  24
BRANCH   2  25
ATOM     25  O   LIG    1       28.184 -25.369  14.167  0.00  0.00    -0.488 OA
ATOM     26  C   LIG    1       28.390 -24.389  15.180  0.00  0.00    +0.277 C 
ENDBRANCH   2  25
BRANCH   3  27
ATOM     27  O   LIG    1       25.577 -25.500  13.310  0.00  0.00    -0.491 OA
ATOM     28  C   LIG    1       24.981 -24.355  13.885  0.00  0.00    +0.277 C 
ENDBRANCH   3  27
BRANCH  13  29
ATOM     29  O   LIG    1       19.580 -26.529  13.351  0.00  0.00    -0.491 OA
ATOM     30  C   LIG    1       18.593 -26.491  14.374  0.00  0.00    +0.277 C 
ENDBRANCH  13  29
TORSDOF 5
ENDMDL
MODEL 4
REMARK VINA RESULT:      -4.6      1.870      6.642
REMARK  Name = *****
REMARK                            x       y       z     vdW  Elec       q    Type
REMARK                         _______ _______ _______ _____ _____    ______ ____
ROOT
ATOM      1  C   LIG    1       24.389 -32.687   9.933  0.00  0.00    +0.166 A 
ATOM      2  C   LIG    1       25.351 -31.723  10.291  0.00  0.00    +0.204 A 
ATOM      3  C   LIG    1       25.645 -30.648   9.397  0.00  0.00    +0.173 A 
ATOM      4  C   LIG    1       24.935 -30.519   8.165  0.00  0.00    +0.031 A 
ATOM      5  C   LIG    1       25.183 -29.448   7.132  0.00  0.00    -0.009 A 
ATOM      6  C   LIG    1       25.748 -29.762   5.804  0.00  0.00    -0.016 A 
ATOM      7  C   LIG    1       25.857 -31.253   5.420  0.00  0.00    +0.104 C 
ATOM      8  C   LIG    1       24.473 -31.961   5.364  0.00  0.00    +0.032 C 
ATOM      9  C   LIG    1       23.431 -31.557   6.418  0.00  0.00    +0.038 C 
ATOM     10  C   LIG    1       25.986 -28.878   4.816  0.00  0.00    +0.060 A 
ATOM     11  C   LIG    1       25.829 -27.409   4.700  0.00  0.00    +0.221 A 
ATOM     12  O   LIG    1       25.790 -26.943   3.562  0.00  0.00    -0.284 OA
ATOM     13  C   LIG    1       25.778 -26.534   5.906  0.00  0.00    +0.167 A 
ATOM     14  C   LIG    1       25.275 -26.947   7.072  0.00  0.00    +0.050 A 
ATOM     15  C   LIG    1       24.768 -28.224   7.515  0.00  0.00    +0.012 A 
ATOM     16  C   LIG    1       24.022 -31.536   7.807  0.00  0.00    -0.032 A 
ATOM     17  C   LIG    1       23.762 -32.598   8.684  0.00  0.00    +0.053 A 
ENDROOT
BRANCH   7  18
ATOM     18  N   LIG    1       26.850 -31.909   6.262  0.00  0.00    -0.309 N 
ATOM     19  H   LIG    1       27.198 -31.414   7.071  0.00  0.00    +0.149 HD
ATOM     20  C   LIG    1       27.569 -33.006   5.819  0.00  0.00    +0.210 C 
ATOM     21  O   LIG    1       27.442 -33.514   4.727  0.00  0.00    -0.276 OA
ATOM     22  C   LIG    1       28.548 -33.527   6.845  0.00  0.00    +0.109 C 
ENDBRANCH   7  18
BRANCH   1  24
ATOM     23  C   LIG    1       22.810 -33.783  11.366  0.00  0.00    +0.277 C 
ATOM     24  O   LIG    1       24.025 -33.814  10.628  0.00  0.00    -0.491 OA
ENDBRANCH   1  24
BRANCH   2  25
ATOM     25  O   LIG    1       26.064 -31.964  11.445  0.00  0.00    -0.488 OA
ATOM     26  C   LIG    1       25.533 -31.480  12.676  0.00  0.00    +0.277 C 
ENDBRANCH   2  25
BRANCH   3  27
ATOM     27  O   LIG    1       26.782 -29.945   9.727  0.00  0.00    -0.491 OA
ATOM     28  C   LIG    1       26.702 -28.727  10.439  0.00  0.00    +0.277 C 
ENDBRANCH   3  27
BRANCH  13  29
ATOM     29  O   LIG    1       26.300 -25.238   5.901  0.00  0.00    -0.491 OA
ATOM     30  C   LIG    1       25.875 -24.363   6.938  0.00  0.00    +0.277 C 
ENDBRANCH  13  29
TORSDOF 5
ENDMDL
MODEL 5
REMARK VINA RESULT:      -4.3      4.290      6.496
REMARK  Name = *****
REMARK                            x       y       z     vdW  Elec       q    Type
REMARK                         _______ _______ _______ _____ _____    ______ ____
ROOT
ATOM      1  C   LIG    1       26.697 -29.789  13.358  0.00  0.00    +0.166 A 
ATOM      2  C   LIG    1       26.072 -28.533  13.234  0.00  0.00    +0.204 A 
ATOM      3  C   LIG    1       24.647 -28.443  13.285  0.00  0.00    +0.173 A 
ATOM      4  C   LIG    1       23.857 -29.610  13.511  0.00  0.00    +0.031 A 
ATOM      5  C   LIG    1       22.349 -29.640  13.552  0.00  0.00    -0.009 A 
ATOM      6  C   LIG    1       21.555 -30.326  12.513  0.00  0.00    -0.016 A 
ATOM      7  C   LIG    1       22.323 -31.214  11.511  0.00  0.00    +0.104 C 
ATOM      8  C   LIG    1       23.057 -32.400  12.201  0.00  0.00    +0.032 C 
ATOM      9  C   LIG    1       23.695 -32.132  13.572  0.00  0.00    +0.038 C 
ATOM     10  C   LIG    1       20.212 -30.419  12.477  0.00  0.00    +0.060 A 
ATOM     11  C   LIG    1       19.128 -29.899  13.343  0.00  0.00    +0.221 A 
ATOM     12  O   LIG    1       18.032 -30.450  13.253  0.00  0.00    -0.284 OA
ATOM     13  C   LIG    1       19.342 -28.726  14.237  0.00  0.00    +0.167 A 
ATOM     14  C   LIG    1       20.527 -28.450  14.789  0.00  0.00    +0.050 A 
ATOM     15  C   LIG    1       21.829 -29.058  14.650  0.00  0.00    +0.012 A 
ATOM     16  C   LIG    1       24.510 -30.862  13.569  0.00  0.00    -0.032 A 
ATOM     17  C   LIG    1       25.908 -30.937  13.492  0.00  0.00    +0.053 A 
ENDROOT
BRANCH   7  18
ATOM     18  N   LIG    1       23.163 -30.383  10.658  0.00  0.00    -0.309 N 
ATOM     19  H   LIG    1       23.388 -29.447  10.966  0.00  0.00    +0.149 HD
ATOM     20  C   LIG    1       23.374 -30.689   9.324  0.00  0.00    +0.210 C 
ATOM     21  O   LIG    1       22.900 -31.650   8.757  0.00  0.00    -0.276 OA
ATOM     22  C   LIG    1       24.269 -29.696   8.621  0.00  0.00    +0.109 C 
ENDBRANCH   7  18
BRANCH   1  24
ATOM     23  C   LIG    1       28.804 -30.074  14.467  0.00  0.00    +0.277 C 
ATOM     24  O   LIG    1       28.038 -30.076  13.269  0.00  0.00    -0.491 OA
ENDBRANCH   1  24
BRANCH   2  25
ATOM     25  O   LIG    1       26.887 -27.468  12.920  0.00  0.00    -0.488 OA
ATOM     26  C   LIG    1       27.384 -26.666  13.989  0.00  0.00    +0.277 C 
ENDBRANCH   2  25
BRANCH   3  27
ATOM     27  O   LIG    1       24.152 -27.225  12.875  0.00  0.00    -0.491 OA
ATOM     28  C   LIG    1       23.775 -26.240  13.816  0.00  0.00    +0.277 C 
ENDBRANCH   3  27
BRANCH  13  29
ATOM     29  O   LIG    1       18.322 -27.813  14.515  0.00  0.00    -0.491 OA
ATOM     30  C   LIG    1       18.498 -26.480  14.050  0.00  0.00    +0.277 C 
ENDBRANCH  13  29
TORSDOF 5
ENDMDL
MODEL 6
REMARK VINA RESULT:      -4.1      3.634      5.731
REMARK  Name = *****
REMARK                            x       y       z     vdW  Elec       q    Type
REMARK                         _______ _______ _______ _____ _____    ______ ____
ROOT
ATOM      1  C   LIG    1       25.734 -28.661  14.698  0.00  0.00    +0.166 A 
ATOM      2  C   LIG    1       24.711 -27.850  14.170  0.00  0.00    +0.204 A 
ATOM      3  C   LIG    1       23.682 -28.438  13.371  0.00  0.00    +0.173 A 
ATOM      4  C   LIG    1       23.659 -29.847  13.146  0.00  0.00    +0.031 A 
ATOM      5  C   LIG    1       22.644 -30.571  12.296  0.00  0.00    -0.009 A 
ATOM      6  C   LIG    1       23.016 -31.222  11.024  0.00  0.00    -0.016 A 
ATOM      7  C   LIG    1       24.522 -31.340  10.707  0.00  0.00    +0.104 C 
ATOM      8  C   LIG    1       25.289 -32.201  11.752  0.00  0.00    +0.032 C 
ATOM      9  C   LIG    1       24.864 -32.068  13.222  0.00  0.00    +0.038 C 
ATOM     10  C   LIG    1       22.185 -31.902  10.211  0.00  0.00    +0.060 A 
ATOM     11  C   LIG    1       20.734 -32.200  10.250  0.00  0.00    +0.221 A 
ATOM     12  O   LIG    1       20.341 -33.140   9.561  0.00  0.00    -0.284 OA
ATOM     13  C   LIG    1       19.790 -31.362  11.043  0.00  0.00    +0.167 A 
ATOM     14  C   LIG    1       20.150 -30.744  12.171  0.00  0.00    +0.050 A 
ATOM     15  C   LIG    1       21.417 -30.625  12.851  0.00  0.00    +0.012 A 
ATOM     16  C   LIG    1       24.733 -30.623  13.637  0.00  0.00    -0.032 A 
ATOM     17  C   LIG    1       25.749 -30.028  14.398  0.00  0.00    +0.053 A 
ENDROOT
BRANCH   7  18
ATOM     18  N   LIG    1       25.083 -30.016  10.470  0.00  0.00    -0.309 N 
ATOM     19  H   LIG    1       24.514 -29.207  10.676  0.00  0.00    +0.149 HD
ATOM     20  C   LIG    1       26.199 -29.831   9.672  0.00  0.00    +0.210 C 
ATOM     21  O   LIG    1       26.802 -30.723   9.118  0.00  0.00    -0.276 OA
ATOM     22  C   LIG    1       26.611 -28.382   9.554  0.00  0.00    +0.109 C 
ENDBRANCH   7  18
BRANCH   1  24
ATOM     23  C   LIG    1       28.111 -28.366  14.815  0.00  0.00    +0.277 C 
ATOM     24  O   LIG    1       26.831 -28.267  15.426  0.00  0.00    -0.491 OA
ENDBRANCH   1  24
BRANCH   2  25
ATOM     25  O   LIG    1       24.851 -26.490  14.343  0.00  0.00    -0.488 OA
ATOM     26  C   LIG    1       25.712 -25.786  13.452  0.00  0.00    +0.277 C 
ENDBRANCH   2  25
BRANCH   3  27
ATOM     27  O   LIG    1       22.914 -27.519  12.690  0.00  0.00    -0.491 OA
ATOM     28  C   LIG    1       21.729 -27.000  13.259  0.00  0.00    +0.277 C 
ENDBRANCH   3  27
BRANCH  13  29
ATOM     29  O   LIG    1       18.476 -31.134  10.625  0.00  0.00    -0.491 OA
ATOM     30  C   LIG    1       17.437 -31.495  11.526  0.00  0.00    +0.277 C 
ENDBRANCH  13  29
TORSDOF 5
ENDMDL
MODEL 7
REMARK VINA RESULT:      -4.1      1.869      6.507
REMARK  Name = *****
REMARK                            x       y       z     vdW  Elec       q    Type
REMARK                         _______ _______ _______ _____ _____    ______ ____
ROOT
ATOM      1  C   LIG    1       24.594 -31.974  12.415  0.00  0.00    +0.166 A 
ATOM      2  C   LIG    1       25.759 -31.223  12.165  0.00  0.00    +0.204 A 
ATOM      3  C   LIG    1       25.928 -30.575  10.903  0.00  0.00    +0.173 A 
ATOM      4  C   LIG    1       24.902 -30.645   9.913  0.00  0.00    +0.031 A 
ATOM      5  C   LIG    1       24.984 -30.030   8.537  0.00  0.00    -0.009 A 
ATOM      6  C   LIG    1       25.054 -30.859   7.317  0.00  0.00    -0.016 A 
ATOM      7  C   LIG    1       24.804 -32.373   7.478  0.00  0.00    +0.104 C 
ATOM      8  C   LIG    1       23.377 -32.691   8.009  0.00  0.00    +0.032 C 
ATOM      9  C   LIG    1       22.788 -31.742   9.063  0.00  0.00    +0.038 C 
ATOM     10  C   LIG    1       25.113 -30.400   6.052  0.00  0.00    +0.060 A 
ATOM     11  C   LIG    1       25.160 -29.042   5.458  0.00  0.00    +0.221 A 
ATOM     12  O   LIG    1       24.846 -28.944   4.273  0.00  0.00    -0.284 OA
ATOM     13  C   LIG    1       25.623 -27.865   6.246  0.00  0.00    +0.167 A 
ATOM     14  C   LIG    1       25.445 -27.769   7.566  0.00  0.00    +0.050 A 
ATOM     15  C   LIG    1       24.906 -28.685   8.544  0.00  0.00    +0.012 A 
ATOM     16  C   LIG    1       23.775 -31.457  10.170  0.00  0.00    -0.032 A 
ATOM     17  C   LIG    1       23.635 -32.108  11.404  0.00  0.00    +0.053 A 
ENDROOT
BRANCH   7  18
ATOM     18  N   LIG    1       25.892 -32.976   8.237  0.00  0.00    -0.309 N 
ATOM     19  H   LIG    1       25.820 -33.001   9.245  0.00  0.00    +0.149 HD
ATOM     20  C   LIG    1       27.137 -33.197   7.675  0.00  0.00    +0.210 C 
ATOM     21  O   LIG    1       27.432 -32.926   6.532  0.00  0.00    -0.276 OA
ATOM     22  C   LIG    1       28.119 -33.825   8.636  0.00  0.00    +0.109 C 
ENDBRANCH   7  18
BRANCH   1  24
ATOM     23  C   LIG    1       23.111 -33.507  13.510  0.00  0.00    +0.277 C 
ATOM     24  O   LIG    1       24.290 -32.713  13.533  0.00  0.00    -0.491 OA
ENDBRANCH   1  24
BRANCH   2  25
ATOM     25  O   LIG    1       26.746 -31.281  13.125  0.00  0.00    -0.488 OA
ATOM     26  C   LIG    1       26.688 -30.352  14.204  0.00  0.00    +0.277 C 
ENDBRANCH   2  25
BRANCH   3  27
ATOM     27  O   LIG    1       27.207 -30.117  10.680  0.00  0.00    -0.491 OA
ATOM     28  C   LIG    1       27.573 -28.794  11.015  0.00  0.00    +0.277 C 
ENDBRANCH   3  27
BRANCH  13  29
ATOM     29  O   LIG    1       26.315 -26.806   5.654  0.00  0.00    -0.491 OA
ATOM     30  C   LIG    1       25.576 -25.622   5.378  0.00  0.00    +0.277 C 
ENDBRANCH  13  29
TORSDOF 5
ENDMDL
MODEL 8
REMARK VINA RESULT:      -4.0      2.554      5.221
REMARK  Name = *****
REMARK                            x       y       z     vdW  Elec       q    Type
REMARK                         _______ _______ _______ _____ _____    ______ ____
ROOT
ATOM      1  C   LIG    1       24.851 -32.116   6.549  0.00  0.00    +0.166 A 
ATOM      2  C   LIG    1       24.854 -30.746   6.874  0.00  0.00    +0.204 A 
ATOM      3  C   LIG    1       25.290 -30.325   8.168  0.00  0.00    +0.173 A 
ATOM      4  C   LIG    1       25.768 -31.281   9.114  0.00  0.00    +0.031 A 
ATOM      5  C   LIG    1       26.221 -30.957  10.517  0.00  0.00    -0.009 A 
ATOM      6  C   LIG    1       25.466 -31.409  11.703  0.00  0.00    -0.016 A 
ATOM      7  C   LIG    1       24.327 -32.423  11.469  0.00  0.00    +0.104 C 
ATOM      8  C   LIG    1       24.834 -33.767  10.871  0.00  0.00    +0.032 C 
ATOM      9  C   LIG    1       25.967 -33.696   9.836  0.00  0.00    +0.038 C 
ATOM     10  C   LIG    1       25.803 -31.184  12.988  0.00  0.00    +0.060 A 
ATOM     11  C   LIG    1       26.913 -30.448  13.640  0.00  0.00    +0.221 A 
ATOM     12  O   LIG    1       27.147 -30.725  14.815  0.00  0.00    -0.284 OA
ATOM     13  C   LIG    1       27.668 -29.384  12.920  0.00  0.00    +0.167 A 
ATOM     14  C   LIG    1       27.864 -29.410  11.599  0.00  0.00    +0.050 A 
ATOM     15  C   LIG    1       27.397 -30.301  10.564  0.00  0.00    +0.012 A 
ATOM     16  C   LIG    1       25.693 -32.652   8.781  0.00  0.00    -0.032 A 
ATOM     17  C   LIG    1       25.239 -33.051   7.516  0.00  0.00    +0.053 A 
ENDROOT
BRANCH   7  18
ATOM     18  N   LIG    1       23.245 -31.789  10.727  0.00  0.00    -0.309 N 
ATOM     19  H   LIG    1       23.436 -31.447   9.795  0.00  0.00    +0.149 HD
ATOM     20  C   LIG    1       22.097 -31.338  11.355  0.00  0.00    +0.210 C 
ATOM     21  O   LIG    1       21.885 -31.431  12.545  0.00  0.00    -0.276 OA
ATOM     22  C   LIG    1       21.108 -30.708  10.404  0.00  0.00    +0.109 C 
ENDBRANCH   7  18
BRANCH   1  24
ATOM     23  C   LIG    1       23.112 -33.290   5.388  0.00  0.00    +0.277 C 
ATOM     24  O   LIG    1       24.409 -32.707   5.390  0.00  0.00    -0.491 OA
ENDBRANCH   1  24
BRANCH   2  25
ATOM     25  O   LIG    1       24.288 -29.893   5.951  0.00  0.00    -0.488 OA
ATOM     26  C   LIG    1       25.156 -29.214   5.047  0.00  0.00    +0.277 C 
ENDBRANCH   2  25
BRANCH   3  27
ATOM     27  O   LIG    1       24.985 -29.014   8.459  0.00  0.00    -0.491 OA
ATOM     28  C   LIG    1       25.948 -27.992   8.299  0.00  0.00    +0.277 C 
ENDBRANCH   3  27
BRANCH  13  29
ATOM     29  O   LIG    1       28.180 -28.266  13.583  0.00  0.00    -0.491 OA
ATOM     30  C   LIG    1       27.248 -27.276  14.001  0.00  0.00    +0.277 C 
ENDBRANCH  13  29
TORSDOF 5
ENDMDL
MODEL 9
REMARK VINA RESULT:      -4.0      4.360      7.422
REMARK  Name = *****
REMARK                            x       y       z     vdW  Elec       q    Type
REMARK                         _______ _______ _______ _____ _____    ______ ____
ROOT
ATOM      1  C   LIG    1       23.330 -28.511  14.031  0.00  0.00    +0.166 A 
ATOM      2  C   LIG    1       23.865 -29.656  14.652  0.00  0.00    +0.204 A 
ATOM      3  C   LIG    1       25.266 -29.920  14.565  0.00  0.00    +0.173 A 
ATOM      4  C   LIG    1       26.133 -29.007  13.895  0.00  0.00    +0.031 A 
ATOM      5  C   LIG    1       27.619 -29.198  13.713  0.00  0.00    -0.009 A 
ATOM      6  C   LIG    1       28.216 -29.434  12.383  0.00  0.00    -0.016 A 
ATOM      7  C   LIG    1       27.301 -29.244  11.155  0.00  0.00    +0.104 C 
ATOM      8  C   LIG    1       26.770 -27.788  11.022  0.00  0.00    +0.032 C 
ATOM      9  C   LIG    1       26.409 -27.048  12.319  0.00  0.00    +0.038 C 
ATOM     10  C   LIG    1       29.528 -29.598  12.123  0.00  0.00    +0.060 A 
ATOM     11  C   LIG    1       30.741 -29.638  12.974  0.00  0.00    +0.221 A 
ATOM     12  O   LIG    1       31.819 -29.442  12.414  0.00  0.00    -0.284 OA
ATOM     13  C   LIG    1       30.661 -29.958  14.428  0.00  0.00    +0.167 A 
ATOM     14  C   LIG    1       29.601 -29.642  15.176  0.00  0.00    +0.050 A 
ATOM     15  C   LIG    1       28.324 -29.052  14.852  0.00  0.00    +0.012 A 
ATOM     16  C   LIG    1       25.558 -27.901  13.229  0.00  0.00    -0.032 A 
ATOM     17  C   LIG    1       24.177 -27.668  13.302  0.00  0.00    +0.053 A 
ENDROOT
BRANCH   7  18
ATOM     18  N   LIG    1       26.273 -30.277  11.140  0.00  0.00    -0.309 N 
ATOM     19  H   LIG    1       25.998 -30.696  12.018  0.00  0.00    +0.149 HD
ATOM     20  C   LIG    1       25.918 -30.934   9.975  0.00  0.00    +0.210 C 
ATOM     21  O   LIG    1       26.406 -30.715   8.888  0.00  0.00    -0.276 OA
ATOM     22  C   LIG    1       24.838 -31.970  10.183  0.00  0.00    +0.109 C 
ENDBRANCH   7  18
BRANCH   1  24
ATOM     23  C   LIG    1       21.622 -27.280  12.883  0.00  0.00    +0.277 C 
ATOM     24  O   LIG    1       22.012 -28.131  13.953  0.00  0.00    -0.491 OA
ENDBRANCH   1  24
BRANCH   2  25
ATOM     25  O   LIG    1       22.959 -30.542  15.195  0.00  0.00    -0.488 OA
ATOM     26  C   LIG    1       22.263 -31.416  14.309  0.00  0.00    +0.277 C 
ENDBRANCH   2  25
BRANCH   3  27
ATOM     27  O   LIG    1       25.618 -31.191  14.962  0.00  0.00    -0.491 OA
ATOM     28  C   LIG    1       25.774 -32.230  14.017  0.00  0.00    +0.277 C 
ENDBRANCH   3  27
BRANCH  13  29
ATOM     29  O   LIG    1       31.678 -30.653  15.088  0.00  0.00    -0.491 OA
ATOM     30  C   LIG    1       32.815 -29.904  15.498  0.00  0.00    +0.277 C 
ENDBRANCH  13  29
TORSDOF 5
ENDMDL
