MODEL 1
REMARK VINA RESULT:      -4.7      0.000      0.000
REMARK  Name = *****
REMARK                            x       y       z     vdW  Elec       q    Type
REMARK                         _______ _______ _______ _____ _____    ______ ____
ROOT
ATOM      1  CA  VAL A  1       26.067 -14.054   4.201  0.00  0.00    +0.163 C 
ENDROOT
BRANCH   1   3
ATOM      2  CG1 VAL A  1       24.155 -12.362   4.463  0.00  0.00    +0.009 C 
ATOM      3  CB  VAL A  1       24.597 -13.701   3.861  0.00  0.00    +0.011 C 
ATOM      4  CG2 VAL A  1       23.624 -14.798   4.319  0.00  0.00    +0.009 C 
ENDBRANCH   1   3
BRANCH   1   5
ATOM      5  N   VAL A  1       26.566 -13.244   5.332  0.00  0.00    -0.318 NA
ATOM      6  H1  VAL A  1       26.203 -12.294   5.343  0.00  0.00    +0.119 HD
ATOM      7  H2  VAL A  1       26.515 -13.724   6.225  0.00  0.00    +0.119 HD
ENDBRANCH   1   5
BRANCH   1   8
ATOM      8  C   VAL A  1       26.988 -13.924   2.965  0.00  0.00    +0.322 C 
ATOM      9  O   VAL A  1       26.686 -14.288   1.836  0.00  0.00    -0.249 OA
BRANCH   8  10
ATOM     10  OXT VAL A  1       28.189 -13.366   3.235  0.00  0.00    -0.479 OA
ATOM     11  HXT VAL A  1       28.163 -12.406   3.074  0.00  0.00    +0.295 HD
ENDBRANCH   8  10
ENDBRANCH   1   8
TORSDOF 4
ENDMDL
MODEL 2
REMARK VINA RESULT:      -4.4      6.507      7.230
REMARK  Name = *****
REMARK                            x       y       z     vdW  Elec       q    Type
REMARK                         _______ _______ _______ _____ _____    ______ ____
ROOT
ATOM      1  CA  VAL A  1       24.272 -20.294   4.238  0.00  0.00    +0.163 C 
ENDROOT
BRANCH   1   3
ATOM      2  CG1 VAL A  1       21.959 -21.000   5.098  0.00  0.00    +0.009 C 
ATOM      3  CB  VAL A  1       23.007 -19.883   5.032  0.00  0.00    +0.011 C 
ATOM      4  CG2 VAL A  1       22.351 -18.620   4.453  0.00  0.00    +0.009 C 
ENDBRANCH   1   3
BRANCH   1   5
ATOM      5  N   VAL A  1       24.067 -21.572   3.525  0.00  0.00    -0.318 NA
ATOM      6  H1  VAL A  1       23.102 -21.891   3.532  0.00  0.00    +0.119 HD
ATOM      7  H2  VAL A  1       24.512 -21.601   2.612  0.00  0.00    +0.119 HD
ENDBRANCH   1   5
BRANCH   1   8
ATOM      8  C   VAL A  1       25.524 -20.348   5.143  0.00  0.00    +0.322 C 
ATOM      9  O   VAL A  1       25.496 -20.547   6.351  0.00  0.00    -0.249 OA
BRANCH   8  10
ATOM     10  OXT VAL A  1       26.686 -20.149   4.482  0.00  0.00    -0.479 OA
ATOM     11  HXT VAL A  1       26.525 -20.066   3.526  0.00  0.00    +0.295 HD
ENDBRANCH   8  10
ENDBRANCH   1   8
TORSDOF 4
ENDMDL
MODEL 3
REMARK VINA RESULT:      -4.4      1.856      2.342
REMARK  Name = *****
REMARK                            x       y       z     vdW  Elec       q    Type
REMARK                         _______ _______ _______ _____ _____    ______ ____
ROOT
ATOM      1  CA  VAL A  1       26.477 -13.249   2.965  0.00  0.00    +0.163 C 
ENDROOT
BRANCH   1   3
ATOM      2  CG1 VAL A  1       24.490 -14.576   3.905  0.00  0.00    +0.009 C 
ATOM      3  CB  VAL A  1       25.107 -13.189   3.688  0.00  0.00    +0.011 C 
ATOM      4  CG2 VAL A  1       24.099 -12.308   2.934  0.00  0.00    +0.009 C 
ENDBRANCH   1   3
BRANCH   1   5
ATOM      5  N   VAL A  1       26.541 -14.392   2.032  0.00  0.00    -0.318 NA
ATOM      6  H1  VAL A  1       25.884 -15.135   2.252  0.00  0.00    +0.119 HD
ATOM      7  H2  VAL A  1       26.551 -14.116   1.054  0.00  0.00    +0.119 HD
ENDBRANCH   1   5
BRANCH   1   8
ATOM      8  C   VAL A  1       27.653 -13.272   3.968  0.00  0.00    +0.322 C 
ATOM      9  O   VAL A  1       27.526 -13.379   5.181  0.00  0.00    -0.249 OA
BRANCH   8  10
ATOM     10  OXT VAL A  1       28.868 -13.157   3.388  0.00  0.00    -0.479 OA
ATOM     11  HXT VAL A  1       28.807 -12.637   2.568  0.00  0.00    +0.295 HD
ENDBRANCH   8  10
ENDBRANCH   1   8
TORSDOF 4
ENDMDL
MODEL 4
REMARK VINA RESULT:      -4.4      5.906      6.639
REMARK  Name = *****
REMARK                            x       y       z     vdW  Elec       q    Type
REMARK                         _______ _______ _______ _____ _____    ______ ____
ROOT
ATOM      1  CA  VAL A  1       24.015 -20.101   3.702  0.00  0.00    +0.163 C 
ENDROOT
BRANCH   1   3
ATOM      2  CG1 VAL A  1       22.322 -20.816   5.494  0.00  0.00    +0.009 C 
ATOM      3  CB  VAL A  1       23.107 -19.653   4.875  0.00  0.00    +0.011 C 
ATOM      4  CG2 VAL A  1       22.119 -18.557   4.448  0.00  0.00    +0.009 C 
ENDBRANCH   1   3
BRANCH   1   5
ATOM      5  N   VAL A  1       24.164 -21.571   3.669  0.00  0.00    -0.318 NA
ATOM      6  H1  VAL A  1       24.124 -21.963   2.732  0.00  0.00    +0.119 HD
ATOM      7  H2  VAL A  1       24.937 -21.911   4.234  0.00  0.00    +0.119 HD
ENDBRANCH   1   5
BRANCH   1   8
ATOM      8  C   VAL A  1       25.391 -19.395   3.742  0.00  0.00    +0.322 C 
ATOM      9  O   VAL A  1       25.596 -18.256   3.344  0.00  0.00    -0.249 OA
BRANCH   8  10
ATOM     10  OXT VAL A  1       26.380 -20.157   4.260  0.00  0.00    -0.479 OA
ATOM     11  HXT VAL A  1       26.009 -20.923   4.732  0.00  0.00    +0.295 HD
ENDBRANCH   8  10
ENDBRANCH   1   8
TORSDOF 4
ENDMDL
MODEL 5
REMARK VINA RESULT:      -4.4      1.703      2.136
REMARK  Name = *****
REMARK                            x       y       z     vdW  Elec       q    Type
REMARK                         _______ _______ _______ _____ _____    ______ ____
ROOT
ATOM      1  CA  VAL A  1       25.281 -12.674   2.881  0.00  0.00    +0.163 C 
ENDROOT
BRANCH   1   3
ATOM      2  CG1 VAL A  1       23.844 -14.319   4.231  0.00  0.00    +0.009 C 
ATOM      3  CB  VAL A  1       24.695 -13.043   4.267  0.00  0.00    +0.011 C 
ATOM      4  CG2 VAL A  1       23.853 -11.901   4.856  0.00  0.00    +0.009 C 
ENDBRANCH   1   3
BRANCH   1   5
ATOM      5  N   VAL A  1       24.273 -12.834   1.812  0.00  0.00    -0.318 NA
ATOM      6  H1  VAL A  1       23.493 -12.187   1.889  0.00  0.00    +0.119 HD
ATOM      7  H2  VAL A  1       24.678 -12.896   0.882  0.00  0.00    +0.119 HD
ENDBRANCH   1   5
BRANCH   1   8
ATOM      8  C   VAL A  1       26.565 -13.478   2.570  0.00  0.00    +0.322 C 
ATOM      9  O   VAL A  1       26.586 -14.540   1.962  0.00  0.00    -0.249 OA
BRANCH   8  10
ATOM     10  OXT VAL A  1       27.695 -12.905   3.040  0.00  0.00    -0.479 OA
ATOM     11  HXT VAL A  1       27.493 -12.059   3.475  0.00  0.00    +0.295 HD
ENDBRANCH   8  10
ENDBRANCH   1   8
TORSDOF 4
ENDMDL
MODEL 6
REMARK VINA RESULT:      -4.3      1.808      2.091
REMARK  Name = *****
REMARK                            x       y       z     vdW  Elec       q    Type
REMARK                         _______ _______ _______ _____ _____    ______ ____
ROOT
ATOM      1  CA  VAL A  1       26.238 -13.444   3.105  0.00  0.00    +0.163 C 
ENDROOT
BRANCH   1   3
ATOM      2  CG1 VAL A  1       24.091 -12.321   3.953  0.00  0.00    +0.009 C 
ATOM      3  CB  VAL A  1       24.702 -13.557   3.282  0.00  0.00    +0.011 C 
ATOM      4  CG2 VAL A  1       24.308 -14.806   4.085  0.00  0.00    +0.009 C 
ENDBRANCH   1   3
BRANCH   1   5
ATOM      5  N   VAL A  1       26.685 -14.105   1.862  0.00  0.00    -0.318 NA
ATOM      6  H1  VAL A  1       27.693 -14.223   1.803  0.00  0.00    +0.119 HD
ATOM      7  H2  VAL A  1       26.151 -14.939   1.633  0.00  0.00    +0.119 HD
ENDBRANCH   1   5
BRANCH   1   8
ATOM      8  C   VAL A  1       26.997 -13.988   4.338  0.00  0.00    +0.322 C 
ATOM      9  O   VAL A  1       26.921 -13.512   5.463  0.00  0.00    -0.249 OA
BRANCH   8  10
ATOM     10  OXT VAL A  1       27.779 -15.057   4.069  0.00  0.00    -0.479 OA
ATOM     11  HXT VAL A  1       27.249 -15.873   4.054  0.00  0.00    +0.295 HD
ENDBRANCH   8  10
ENDBRANCH   1   8
TORSDOF 4
ENDMDL
MODEL 7
REMARK VINA RESULT:      -4.2      6.356      6.942
REMARK  Name = *****
REMARK                            x       y       z     vdW  Elec       q    Type
REMARK                         _______ _______ _______ _____ _____    ______ ____
ROOT
ATOM      1  CA  VAL A  1       24.791 -20.797   4.885  0.00  0.00    +0.163 C 
ENDROOT
BRANCH   1   3
ATOM      2  CG1 VAL A  1       23.447 -21.011   7.062  0.00  0.00    +0.009 C 
ATOM      3  CB  VAL A  1       23.586 -20.288   5.716  0.00  0.00    +0.011 C 
ATOM      4  CG2 VAL A  1       22.263 -20.416   4.945  0.00  0.00    +0.009 C 
ENDBRANCH   1   3
BRANCH   1   5
ATOM      5  N   VAL A  1       25.731 -21.572   5.721  0.00  0.00    -0.318 NA
ATOM      6  H1  VAL A  1       25.294 -22.001   6.532  0.00  0.00    +0.119 HD
ATOM      7  H2  VAL A  1       26.328 -22.195   5.186  0.00  0.00    +0.119 HD
ENDBRANCH   1   5
BRANCH   1   8
ATOM      8  C   VAL A  1       25.510 -19.640   4.153  0.00  0.00    +0.322 C 
ATOM      9  O   VAL A  1       24.967 -18.877   3.364  0.00  0.00    -0.249 OA
BRANCH   8  10
ATOM     10  OXT VAL A  1       26.823 -19.535   4.455  0.00  0.00    -0.479 OA
ATOM     11  HXT VAL A  1       27.259 -20.402   4.387  0.00  0.00    +0.295 HD
ENDBRANCH   8  10
ENDBRANCH   1   8
TORSDOF 4
ENDMDL
MODEL 8
REMARK VINA RESULT:      -4.0      1.845      2.033
REMARK  Name = *****
REMARK                            x       y       z     vdW  Elec       q    Type
REMARK                         _______ _______ _______ _____ _____    ______ ____
ROOT
ATOM      1  CA  VAL A  1       26.401 -13.864   3.597  0.00  0.00    +0.163 C 
ENDROOT
BRANCH   1   3
ATOM      2  CG1 VAL A  1       24.754 -12.825   1.924  0.00  0.00    +0.009 C 
ATOM      3  CB  VAL A  1       24.917 -13.637   3.215  0.00  0.00    +0.011 C 
ATOM      4  CG2 VAL A  1       24.135 -12.942   4.340  0.00  0.00    +0.009 C 
ENDBRANCH   1   3
BRANCH   1   5
ATOM      5  N   VAL A  1       27.303 -13.049   2.756  0.00  0.00    -0.318 NA
ATOM      6  H1  VAL A  1       27.798 -13.587   2.050  0.00  0.00    +0.119 HD
ATOM      7  H2  VAL A  1       26.871 -12.198   2.409  0.00  0.00    +0.119 HD
ENDBRANCH   1   5
BRANCH   1   8
ATOM      8  C   VAL A  1       26.782 -15.362   3.545  0.00  0.00    +0.322 C 
ATOM      9  O   VAL A  1       26.074 -16.240   3.070  0.00  0.00    -0.249 OA
BRANCH   8  10
ATOM     10  OXT VAL A  1       27.991 -15.637   4.084  0.00  0.00    -0.479 OA
ATOM     11  HXT VAL A  1       27.898 -16.246   4.836  0.00  0.00    +0.295 HD
ENDBRANCH   8  10
ENDBRANCH   1   8
TORSDOF 4
ENDMDL
MODEL 9
REMARK VINA RESULT:      -4.0      2.310      3.306
REMARK  Name = *****
REMARK                            x       y       z     vdW  Elec       q    Type
REMARK                         _______ _______ _______ _____ _____    ______ ____
ROOT
ATOM      1  CA  VAL A  1       26.241 -14.599   3.297  0.00  0.00    +0.163 C 
ENDROOT
BRANCH   1   3
ATOM      2  CG1 VAL A  1       26.758 -13.493   5.556  0.00  0.00    +0.009 C 
ATOM      3  CB  VAL A  1       27.334 -14.191   4.317  0.00  0.00    +0.011 C 
ATOM      4  CG2 VAL A  1       28.398 -13.282   3.684  0.00  0.00    +0.009 C 
ENDBRANCH   1   3
BRANCH   1   5
ATOM      5  N   VAL A  1       26.648 -14.272   1.915  0.00  0.00    -0.318 NA
ATOM      6  H1  VAL A  1       26.156 -13.473   1.524  0.00  0.00    +0.119 HD
ATOM      7  H2  VAL A  1       27.655 -14.249   1.785  0.00  0.00    +0.119 HD
ENDBRANCH   1   5
BRANCH   1   8
ATOM      8  C   VAL A  1       24.871 -13.973   3.645  0.00  0.00    +0.322 C 
ATOM      9  O   VAL A  1       23.998 -14.535   4.294  0.00  0.00    -0.249 OA
BRANCH   8  10
ATOM     10  OXT VAL A  1       24.703 -12.723   3.161  0.00  0.00    -0.479 OA
ATOM     11  HXT VAL A  1       24.791 -12.066   3.873  0.00  0.00    +0.295 HD
ENDBRANCH   8  10
ENDBRANCH   1   8
TORSDOF 4
ENDMDL
