MODEL 1
REMARK VINA RESULT:      -6.3      0.000      0.000
REMARK  Name = *****
REMARK                            x       y       z     vdW  Elec       q    Type
REMARK                         _______ _______ _______ _____ _____    ______ ____
ROOT
ATOM      1  C   LIG    1       25.255 -30.341   9.639  0.00  0.00    +0.040 C 
ATOM      2  C   LIG    1       24.610 -30.038  10.802  0.00  0.00    -0.016 C 
ATOM      3  C   LIG    1       25.292 -29.660  12.106  0.00  0.00    +0.204 C 
ATOM      4  C   LIG    1       24.400 -30.360  13.133  0.00  0.00    +0.057 C 
ATOM      5  C   LIG    1       22.942 -30.166  12.646  0.00  0.00    -0.016 C 
ATOM      6  C   LIG    1       22.415 -28.852  13.278  0.00  0.00    +0.012 C 
ATOM      7  C   LIG    1       21.991 -31.406  12.984  0.00  0.00    -0.020 C 
ATOM      8  C   LIG    1       22.660 -32.745  12.475  0.00  0.00    +0.012 C 
ATOM      9  C   LIG    1       20.567 -31.274  12.273  0.00  0.00    +0.030 C 
ATOM     10  C   LIG    1       19.304 -30.875  13.193  0.00  0.00    -0.023 C 
ATOM     11  C   LIG    1       19.223 -29.348  13.460  0.00  0.00    +0.012 C 
ATOM     12  C   LIG    1       19.342 -31.598  14.598  0.00  0.00    +0.001 C 
ATOM     13  C   LIG    1       20.582 -32.471  14.813  0.00  0.00    +0.005 C 
ATOM     14  C   LIG    1       18.039 -32.323  15.036  0.00  0.00    +0.018 C 
ATOM     15  C   LIG    1       17.889 -33.760  14.530  0.00  0.00    +0.010 C 
ATOM     16  C   LIG    1       16.804 -31.478  14.707  0.00  0.00    +0.118 C 
ATOM     17  C   LIG    1       16.692 -31.108  13.229  0.00  0.00    +0.032 C 
ATOM     18  C   LIG    1       17.995 -31.235  12.430  0.00  0.00    +0.010 C 
ATOM     19  C   LIG    1       20.650 -30.499  10.924  0.00  0.00    +0.119 C 
ATOM     20  C   LIG    1       22.022 -30.599  10.266  0.00  0.00    +0.040 C 
ATOM     21  C   LIG    1       21.834 -31.656  14.511  0.00  0.00    +0.008 C 
ATOM     22  C   LIG    1       23.103 -29.905  11.096  0.00  0.00    +0.028 C 
ENDROOT
BRANCH  16  23
ATOM     23  O   LIG    1       16.856 -30.287  15.500  0.00  0.00    -0.392 OA
ATOM     24  H   LIG    1       16.782 -30.550  16.433  0.00  0.00    +0.210 HD
ENDBRANCH  16  23
BRANCH  19  25
ATOM     25  O   LIG    1       19.694 -31.035  10.006  0.00  0.00    -0.392 OA
ATOM     26  H   LIG    1       18.934 -31.351  10.526  0.00  0.00    +0.210 HD
ENDBRANCH  19  25
BRANCH   1  27
ATOM     27  C   LIG    1       26.745 -30.390   9.506  0.00  0.00    +0.333 C 
ATOM     28  O   LIG    1       27.425 -31.409   9.430  0.00  0.00    -0.245 OA
BRANCH  27  29
ATOM     29  O   LIG    1       27.331 -29.187   9.388  0.00  0.00    -0.477 OA
ATOM     30  H   LIG    1       26.782 -28.707   8.733  0.00  0.00    +0.295 HD
ENDBRANCH  27  29
ENDBRANCH   1  27
BRANCH   1  31
ATOM     31  C   LIG    1       24.569 -30.646   8.317  0.00  0.00    +0.046 C 
BRANCH  31  32
ATOM     32  C   LIG    1       25.107 -29.836   7.115  0.00  0.00    +0.032 C 
BRANCH  32  35
ATOM     33  C   LIG    1       24.243 -26.113   6.145  0.00  0.00    +0.038 C 
ATOM     34  C   LIG    1       24.913 -27.465   6.109  0.00  0.00    -0.080 C 
ATOM     35  C   LIG    1       24.598 -28.416   7.013  0.00  0.00    -0.028 C 
ATOM     36  C   LIG    1       25.928 -27.617   5.012  0.00  0.00    +0.038 C 
ENDBRANCH  32  35
ENDBRANCH  31  32
ENDBRANCH   1  31
BRANCH   3  37
ATOM     37  O   LIG    1       25.197 -28.227  12.156  0.00  0.00    -0.457 OA
BRANCH  37  38
ATOM     38  C   LIG    1       25.977 -27.565  13.036  0.00  0.00    +0.304 C 
ATOM     39  O   LIG    1       27.114 -27.874  13.339  0.00  0.00    -0.251 OA
ATOM     40  C   LIG    1       25.210 -26.416  13.619  0.00  0.00    +0.136 C 
ENDBRANCH  37  38
ENDBRANCH   3  37
TORSDOF 9
ENDMDL
MODEL 2
REMARK VINA RESULT:      -5.7      3.151      5.935
REMARK  Name = *****
REMARK                            x       y       z     vdW  Elec       q    Type
REMARK                         _______ _______ _______ _____ _____    ______ ____
ROOT
ATOM      1  C   LIG    1       25.231 -28.440   6.561  0.00  0.00    +0.040 C 
ATOM      2  C   LIG    1       25.194 -29.627   7.233  0.00  0.00    -0.016 C 
ATOM      3  C   LIG    1       24.855 -30.972   6.612  0.00  0.00    +0.204 C 
ATOM      4  C   LIG    1       24.039 -31.627   7.727  0.00  0.00    +0.057 C 
ATOM      5  C   LIG    1       24.746 -31.261   9.057  0.00  0.00    -0.016 C 
ATOM      6  C   LIG    1       25.789 -32.372   9.346  0.00  0.00    +0.012 C 
ATOM      7  C   LIG    1       23.735 -31.069  10.280  0.00  0.00    -0.020 C 
ATOM      8  C   LIG    1       22.589 -30.060   9.871  0.00  0.00    +0.012 C 
ATOM      9  C   LIG    1       24.468 -30.473  11.568  0.00  0.00    +0.030 C 
ATOM     10  C   LIG    1       24.758 -31.476  12.797  0.00  0.00    -0.023 C 
ATOM     11  C   LIG    1       26.028 -32.339  12.572  0.00  0.00    +0.012 C 
ATOM     12  C   LIG    1       23.553 -32.467  13.049  0.00  0.00    +0.001 C 
ATOM     13  C   LIG    1       22.401 -32.310  12.052  0.00  0.00    +0.005 C 
ATOM     14  C   LIG    1       23.044 -32.575  14.514  0.00  0.00    +0.018 C 
ATOM     15  C   LIG    1       22.001 -31.530  14.921  0.00  0.00    +0.010 C 
ATOM     16  C   LIG    1       24.215 -32.617  15.500  0.00  0.00    +0.118 C 
ATOM     17  C   LIG    1       25.152 -31.416  15.389  0.00  0.00    +0.032 C 
ATOM     18  C   LIG    1       25.047 -30.633  14.075  0.00  0.00    +0.010 C 
ATOM     19  C   LIG    1       25.669 -29.554  11.192  0.00  0.00    +0.119 C 
ATOM     20  C   LIG    1       25.516 -28.910   9.818  0.00  0.00    +0.040 C 
ATOM     21  C   LIG    1       22.949 -32.363  10.631  0.00  0.00    +0.008 C 
ATOM     22  C   LIG    1       25.551 -29.950   8.697  0.00  0.00    +0.028 C 
ENDROOT
BRANCH  16  23
ATOM     23  O   LIG    1       24.948 -33.825  15.268  0.00  0.00    -0.392 OA
ATOM     24  H   LIG    1       25.719 -33.602  14.719  0.00  0.00    +0.210 HD
ENDBRANCH  16  23
BRANCH  19  25
ATOM     25  O   LIG    1       25.780 -28.497  12.150  0.00  0.00    -0.392 OA
ATOM     26  H   LIG    1       26.551 -27.957  11.901  0.00  0.00    +0.210 HD
ENDBRANCH  19  25
BRANCH   1  27
ATOM     27  C   LIG    1       24.889 -28.298   5.111  0.00  0.00    +0.333 C 
ATOM     28  O   LIG    1       25.655 -27.926   4.227  0.00  0.00    -0.245 OA
BRANCH  27  29
ATOM     29  O   LIG    1       23.646 -28.696   4.792  0.00  0.00    -0.477 OA
ATOM     30  H   LIG    1       23.750 -29.172   3.941  0.00  0.00    +0.295 HD
ENDBRANCH  27  29
ENDBRANCH   1  27
BRANCH   1  31
ATOM     31  C   LIG    1       25.642 -27.109   7.167  0.00  0.00    +0.046 C 
BRANCH  31  32
ATOM     32  C   LIG    1       24.968 -25.876   6.524  0.00  0.00    +0.032 C 
BRANCH  32  35
ATOM     33  C   LIG    1       25.843 -22.134   7.411  0.00  0.00    +0.038 C 
ATOM     34  C   LIG    1       25.024 -23.344   7.032  0.00  0.00    -0.080 C 
ATOM     35  C   LIG    1       25.609 -24.545   6.848  0.00  0.00    -0.028 C 
ATOM     36  C   LIG    1       23.555 -23.065   6.879  0.00  0.00    +0.038 C 
ENDBRANCH  32  35
ENDBRANCH  31  32
ENDBRANCH   1  31
BRANCH   3  37
ATOM     37  O   LIG    1       26.131 -31.598   6.401  0.00  0.00    -0.457 OA
BRANCH  37  38
ATOM     38  C   LIG    1       26.280 -32.397   5.323  0.00  0.00    +0.304 C 
ATOM     39  O   LIG    1       25.611 -32.342   4.309  0.00  0.00    -0.251 OA
ATOM     40  C   LIG    1       27.366 -33.397   5.588  0.00  0.00    +0.136 C 
ENDBRANCH  37  38
ENDBRANCH   3  37
TORSDOF 9
ENDMDL
MODEL 3
REMARK VINA RESULT:      -5.0      1.547      2.009
REMARK  Name = *****
REMARK                            x       y       z     vdW  Elec       q    Type
REMARK                         _______ _______ _______ _____ _____    ______ ____
ROOT
ATOM      1  C   LIG    1       25.200 -29.560  10.667  0.00  0.00    +0.040 C 
ATOM      2  C   LIG    1       24.413 -29.405  11.770  0.00  0.00    -0.016 C 
ATOM      3  C   LIG    1       24.922 -29.119  13.174  0.00  0.00    +0.204 C 
ATOM      4  C   LIG    1       23.970 -29.962  14.023  0.00  0.00    +0.057 C 
ATOM      5  C   LIG    1       22.564 -29.801  13.390  0.00  0.00    -0.016 C 
ATOM      6  C   LIG    1       21.888 -28.584  14.073  0.00  0.00    +0.012 C 
ATOM      7  C   LIG    1       21.663 -31.117  13.504  0.00  0.00    -0.020 C 
ATOM      8  C   LIG    1       22.468 -32.362  12.957  0.00  0.00    +0.012 C 
ATOM      9  C   LIG    1       20.321 -30.993  12.647  0.00  0.00    +0.030 C 
ATOM     10  C   LIG    1       18.941 -30.752  13.447  0.00  0.00    -0.023 C 
ATOM     11  C   LIG    1       18.733 -29.265  13.840  0.00  0.00    +0.012 C 
ATOM     12  C   LIG    1       18.871 -31.605  14.777  0.00  0.00    +0.001 C 
ATOM     13  C   LIG    1       20.133 -32.427  15.054  0.00  0.00    +0.005 C 
ATOM     14  C   LIG    1       17.576 -32.437  14.994  0.00  0.00    +0.018 C 
ATOM     15  C   LIG    1       17.576 -33.825  14.348  0.00  0.00    +0.010 C 
ATOM     16  C   LIG    1       16.334 -31.631  14.602  0.00  0.00    +0.118 C 
ATOM     17  C   LIG    1       16.362 -31.127  13.160  0.00  0.00    +0.032 C 
ATOM     18  C   LIG    1       17.749 -31.107  12.509  0.00  0.00    +0.010 C 
ATOM     19  C   LIG    1       20.501 -30.088  11.392  0.00  0.00    +0.119 C 
ATOM     20  C   LIG    1       21.941 -30.050  10.891  0.00  0.00    +0.040 C 
ATOM     21  C   LIG    1       21.356 -31.521  14.973  0.00  0.00    +0.008 C 
ATOM     22  C   LIG    1       22.877 -29.383  11.899  0.00  0.00    +0.028 C 
ENDROOT
BRANCH  16  23
ATOM     23  O   LIG    1       16.222 -30.521  15.500  0.00  0.00    -0.392 OA
ATOM     24  H   LIG    1       15.380 -30.073  15.312  0.00  0.00    +0.210 HD
ENDBRANCH  16  23
BRANCH  19  25
ATOM     25  O   LIG    1       19.689 -30.583  10.325  0.00  0.00    -0.392 OA
ATOM     26  H   LIG    1       18.853 -30.894  10.715  0.00  0.00    +0.210 HD
ENDBRANCH  19  25
BRANCH   1  27
ATOM     27  C   LIG    1       26.696 -29.516  10.703  0.00  0.00    +0.333 C 
ATOM     28  O   LIG    1       27.433 -30.447  11.012  0.00  0.00    -0.245 OA
BRANCH  27  29
ATOM     29  O   LIG    1       27.227 -28.357  10.280  0.00  0.00    -0.477 OA
ATOM     30  H   LIG    1       28.052 -28.617   9.818  0.00  0.00    +0.295 HD
ENDBRANCH  27  29
ENDBRANCH   1  27
BRANCH   1  31
ATOM     31  C   LIG    1       24.685 -29.772   9.253  0.00  0.00    +0.046 C 
BRANCH  31  32
ATOM     32  C   LIG    1       25.673 -30.502   8.314  0.00  0.00    +0.032 C 
BRANCH  32  35
ATOM     33  C   LIG    1       23.555 -32.733   5.847  0.00  0.00    +0.038 C 
ATOM     34  C   LIG    1       24.104 -32.186   7.142  0.00  0.00    -0.080 C 
ATOM     35  C   LIG    1       25.041 -31.215   7.140  0.00  0.00    -0.028 C 
ATOM     36  C   LIG    1       23.523 -32.824   8.372  0.00  0.00    +0.038 C 
ENDBRANCH  32  35
ENDBRANCH  31  32
ENDBRANCH   1  31
BRANCH   3  37
ATOM     37  O   LIG    1       24.730 -27.705  13.340  0.00  0.00    -0.457 OA
BRANCH  37  38
ATOM     38  C   LIG    1       25.821 -26.910  13.358  0.00  0.00    +0.304 C 
ATOM     39  O   LIG    1       26.951 -27.261  13.078  0.00  0.00    -0.251 OA
ATOM     40  C   LIG    1       25.433 -25.538  13.823  0.00  0.00    +0.136 C 
ENDBRANCH  37  38
ENDBRANCH   3  37
TORSDOF 9
ENDMDL
MODEL 4
REMARK VINA RESULT:      -4.0      3.063      7.130
REMARK  Name = *****
REMARK                            x       y       z     vdW  Elec       q    Type
REMARK                         _______ _______ _______ _____ _____    ______ ____
ROOT
ATOM      1  C   LIG    1       23.761 -32.770   7.139  0.00  0.00    +0.040 C 
ATOM      2  C   LIG    1       24.268 -31.606   7.638  0.00  0.00    -0.016 C 
ATOM      3  C   LIG    1       24.936 -30.519   6.812  0.00  0.00    +0.204 C 
ATOM      4  C   LIG    1       26.062 -30.072   7.746  0.00  0.00    +0.057 C 
ATOM      5  C   LIG    1       25.459 -30.049   9.173  0.00  0.00    -0.016 C 
ATOM      6  C   LIG    1       24.879 -28.631   9.407  0.00  0.00    +0.012 C 
ATOM      7  C   LIG    1       26.509 -30.452  10.310  0.00  0.00    -0.020 C 
ATOM      8  C   LIG    1       27.203 -31.820   9.934  0.00  0.00    +0.012 C 
ATOM      9  C   LIG    1       25.803 -30.640  11.730  0.00  0.00    +0.030 C 
ATOM     10  C   LIG    1       26.019 -29.485  12.834  0.00  0.00    -0.023 C 
ATOM     11  C   LIG    1       25.077 -28.271  12.616  0.00  0.00    +0.012 C 
ATOM     12  C   LIG    1       27.502 -28.936  12.835  0.00  0.00    +0.001 C 
ATOM     13  C   LIG    1       28.397 -29.567  11.764  0.00  0.00    +0.005 C 
ATOM     14  C   LIG    1       28.210 -28.865  14.216  0.00  0.00    +0.018 C 
ATOM     15  C   LIG    1       28.906 -30.155  14.660  0.00  0.00    +0.010 C 
ATOM     16  C   LIG    1       27.259 -28.338  15.295  0.00  0.00    +0.118 C 
ATOM     17  C   LIG    1       25.979 -29.160  15.436  0.00  0.00    +0.032 C 
ATOM     18  C   LIG    1       25.649 -30.055  14.236  0.00  0.00    +0.010 C 
ATOM     19  C   LIG    1       24.331 -31.134  11.598  0.00  0.00    +0.119 C 
ATOM     20  C   LIG    1       24.082 -31.920  10.315  0.00  0.00    +0.040 C 
ATOM     21  C   LIG    1       27.710 -29.469  10.407  0.00  0.00    +0.008 C 
ATOM     22  C   LIG    1       24.234 -31.042   9.072  0.00  0.00    +0.028 C 
ENDROOT
BRANCH  16  23
ATOM     23  O   LIG    1       26.930 -26.982  14.972  0.00  0.00    -0.392 OA
ATOM     24  H   LIG    1       26.136 -26.742  15.480  0.00  0.00    +0.210 HD
ENDBRANCH  16  23
BRANCH  19  25
ATOM     25  O   LIG    1       24.015 -31.994  12.696  0.00  0.00    -0.392 OA
ATOM     26  H   LIG    1       24.308 -31.548  13.510  0.00  0.00    +0.210 HD
ENDBRANCH  19  25
BRANCH   1  27
ATOM     27  C   LIG    1       23.841 -33.157   5.696  0.00  0.00    +0.333 C 
ATOM     28  O   LIG    1       24.815 -33.657   5.140  0.00  0.00    -0.245 OA
BRANCH  27  29
ATOM     29  O   LIG    1       22.696 -32.992   5.013  0.00  0.00    -0.477 OA
ATOM     30  H   LIG    1       22.951 -32.466   4.226  0.00  0.00    +0.295 HD
ENDBRANCH  27  29
ENDBRANCH   1  27
BRANCH   1  31
ATOM     31  C   LIG    1       23.028 -33.821   7.956  0.00  0.00    +0.046 C 
BRANCH  31  32
ATOM     32  C   LIG    1       21.521 -33.540   8.157  0.00  0.00    +0.032 C 
BRANCH  32  35
ATOM     33  C   LIG    1       20.001 -33.451  11.795  0.00  0.00    +0.038 C 
ATOM     34  C   LIG    1       20.553 -32.957  10.480  0.00  0.00    -0.080 C 
ATOM     35  C   LIG    1       20.990 -33.825   9.544  0.00  0.00    -0.028 C 
ATOM     36  C   LIG    1       20.569 -31.460  10.346  0.00  0.00    +0.038 C 
ENDBRANCH  32  35
ENDBRANCH  31  32
ENDBRANCH   1  31
BRANCH   3  37
ATOM     37  O   LIG    1       23.913 -29.524   6.640  0.00  0.00    -0.457 OA
BRANCH  37  38
ATOM     38  C   LIG    1       24.234 -28.383   5.993  0.00  0.00    +0.304 C 
ATOM     39  O   LIG    1       23.999 -27.258   6.393  0.00  0.00    -0.251 OA
ATOM     40  C   LIG    1       24.881 -28.716   4.683  0.00  0.00    +0.136 C 
ENDBRANCH  37  38
ENDBRANCH   3  37
TORSDOF 9
ENDMDL
