MODEL 1
REMARK VINA RESULT:      -5.0      0.000      0.000
REMARK  Name = *****
REMARK                            x       y       z     vdW  Elec       q    Type
REMARK                         _______ _______ _______ _____ _____    ______ ____
ROOT
ATOM      1  C   LIG    1       25.900 -17.081   3.499  0.00  0.00    -0.017 A 
ATOM      2  C   LIG    1       24.836 -16.167   3.524  0.00  0.00    +0.015 A 
ATOM      3  C   LIG    1       25.042 -14.796   3.748  0.00  0.00    +0.019 A 
ATOM      4  C   LIG    1       26.357 -14.336   3.887  0.00  0.00    +0.122 A 
ATOM      5  C   LIG    1       27.432 -15.213   3.821  0.00  0.00    +0.046 A 
ATOM      6  C   LIG    1       27.207 -16.574   3.621  0.00  0.00    +0.010 A 
ENDROOT
BRANCH   4   7
ATOM      7  O   LIG    1       26.567 -13.003   4.091  0.00  0.00    -0.506 OA
ATOM      8  H   LIG    1       26.937 -12.622   3.274  0.00  0.00    +0.292 HD
ENDBRANCH   4   7
BRANCH   1   9
ATOM      9  C   LIG    1       25.689 -18.575   3.325  0.00  0.00    +0.158 C 
BRANCH   9  10
ATOM     10  O   LIG    1       26.451 -19.292   4.311  0.00  0.00    -0.386 OA
ATOM     11  H   LIG    1       27.375 -19.037   4.153  0.00  0.00    +0.210 HD
ENDBRANCH   9  10
BRANCH   9  12
ATOM     12  C   LIG    1       24.226 -19.091   3.423  0.00  0.00    +0.117 C 
BRANCH  12  13
ATOM     13  N   LIG    1       24.069 -20.298   4.265  0.00  0.00    -0.309 NA
ATOM     14  H   LIG    1       23.958 -21.111   3.659  0.00  0.00    +0.122 HD
BRANCH  13  16
ATOM     15  C   LIG    1       23.394 -20.438   6.665  0.00  0.00    +0.027 C 
ATOM     16  C   LIG    1       22.932 -20.259   5.208  0.00  0.00    +0.011 C 
ATOM     17  C   LIG    1       22.286 -18.864   5.085  0.00  0.00    +0.027 C 
ATOM     18  C   LIG    1       21.869 -21.310   4.855  0.00  0.00    +0.027 C 
ENDBRANCH  13  16
ENDBRANCH  12  13
ENDBRANCH   9  12
ENDBRANCH   1   9
BRANCH   3  19
ATOM     19  C   LIG    1       23.863 -13.871   3.848  0.00  0.00    +0.194 C 
BRANCH  19  20
ATOM     20  O   LIG    1       23.785 -13.033   2.703  0.00  0.00    -0.390 OA
ATOM     21  H   LIG    1       24.417 -13.402   2.062  0.00  0.00    +0.210 HD
ENDBRANCH  19  20
ENDBRANCH   3  19
TORSDOF 8
ENDMDL
MODEL 2
REMARK VINA RESULT:      -5.0      0.821      1.884
REMARK  Name = *****
REMARK                            x       y       z     vdW  Elec       q    Type
REMARK                         _______ _______ _______ _____ _____    ______ ____
ROOT
ATOM      1  C   LIG    1       25.454 -16.850   3.541  0.00  0.00    -0.017 A 
ATOM      2  C   LIG    1       26.626 -16.079   3.551  0.00  0.00    +0.015 A 
ATOM      3  C   LIG    1       26.601 -14.696   3.790  0.00  0.00    +0.019 A 
ATOM      4  C   LIG    1       25.372 -14.094   4.086  0.00  0.00    +0.122 A 
ATOM      5  C   LIG    1       24.203 -14.843   4.128  0.00  0.00    +0.046 A 
ATOM      6  C   LIG    1       24.243 -16.211   3.865  0.00  0.00    +0.010 A 
ENDROOT
BRANCH   4   7
ATOM      7  O   LIG    1       25.341 -12.753   4.334  0.00  0.00    -0.506 OA
ATOM      8  H   LIG    1       24.663 -12.351   3.760  0.00  0.00    +0.292 HD
ENDBRANCH   4   7
BRANCH   1   9
ATOM      9  C   LIG    1       25.456 -18.334   3.217  0.00  0.00    +0.158 C 
BRANCH   9  10
ATOM     10  O   LIG    1       26.411 -19.013   4.049  0.00  0.00    -0.386 OA
ATOM     11  H   LIG    1       27.279 -18.682   3.763  0.00  0.00    +0.210 HD
ENDBRANCH   9  10
BRANCH   9  12
ATOM     12  C   LIG    1       24.105 -19.086   3.374  0.00  0.00    +0.117 C 
BRANCH  12  13
ATOM     13  N   LIG    1       24.142 -20.189   4.359  0.00  0.00    -0.309 NA
ATOM     14  H   LIG    1       24.201 -21.076   3.860  0.00  0.00    +0.122 HD
BRANCH  13  16
ATOM     15  C   LIG    1       23.427 -20.438   6.739  0.00  0.00    +0.027 C 
ATOM     16  C   LIG    1       22.985 -20.246   5.278  0.00  0.00    +0.011 C 
ATOM     17  C   LIG    1       22.256 -18.891   5.177  0.00  0.00    +0.027 C 
ATOM     18  C   LIG    1       21.997 -21.351   4.873  0.00  0.00    +0.027 C 
ENDBRANCH  13  16
ENDBRANCH  12  13
ENDBRANCH   9  12
ENDBRANCH   1   9
BRANCH   3  19
ATOM     19  C   LIG    1       27.873 -13.901   3.708  0.00  0.00    +0.194 C 
BRANCH  19  20
ATOM     20  O   LIG    1       27.731 -12.818   2.799  0.00  0.00    -0.390 OA
ATOM     21  H   LIG    1       28.589 -12.739   2.346  0.00  0.00    +0.210 HD
ENDBRANCH  19  20
ENDBRANCH   3  19
TORSDOF 8
ENDMDL
MODEL 3
REMARK VINA RESULT:      -4.5      2.813      6.627
REMARK  Name = *****
REMARK                            x       y       z     vdW  Elec       q    Type
REMARK                         _______ _______ _______ _____ _____    ______ ____
ROOT
ATOM      1  C   LIG    1       22.897 -17.452   4.368  0.00  0.00    -0.017 A 
ATOM      2  C   LIG    1       24.112 -17.943   3.868  0.00  0.00    +0.015 A 
ATOM      3  C   LIG    1       24.409 -19.315   3.857  0.00  0.00    +0.019 A 
ATOM      4  C   LIG    1       23.430 -20.210   4.304  0.00  0.00    +0.122 A 
ATOM      5  C   LIG    1       22.200 -19.753   4.762  0.00  0.00    +0.046 A 
ATOM      6  C   LIG    1       21.931 -18.386   4.787  0.00  0.00    +0.010 A 
ENDROOT
BRANCH   4   7
ATOM      7  O   LIG    1       23.704 -21.546   4.284  0.00  0.00    -0.506 OA
ATOM      8  H   LIG    1       24.327 -21.743   5.007  0.00  0.00    +0.292 HD
ENDBRANCH   4   7
BRANCH   1   9
ATOM      9  C   LIG    1       22.588 -15.967   4.450  0.00  0.00    +0.158 C 
BRANCH   9  10
ATOM     10  O   LIG    1       22.043 -15.654   5.742  0.00  0.00    -0.386 OA
ATOM     11  H   LIG    1       21.326 -15.020   5.569  0.00  0.00    +0.210 HD
ENDBRANCH   9  10
BRANCH   9  12
ATOM     12  C   LIG    1       23.773 -14.991   4.211  0.00  0.00    +0.117 C 
BRANCH  12  13
ATOM     13  N   LIG    1       23.453 -13.866   3.303  0.00  0.00    -0.309 NA
ATOM     14  H   LIG    1       23.459 -14.205   2.342  0.00  0.00    +0.122 HD
BRANCH  13  16
ATOM     15  C   LIG    1       23.915 -11.713   4.481  0.00  0.00    +0.027 C 
ATOM     16  C   LIG    1       24.366 -12.708   3.397  0.00  0.00    +0.011 C 
ATOM     17  C   LIG    1       25.752 -13.251   3.801  0.00  0.00    +0.027 C 
ATOM     18  C   LIG    1       24.509 -11.991   2.046  0.00  0.00    +0.027 C 
ENDBRANCH  13  16
ENDBRANCH  12  13
ENDBRANCH   9  12
ENDBRANCH   1   9
BRANCH   3  19
ATOM     19  C   LIG    1       25.756 -19.784   3.388  0.00  0.00    +0.194 C 
BRANCH  19  20
ATOM     20  O   LIG    1       26.475 -20.392   4.453  0.00  0.00    -0.390 OA
ATOM     21  H   LIG    1       26.623 -21.314   4.179  0.00  0.00    +0.210 HD
ENDBRANCH  19  20
ENDBRANCH   3  19
TORSDOF 8
ENDMDL
MODEL 4
REMARK VINA RESULT:      -4.5      2.672      6.532
REMARK  Name = *****
REMARK                            x       y       z     vdW  Elec       q    Type
REMARK                         _______ _______ _______ _____ _____    ______ ____
ROOT
ATOM      1  C   LIG    1       25.063 -19.057   4.225  0.00  0.00    -0.017 A 
ATOM      2  C   LIG    1       25.670 -19.908   5.159  0.00  0.00    +0.015 A 
ATOM      3  C   LIG    1       24.917 -20.740   6.003  0.00  0.00    +0.019 A 
ATOM      4  C   LIG    1       23.525 -20.755   5.851  0.00  0.00    +0.122 A 
ATOM      5  C   LIG    1       22.902 -19.956   4.901  0.00  0.00    +0.046 A 
ATOM      6  C   LIG    1       23.663 -19.119   4.089  0.00  0.00    +0.010 A 
ENDROOT
BRANCH   4   7
ATOM      7  O   LIG    1       22.787 -21.572   6.657  0.00  0.00    -0.506 OA
ATOM      8  H   LIG    1       22.013 -21.072   6.974  0.00  0.00    +0.292 HD
ENDBRANCH   4   7
BRANCH   1   9
ATOM      9  C   LIG    1       25.859 -18.101   3.353  0.00  0.00    +0.158 C 
BRANCH   9  10
ATOM     10  O   LIG    1       25.867 -18.571   1.995  0.00  0.00    -0.386 OA
ATOM     11  H   LIG    1       26.169 -19.494   2.047  0.00  0.00    +0.210 HD
ENDBRANCH   9  10
BRANCH   9  12
ATOM     12  C   LIG    1       25.379 -16.623   3.316  0.00  0.00    +0.117 C 
BRANCH  12  13
ATOM     13  N   LIG    1       26.475 -15.638   3.175  0.00  0.00    -0.309 NA
ATOM     14  H   LIG    1       27.283 -15.965   3.704  0.00  0.00    +0.122 HD
BRANCH  13  16
ATOM     15  C   LIG    1       26.310 -13.243   2.487  0.00  0.00    +0.027 C 
ATOM     16  C   LIG    1       26.146 -14.268   3.622  0.00  0.00    +0.011 C 
ATOM     17  C   LIG    1       24.663 -14.272   4.047  0.00  0.00    +0.027 C 
ATOM     18  C   LIG    1       26.990 -13.854   4.837  0.00  0.00    +0.027 C 
ENDBRANCH  13  16
ENDBRANCH  12  13
ENDBRANCH   9  12
ENDBRANCH   1   9
BRANCH   3  19
ATOM     19  C   LIG    1       25.610 -21.572   7.044  0.00  0.00    +0.194 C 
BRANCH  19  20
ATOM     20  O   LIG    1       27.016 -21.571   6.834  0.00  0.00    -0.390 OA
ATOM     21  H   LIG    1       27.185 -20.865   6.185  0.00  0.00    +0.210 HD
ENDBRANCH  19  20
ENDBRANCH   3  19
TORSDOF 8
ENDMDL
MODEL 5
REMARK VINA RESULT:      -4.3      2.479      6.287
REMARK  Name = *****
REMARK                            x       y       z     vdW  Elec       q    Type
REMARK                         _______ _______ _______ _____ _____    ______ ____
ROOT
ATOM      1  C   LIG    1       22.847 -17.462   4.344  0.00  0.00    -0.017 A 
ATOM      2  C   LIG    1       24.078 -17.924   3.857  0.00  0.00    +0.015 A 
ATOM      3  C   LIG    1       24.418 -19.286   3.876  0.00  0.00    +0.019 A 
ATOM      4  C   LIG    1       23.466 -20.203   4.339  0.00  0.00    +0.122 A 
ATOM      5  C   LIG    1       22.221 -19.775   4.784  0.00  0.00    +0.046 A 
ATOM      6  C   LIG    1       21.910 -18.417   4.780  0.00  0.00    +0.010 A 
ENDROOT
BRANCH   4   7
ATOM      7  O   LIG    1       23.782 -21.530   4.348  0.00  0.00    -0.506 OA
ATOM      8  H   LIG    1       24.418 -21.698   3.628  0.00  0.00    +0.292 HD
ENDBRANCH   4   7
BRANCH   1   9
ATOM      9  C   LIG    1       22.491 -15.986   4.394  0.00  0.00    +0.158 C 
BRANCH   9  10
ATOM     10  O   LIG    1       22.322 -15.572   5.759  0.00  0.00    -0.386 OA
ATOM     11  H   LIG    1       21.810 -14.746   5.714  0.00  0.00    +0.210 HD
ENDBRANCH   9  10
BRANCH   9  12
ATOM     12  C   LIG    1       23.501 -15.000   3.744  0.00  0.00    +0.117 C 
BRANCH  12  13
ATOM     13  N   LIG    1       24.505 -14.459   4.688  0.00  0.00    -0.309 NA
ATOM     14  H   LIG    1       24.121 -13.628   5.137  0.00  0.00    +0.122 HD
BRANCH  13  16
ATOM     15  C   LIG    1       26.488 -15.328   3.443  0.00  0.00    +0.027 C 
ATOM     16  C   LIG    1       25.806 -14.106   4.083  0.00  0.00    +0.011 C 
ATOM     17  C   LIG    1       25.526 -13.081   2.966  0.00  0.00    +0.027 C 
ATOM     18  C   LIG    1       26.745 -13.451   5.108  0.00  0.00    +0.027 C 
ENDBRANCH  13  16
ENDBRANCH  12  13
ENDBRANCH   9  12
ENDBRANCH   1   9
BRANCH   3  19
ATOM     19  C   LIG    1       25.781 -19.722   3.420  0.00  0.00    +0.194 C 
BRANCH  19  20
ATOM     20  O   LIG    1       26.495 -20.335   4.485  0.00  0.00    -0.390 OA
ATOM     21  H   LIG    1       26.120 -21.230   4.574  0.00  0.00    +0.210 HD
ENDBRANCH  19  20
ENDBRANCH   3  19
TORSDOF 8
ENDMDL
MODEL 6
REMARK VINA RESULT:      -4.3      2.801      6.547
REMARK  Name = *****
REMARK                            x       y       z     vdW  Elec       q    Type
REMARK                         _______ _______ _______ _____ _____    ______ ____
ROOT
ATOM      1  C   LIG    1       23.289 -17.686   4.302  0.00  0.00    -0.017 A 
ATOM      2  C   LIG    1       22.629 -18.751   4.933  0.00  0.00    +0.015 A 
ATOM      3  C   LIG    1       23.113 -20.067   4.863  0.00  0.00    +0.019 A 
ATOM      4  C   LIG    1       24.321 -20.297   4.194  0.00  0.00    +0.122 A 
ATOM      5  C   LIG    1       25.018 -19.252   3.600  0.00  0.00    +0.046 A 
ATOM      6  C   LIG    1       24.511 -17.956   3.659  0.00  0.00    +0.010 A 
ENDROOT
BRANCH   4   7
ATOM      7  O   LIG    1       24.806 -21.571   4.134  0.00  0.00    -0.506 OA
ATOM      8  H   LIG    1       24.220 -22.147   4.658  0.00  0.00    +0.292 HD
ENDBRANCH   4   7
BRANCH   1   9
ATOM      9  C   LIG    1       22.742 -16.268   4.311  0.00  0.00    +0.158 C 
BRANCH   9  10
ATOM     10  O   LIG    1       21.883 -16.084   5.448  0.00  0.00    -0.386 OA
ATOM     11  H   LIG    1       21.198 -15.462   5.151  0.00  0.00    +0.210 HD
ENDBRANCH   9  10
BRANCH   9  12
ATOM     12  C   LIG    1       23.786 -15.117   4.341  0.00  0.00    +0.117 C 
BRANCH  12  13
ATOM     13  N   LIG    1       23.504 -14.024   3.383  0.00  0.00    -0.309 NA
ATOM     14  H   LIG    1       23.556 -14.395   2.435  0.00  0.00    +0.122 HD
BRANCH  13  16
ATOM     15  C   LIG    1       23.932 -11.857   4.547  0.00  0.00    +0.027 C 
ATOM     16  C   LIG    1       24.407 -12.859   3.481  0.00  0.00    +0.011 C 
ATOM     17  C   LIG    1       25.790 -13.389   3.912  0.00  0.00    +0.027 C 
ATOM     18  C   LIG    1       24.567 -12.154   2.125  0.00  0.00    +0.027 C 
ENDBRANCH  13  16
ENDBRANCH  12  13
ENDBRANCH   9  12
ENDBRANCH   1   9
BRANCH   3  19
ATOM     19  C   LIG    1       22.327 -21.186   5.486  0.00  0.00    +0.194 C 
BRANCH  19  20
ATOM     20  O   LIG    1       21.246 -21.568   4.646  0.00  0.00    -0.390 OA
ATOM     21  H   LIG    1       20.448 -21.190   5.055  0.00  0.00    +0.210 HD
ENDBRANCH  19  20
ENDBRANCH   3  19
TORSDOF 8
ENDMDL
MODEL 7
REMARK VINA RESULT:      -4.2      2.728      6.184
REMARK  Name = *****
REMARK                            x       y       z     vdW  Elec       q    Type
REMARK                         _______ _______ _______ _____ _____    ______ ____
ROOT
ATOM      1  C   LIG    1       25.316 -19.188   4.309  0.00  0.00    -0.017 A 
ATOM      2  C   LIG    1       23.917 -19.288   4.275  0.00  0.00    +0.015 A 
ATOM      3  C   LIG    1       23.211 -20.104   5.174  0.00  0.00    +0.019 A 
ATOM      4  C   LIG    1       23.933 -20.780   6.165  0.00  0.00    +0.122 A 
ATOM      5  C   LIG    1       25.314 -20.662   6.249  0.00  0.00    +0.046 A 
ATOM      6  C   LIG    1       26.001 -19.867   5.334  0.00  0.00    +0.010 A 
ENDROOT
BRANCH   4   7
ATOM      7  O   LIG    1       23.253 -21.563   7.052  0.00  0.00    -0.506 OA
ATOM      8  H   LIG    1       22.527 -22.006   6.577  0.00  0.00    +0.292 HD
ENDBRANCH   4   7
BRANCH   1   9
ATOM      9  C   LIG    1       26.099 -18.365   3.301  0.00  0.00    +0.158 C 
BRANCH   9  10
ATOM     10  O   LIG    1       25.994 -18.962   1.998  0.00  0.00    -0.386 OA
ATOM     11  H   LIG    1       25.052 -19.178   1.892  0.00  0.00    +0.210 HD
ENDBRANCH   9  10
BRANCH   9  12
ATOM     12  C   LIG    1       25.692 -16.873   3.148  0.00  0.00    +0.117 C 
BRANCH  12  13
ATOM     13  N   LIG    1       26.800 -15.920   3.388  0.00  0.00    -0.309 NA
ATOM     14  H   LIG    1       27.333 -16.231   4.199  0.00  0.00    +0.122 HD
BRANCH  13  16
ATOM     15  C   LIG    1       24.887 -14.419   3.956  0.00  0.00    +0.027 C 
ATOM     16  C   LIG    1       26.383 -14.520   3.612  0.00  0.00    +0.011 C 
ATOM     17  C   LIG    1       27.183 -13.994   4.820  0.00  0.00    +0.027 C 
ATOM     18  C   LIG    1       26.709 -13.634   2.400  0.00  0.00    +0.027 C 
ENDBRANCH  13  16
ENDBRANCH  12  13
ENDBRANCH   9  12
ENDBRANCH   1   9
BRANCH   3  19
ATOM     19  C   LIG    1       21.721 -20.242   5.045  0.00  0.00    +0.194 C 
BRANCH  19  20
ATOM     20  O   LIG    1       21.369 -21.572   4.687  0.00  0.00    -0.390 OA
ATOM     21  H   LIG    1       20.791 -21.893   5.402  0.00  0.00    +0.210 HD
ENDBRANCH  19  20
ENDBRANCH   3  19
TORSDOF 8
ENDMDL
MODEL 8
REMARK VINA RESULT:      -4.0      2.581      6.327
REMARK  Name = *****
REMARK                            x       y       z     vdW  Elec       q    Type
REMARK                         _______ _______ _______ _____ _____    ______ ____
ROOT
ATOM      1  C   LIG    1       23.083 -17.791   4.376  0.00  0.00    -0.017 A 
ATOM      2  C   LIG    1       22.527 -18.860   5.095  0.00  0.00    +0.015 A 
ATOM      3  C   LIG    1       23.102 -20.140   5.081  0.00  0.00    +0.019 A 
ATOM      4  C   LIG    1       24.297 -20.325   4.376  0.00  0.00    +0.122 A 
ATOM      5  C   LIG    1       24.893 -19.272   3.693  0.00  0.00    +0.046 A 
ATOM      6  C   LIG    1       24.296 -18.013   3.698  0.00  0.00    +0.010 A 
ENDROOT
BRANCH   4   7
ATOM      7  O   LIG    1       24.871 -21.563   4.370  0.00  0.00    -0.506 OA
ATOM      8  H   LIG    1       25.804 -21.468   4.104  0.00  0.00    +0.292 HD
ENDBRANCH   4   7
BRANCH   1   9
ATOM      9  C   LIG    1       22.436 -16.418   4.324  0.00  0.00    +0.158 C 
BRANCH   9  10
ATOM     10  O   LIG    1       22.054 -16.010   5.648  0.00  0.00    -0.386 OA
ATOM     11  H   LIG    1       21.786 -15.079   5.560  0.00  0.00    +0.210 HD
ENDBRANCH   9  10
BRANCH   9  12
ATOM     12  C   LIG    1       23.288 -15.265   3.724  0.00  0.00    +0.117 C 
BRANCH  12  13
ATOM     13  N   LIG    1       24.224 -14.645   4.689  0.00  0.00    -0.309 NA
ATOM     14  H   LIG    1       23.719 -13.954   5.242  0.00  0.00    +0.122 HD
BRANCH  13  16
ATOM     15  C   LIG    1       26.304 -13.341   5.148  0.00  0.00    +0.027 C 
ATOM     16  C   LIG    1       25.403 -13.989   4.083  0.00  0.00    +0.011 C 
ATOM     17  C   LIG    1       26.221 -15.087   3.374  0.00  0.00    +0.027 C 
ATOM     18  C   LIG    1       24.990 -12.947   3.033  0.00  0.00    +0.027 C 
ENDBRANCH  13  16
ENDBRANCH  12  13
ENDBRANCH   9  12
ENDBRANCH   1   9
BRANCH   3  19
ATOM     19  C   LIG    1       22.424 -21.271   5.801  0.00  0.00    +0.194 C 
BRANCH  19  20
ATOM     20  O   LIG    1       23.100 -21.572   7.014  0.00  0.00    -0.390 OA
ATOM     21  H   LIG    1       22.912 -20.827   7.612  0.00  0.00    +0.210 HD
ENDBRANCH  19  20
ENDBRANCH   3  19
TORSDOF 8
ENDMDL
MODEL 9
REMARK VINA RESULT:      -3.9      2.923      6.103
REMARK  Name = *****
REMARK                            x       y       z     vdW  Elec       q    Type
REMARK                         _______ _______ _______ _____ _____    ______ ____
ROOT
ATOM      1  C   LIG    1       25.675 -19.247   4.342  0.00  0.00    -0.017 A 
ATOM      2  C   LIG    1       27.047 -19.043   4.546  0.00  0.00    +0.015 A 
ATOM      3  C   LIG    1       27.779 -19.798   5.476  0.00  0.00    +0.019 A 
ATOM      4  C   LIG    1       27.119 -20.822   6.167  0.00  0.00    +0.122 A 
ATOM      5  C   LIG    1       25.770 -21.075   5.950  0.00  0.00    +0.046 A 
ATOM      6  C   LIG    1       25.054 -20.300   5.040  0.00  0.00    +0.010 A 
ENDROOT
BRANCH   4   7
ATOM      7  O   LIG    1       27.825 -21.571   7.062  0.00  0.00    -0.506 OA
ATOM      8  H   LIG    1       27.210 -21.893   7.746  0.00  0.00    +0.292 HD
ENDBRANCH   4   7
BRANCH   1   9
ATOM      9  C   LIG    1       24.855 -18.393   3.390  0.00  0.00    +0.158 C 
BRANCH   9  10
ATOM     10  O   LIG    1       23.495 -18.857   3.367  0.00  0.00    -0.386 OA
ATOM     11  H   LIG    1       23.271 -18.943   2.425  0.00  0.00    +0.210 HD
ENDBRANCH   9  10
BRANCH   9  12
ATOM     12  C   LIG    1       24.806 -16.868   3.684  0.00  0.00    +0.117 C 
BRANCH  12  13
ATOM     13  N   LIG    1       25.901 -16.098   3.050  0.00  0.00    -0.309 NA
ATOM     14  H   LIG    1       26.790 -16.545   3.271  0.00  0.00    +0.122 HD
BRANCH  13  16
ATOM     15  C   LIG    1       24.720 -14.229   4.213  0.00  0.00    +0.027 C 
ATOM     16  C   LIG    1       25.979 -14.677   3.451  0.00  0.00    +0.011 C 
ATOM     17  C   LIG    1       27.184 -14.539   4.403  0.00  0.00    +0.027 C 
ATOM     18  C   LIG    1       26.220 -13.762   2.240  0.00  0.00    +0.027 C 
ENDBRANCH  13  16
ENDBRANCH  12  13
ENDBRANCH   9  12
ENDBRANCH   1   9
BRANCH   3  19
ATOM     19  C   LIG    1       29.228 -19.487   5.717  0.00  0.00    +0.194 C 
BRANCH  19  20
ATOM     20  O   LIG    1       29.475 -18.095   5.563  0.00  0.00    -0.390 OA
ATOM     21  H   LIG    1       29.055 -17.845   4.721  0.00  0.00    +0.210 HD
ENDBRANCH  19  20
ENDBRANCH   3  19
TORSDOF 8
ENDMDL
