MODEL 1
REMARK VINA RESULT:       7.8      0.000      0.000
REMARK  Name = *****
REMARK                            x       y       z     vdW  Elec       q    Type
REMARK                         _______ _______ _______ _____ _____    ______ ____
ROOT
ATOM      1  C   LIG    1       24.233 -15.706   4.145  0.00  0.00    +0.168 C 
ATOM      2  C   LIG    1       25.329 -14.844   3.855  0.00  0.00    +0.097 C 
ATOM      3  C   LIG    1       26.595 -15.423   3.662  0.00  0.00    +0.052 C 
ATOM      4  C   LIG    1       27.801 -14.563   3.720  0.00  0.00    +0.204 C 
ATOM      5  C   LIG    1       27.622 -13.137   4.049  0.00  0.00    +0.122 C 
ATOM      6  C   LIG    1       26.369 -12.669   4.003  0.00  0.00    +0.105 C 
ATOM      7  O   LIG    1       28.933 -15.031   3.601  0.00  0.00    -0.286 OA
ATOM      8  C   LIG    1       26.736 -16.793   3.487  0.00  0.00    +0.054 C 
ATOM      9  C   LIG    1       25.621 -17.615   3.615  0.00  0.00    +0.149 C 
ATOM     10  F   LIG    1       25.826 -18.929   3.429  0.00  0.00    -0.203 F 
ATOM     11  N   LIG    1       25.227 -13.416   3.740  0.00  0.00    -0.340 NA
ATOM     12  C   LIG    1       24.353 -17.129   4.009  0.00  0.00    +0.110 C 
ENDROOT
BRANCH  12  13
ATOM     13  N   LIG    1       23.292 -17.997   4.240  0.00  0.00    -0.323 NA
ATOM     14  C   LIG    1       22.119 -18.070   3.352  0.00  0.00    +0.124 C 
ATOM     15  C   LIG    1       21.002 -18.654   4.261  0.00  0.00    +0.075 C 
ATOM     16  C   LIG    1       21.788 -19.528   5.248  0.00  0.00    +0.025 C 
ATOM     17  C   LIG    1       22.149 -20.894   4.650  0.00  0.00    +0.008 C 
ATOM     18  C   LIG    1       20.903 -21.553   4.065  0.00  0.00    +0.015 C 
ATOM     19  C   LIG    1       20.229 -20.634   3.048  0.00  0.00    +0.081 C 
ATOM     20  N   LIG    1       19.869 -19.335   3.620  0.00  0.00    -0.311 NA
ATOM     21  H   LIG    1       19.152 -19.494   4.330  0.00  0.00    +0.122 HD
ATOM     22  C   LIG    1       23.021 -18.653   5.524  0.00  0.00    +0.110 C 
ENDBRANCH  12  13
BRANCH  11  23
ATOM     23  C   LIG    1       24.430 -12.826   2.609  0.00  0.00    +0.088 C 
ATOM     24  C   LIG    1       23.664 -11.530   2.787  0.00  0.00    +0.027 C 
ATOM     25  C   LIG    1       24.800 -11.605   1.814  0.00  0.00    +0.027 C 
ENDBRANCH  11  23
BRANCH   1  27
ATOM     26  C   LIG    1       22.659 -15.158   5.861  0.00  0.00    +0.277 C 
ATOM     27  O   LIG    1       22.977 -15.235   4.474  0.00  0.00    -0.491 OA
ENDBRANCH   1  27
BRANCH   5  28
ATOM     28  C   LIG    1       28.722 -12.212   4.388  0.00  0.00    +0.342 C 
ATOM     29  O   LIG    1       29.439 -11.693   3.560  0.00  0.00    -0.245 OA
BRANCH  28  30
ATOM     30  O   LIG    1       28.807 -11.928   5.709  0.00  0.00    -0.477 OA
ATOM     31  H   LIG    1       28.524 -12.662   6.301  0.00  0.00    +0.295 HD
ENDBRANCH  28  30
ENDBRANCH   5  28
TORSDOF 5
ENDMDL
MODEL 2
REMARK VINA RESULT:       8.5      1.208      1.614
REMARK  Name = *****
REMARK                            x       y       z     vdW  Elec       q    Type
REMARK                         _______ _______ _______ _____ _____    ______ ____
ROOT
ATOM      1  C   LIG    1       24.881 -16.175   3.770  0.00  0.00    +0.168 C 
ATOM      2  C   LIG    1       25.904 -15.188   3.687  0.00  0.00    +0.097 C 
ATOM      3  C   LIG    1       27.241 -15.609   3.793  0.00  0.00    +0.052 C 
ATOM      4  C   LIG    1       28.296 -14.607   4.074  0.00  0.00    +0.204 C 
ATOM      5  C   LIG    1       27.883 -13.209   4.302  0.00  0.00    +0.122 C 
ATOM      6  C   LIG    1       26.624 -12.900   3.970  0.00  0.00    +0.105 C 
ATOM      7  O   LIG    1       29.473 -14.933   4.219  0.00  0.00    -0.286 OA
ATOM      8  C   LIG    1       27.576 -16.953   3.706  0.00  0.00    +0.054 C 
ATOM      9  C   LIG    1       26.565 -17.905   3.624  0.00  0.00    +0.149 C 
ATOM     10  F   LIG    1       26.959 -19.186   3.538  0.00  0.00    -0.203 F 
ATOM     11  N   LIG    1       25.663 -13.785   3.498  0.00  0.00    -0.340 NA
ATOM     12  C   LIG    1       25.193 -17.574   3.718  0.00  0.00    +0.110 C 
ENDROOT
BRANCH  12  13
ATOM     13  N   LIG    1       24.217 -18.563   3.750  0.00  0.00    -0.323 NA
ATOM     14  C   LIG    1       24.041 -19.468   4.898  0.00  0.00    +0.124 C 
ATOM     15  C   LIG    1       23.328 -20.706   4.287  0.00  0.00    +0.075 C 
ATOM     16  C   LIG    1       22.520 -20.100   3.133  0.00  0.00    +0.025 C 
ATOM     17  C   LIG    1       21.211 -19.464   3.615  0.00  0.00    +0.008 C 
ATOM     18  C   LIG    1       20.439 -20.452   4.483  0.00  0.00    +0.015 C 
ATOM     19  C   LIG    1       21.304 -20.949   5.641  0.00  0.00    +0.081 C 
ATOM     20  N   LIG    1       22.548 -21.572   5.183  0.00  0.00    -0.311 NA
ATOM     21  H   LIG    1       22.303 -22.419   4.669  0.00  0.00    +0.122 HD
ATOM     22  C   LIG    1       23.512 -19.070   2.568  0.00  0.00    +0.110 C 
ENDBRANCH  12  13
BRANCH  11  23
ATOM     23  C   LIG    1       25.067 -13.312   2.201  0.00  0.00    +0.088 C 
ATOM     24  C   LIG    1       23.602 -12.933   2.107  0.00  0.00    +0.027 C 
ATOM     25  C   LIG    1       24.662 -11.900   1.880  0.00  0.00    +0.027 C 
ENDBRANCH  11  23
BRANCH   1  27
ATOM     26  C   LIG    1       23.040 -15.275   5.005  0.00  0.00    +0.277 C 
ATOM     27  O   LIG    1       23.537 -15.858   3.803  0.00  0.00    -0.491 OA
ENDBRANCH   1  27
BRANCH   5  28
ATOM     28  C   LIG    1       28.767 -12.151   4.832  0.00  0.00    +0.342 C 
ATOM     29  O   LIG    1       29.462 -11.447   4.132  0.00  0.00    -0.245 OA
BRANCH  28  30
ATOM     30  O   LIG    1       28.668 -11.981   6.171  0.00  0.00    -0.477 OA
ATOM     31  H   LIG    1       29.386 -11.436   6.566  0.00  0.00    +0.295 HD
ENDBRANCH  28  30
ENDBRANCH   5  28
TORSDOF 5
ENDMDL
