MODEL 1
REMARK VINA RESULT:      -5.0      0.000      0.000
REMARK  Name = *****
REMARK                            x       y       z     vdW  Elec       q    Type
REMARK                         _______ _______ _______ _____ _____    ______ ____
ROOT
ATOM      1  C   UNK A  1       26.594 -16.982   3.598  0.00  0.00    +0.216 C 
ATOM      2  N   UNK A  1       26.030 -15.749   3.312  0.00  0.00    -0.302 N 
ATOM      3  H   UNK A  1       25.115 -15.700   2.865  0.00  0.00    +0.149 HD
ATOM      4  O   UNK A  1       27.716 -17.102   4.058  0.00  0.00    -0.276 OA
ENDROOT
BRANCH   1   5
ATOM      5  C   UNK A  1       25.720 -18.196   3.309  0.00  0.00    +0.129 C 
BRANCH   5   6
ATOM      6  C   UNK A  1       25.755 -19.245   4.449  0.00  0.00    +0.190 C 
BRANCH   6   9
ATOM      7  C   UNK A  0       28.856 -20.560   6.271  0.00  0.00    +0.109 C 
ATOM      8  C   UNK A  0       27.447 -20.069   6.069  0.00  0.00    +0.211 C 
ATOM      9  N   UNK A  1       27.120 -19.751   4.757  0.00  0.00    -0.302 N 
ATOM     10  H   UNK A  1       27.882 -19.460   4.154  0.00  0.00    +0.149 HD
ATOM     11  O   UNK A  0       26.619 -20.110   6.977  0.00  0.00    -0.276 OA
ENDBRANCH   6   9
BRANCH   6  12
ATOM     12  C   UNK A  1       24.930 -20.465   3.987  0.00  0.00    +0.326 C 
ATOM     13  O   UNK A  1       24.256 -20.510   2.968  0.00  0.00    -0.249 OA
BRANCH  12  14
ATOM     14  O   UNK A  1       25.146 -21.571   4.754  0.00  0.00    -0.479 OA
ATOM     15  H   UNK A  1       24.489 -22.257   4.510  0.00  0.00    +0.295 HD
ENDBRANCH  12  14
ENDBRANCH   6  12
ENDBRANCH   5   6
ENDBRANCH   1   5
BRANCH   2  16
ATOM     16  C   UNK A  1       26.717 -14.479   3.604  0.00  0.00    +0.182 C 
BRANCH  16  17
ATOM     17  C   UNK A  1       26.440 -13.844   4.982  0.00  0.00    +0.325 C 
ATOM     18  O   UNK A  1       25.376 -13.880   5.573  0.00  0.00    -0.249 OA
BRANCH  17  19
ATOM     19  O   UNK A  1       27.512 -13.263   5.559  0.00  0.00    -0.479 OA
ATOM     20  H   UNK A  1       27.490 -12.339   5.227  0.00  0.00    +0.295 HD
ENDBRANCH  17  19
ENDBRANCH  16  17
BRANCH  16  21
ATOM     21  C   UNK A  1       26.580 -13.435   2.467  0.00  0.00    +0.045 C 
BRANCH  21  22
ATOM     22  C   UNK A  1       25.217 -13.157   1.813  0.00  0.00    +0.123 C 
BRANCH  22  23
ATOM     23  C   UNK A  1       24.098 -12.703   2.719  0.00  0.00    +0.305 C 
ATOM     24  O   UNK A  1       23.787 -11.552   2.929  0.00  0.00    -0.251 OA
BRANCH  23  25
ATOM     25  O   UNK A  1       23.435 -13.754   3.274  0.00  0.00    -0.481 OA
ATOM     26  H   UNK A  1       23.981 -14.546   3.425  0.00  0.00    +0.295 HD
ENDBRANCH  23  25
ENDBRANCH  22  23
ENDBRANCH  21  22
ENDBRANCH  16  21
ENDBRANCH   2  16
TORSDOF 12
ENDMDL
MODEL 2
REMARK VINA RESULT:      -5.0      1.831      6.889
REMARK  Name = *****
REMARK                            x       y       z     vdW  Elec       q    Type
REMARK                         _______ _______ _______ _____ _____    ______ ____
ROOT
ATOM      1  C   UNK A  1       25.687 -16.870   3.498  0.00  0.00    +0.216 C 
ATOM      2  N   UNK A  1       26.371 -18.048   3.750  0.00  0.00    -0.302 N 
ATOM      3  H   UNK A  1       27.358 -18.126   3.507  0.00  0.00    +0.149 HD
ATOM      4  O   UNK A  1       24.491 -16.747   3.694  0.00  0.00    -0.276 OA
ENDROOT
BRANCH   1   5
ATOM      5  C   UNK A  1       26.526 -15.717   2.961  0.00  0.00    +0.129 C 
BRANCH   5   6
ATOM      6  C   UNK A  1       26.157 -14.357   3.605  0.00  0.00    +0.190 C 
BRANCH   6   9
ATOM      7  C   UNK A  0       24.316 -11.517   1.813  0.00  0.00    +0.109 C 
ATOM      8  C   UNK A  0       24.642 -12.529   2.879  0.00  0.00    +0.211 C 
ATOM      9  N   UNK A  1       25.756 -13.316   2.620  0.00  0.00    -0.302 N 
ATOM     10  H   UNK A  1       25.990 -13.469   1.645  0.00  0.00    +0.149 HD
ATOM     11  O   UNK A  0       24.054 -12.530   3.958  0.00  0.00    -0.276 OA
ENDBRANCH   6   9
BRANCH   6  12
ATOM     12  C   UNK A  1       27.418 -13.820   4.318  0.00  0.00    +0.326 C 
ATOM     13  O   UNK A  1       28.470 -13.539   3.764  0.00  0.00    -0.249 OA
BRANCH  12  14
ATOM     14  O   UNK A  1       27.199 -13.535   5.633  0.00  0.00    -0.479 OA
ATOM     15  H   UNK A  1       26.940 -12.593   5.712  0.00  0.00    +0.295 HD
ENDBRANCH  12  14
ENDBRANCH   6  12
ENDBRANCH   5   6
ENDBRANCH   1   5
BRANCH   2  16
ATOM     16  C   UNK A  1       25.719 -19.230   4.341  0.00  0.00    +0.182 C 
BRANCH  16  17
ATOM     17  C   UNK A  1       26.600 -20.139   5.222  0.00  0.00    +0.325 C 
ATOM     18  O   UNK A  1       26.188 -20.981   5.999  0.00  0.00    -0.249 OA
BRANCH  17  19
ATOM     19  O   UNK A  1       27.927 -19.985   5.038  0.00  0.00    -0.479 OA
ATOM     20  H   UNK A  1       28.000 -19.601   4.137  0.00  0.00    +0.295 HD
ENDBRANCH  17  19
ENDBRANCH  16  17
BRANCH  16  21
ATOM     21  C   UNK A  1       24.909 -20.058   3.312  0.00  0.00    +0.045 C 
BRANCH  21  22
ATOM     22  C   UNK A  1       23.490 -20.552   3.639  0.00  0.00    +0.123 C 
BRANCH  22  23
ATOM     23  C   UNK A  1       22.793 -19.911   4.815  0.00  0.00    +0.305 C 
ATOM     24  O   UNK A  1       22.683 -20.398   5.919  0.00  0.00    -0.251 OA
BRANCH  23  25
ATOM     25  O   UNK A  1       22.307 -18.677   4.507  0.00  0.00    -0.481 OA
ATOM     26  H   UNK A  1       21.763 -18.268   5.202  0.00  0.00    +0.295 HD
ENDBRANCH  23  25
ENDBRANCH  22  23
ENDBRANCH  21  22
ENDBRANCH  16  21
ENDBRANCH   2  16
TORSDOF 12
ENDMDL
MODEL 3
REMARK VINA RESULT:      -4.9      0.969      2.495
REMARK  Name = *****
REMARK                            x       y       z     vdW  Elec       q    Type
REMARK                         _______ _______ _______ _____ _____    ______ ____
ROOT
ATOM      1  C   UNK A  1       26.062 -17.165   3.437  0.00  0.00    +0.216 C 
ATOM      2  N   UNK A  1       25.208 -16.080   3.326  0.00  0.00    -0.302 N 
ATOM      3  H   UNK A  1       24.252 -16.216   2.998  0.00  0.00    +0.149 HD
ATOM      4  O   UNK A  1       27.235 -17.052   3.748  0.00  0.00    -0.276 OA
ENDROOT
BRANCH   1   5
ATOM      5  C   UNK A  1       25.443 -18.529   3.154  0.00  0.00    +0.129 C 
BRANCH   5   6
ATOM      6  C   UNK A  1       25.491 -19.475   4.381  0.00  0.00    +0.190 C 
BRANCH   6   9
ATOM      7  C   UNK A  0       28.607 -20.654   6.270  0.00  0.00    +0.109 C 
ATOM      8  C   UNK A  0       27.195 -20.182   6.043  0.00  0.00    +0.211 C 
ATOM      9  N   UNK A  1       26.860 -19.955   4.715  0.00  0.00    -0.302 N 
ATOM     10  H   UNK A  1       27.618 -19.704   4.089  0.00  0.00    +0.149 HD
ATOM     11  O   UNK A  0       26.373 -20.164   6.956  0.00  0.00    -0.276 OA
ENDBRANCH   6   9
BRANCH   6  12
ATOM     12  C   UNK A  1       24.659 -20.729   4.036  0.00  0.00    +0.326 C 
ATOM     13  O   UNK A  1       24.293 -21.570   4.844  0.00  0.00    -0.249 OA
BRANCH  12  14
ATOM     14  O   UNK A  1       24.227 -20.738   2.744  0.00  0.00    -0.479 OA
ATOM     15  H   UNK A  1       23.981 -19.825   2.488  0.00  0.00    +0.295 HD
ENDBRANCH  12  14
ENDBRANCH   6  12
ENDBRANCH   5   6
ENDBRANCH   1   5
BRANCH   2  16
ATOM     16  C   UNK A  1       25.633 -14.704   3.639  0.00  0.00    +0.182 C 
BRANCH  16  17
ATOM     17  C   UNK A  1       24.537 -13.620   3.617  0.00  0.00    +0.325 C 
ATOM     18  O   UNK A  1       23.903 -13.279   2.634  0.00  0.00    -0.249 OA
BRANCH  17  19
ATOM     19  O   UNK A  1       24.259 -13.075   4.819  0.00  0.00    -0.479 OA
ATOM     20  H   UNK A  1       24.260 -12.108   4.648  0.00  0.00    +0.295 HD
ENDBRANCH  17  19
ENDBRANCH  16  17
BRANCH  16  21
ATOM     21  C   UNK A  1       26.884 -14.256   2.844  0.00  0.00    +0.045 C 
BRANCH  21  22
ATOM     22  C   UNK A  1       28.044 -13.529   3.543  0.00  0.00    +0.123 C 
BRANCH  22  23
ATOM     23  C   UNK A  1       27.846 -13.152   4.992  0.00  0.00    +0.305 C 
ATOM     24  O   UNK A  1       27.049 -13.660   5.748  0.00  0.00    -0.251 OA
BRANCH  23  25
ATOM     25  O   UNK A  1       28.702 -12.168   5.382  0.00  0.00    -0.481 OA
ATOM     26  H   UNK A  1       29.608 -12.469   5.573  0.00  0.00    +0.295 HD
ENDBRANCH  23  25
ENDBRANCH  22  23
ENDBRANCH  21  22
ENDBRANCH  16  21
ENDBRANCH   2  16
TORSDOF 12
ENDMDL
MODEL 4
REMARK VINA RESULT:      -4.9      1.731      2.280
REMARK  Name = *****
REMARK                            x       y       z     vdW  Elec       q    Type
REMARK                         _______ _______ _______ _____ _____    ______ ____
ROOT
ATOM      1  C   UNK A  1       25.149 -18.269   3.592  0.00  0.00    +0.216 C 
ATOM      2  N   UNK A  1       26.139 -17.305   3.490  0.00  0.00    -0.302 N 
ATOM      3  H   UNK A  1       27.111 -17.554   3.668  0.00  0.00    +0.149 HD
ATOM      4  O   UNK A  1       23.963 -18.013   3.469  0.00  0.00    -0.276 OA
ENDROOT
BRANCH   1   5
ATOM      5  C   UNK A  1       25.630 -19.689   3.863  0.00  0.00    +0.129 C 
BRANCH   5   6
ATOM      6  C   UNK A  1       25.458 -20.107   5.345  0.00  0.00    +0.190 C 
BRANCH   6   9
ATOM      7  C   UNK A  0       29.043 -20.827   6.483  0.00  0.00    +0.109 C 
ATOM      8  C   UNK A  0       27.884 -20.084   5.872  0.00  0.00    +0.211 C 
ATOM      9  N   UNK A  1       26.666 -20.748   5.933  0.00  0.00    -0.302 N 
ATOM     10  H   UNK A  1       26.699 -21.761   5.964  0.00  0.00    +0.149 HD
ATOM     11  O   UNK A  0       27.997 -18.918   5.501  0.00  0.00    -0.276 OA
ENDBRANCH   6   9
BRANCH   6  12
ATOM     12  C   UNK A  1       24.331 -21.162   5.406  0.00  0.00    +0.326 C 
ATOM     13  O   UNK A  1       23.750 -21.508   6.424  0.00  0.00    -0.249 OA
BRANCH  12  14
ATOM     14  O   UNK A  1       23.923 -21.572   4.171  0.00  0.00    -0.479 OA
ATOM     15  H   UNK A  1       22.960 -21.749   4.201  0.00  0.00    +0.295 HD
ENDBRANCH  12  14
ENDBRANCH   6  12
ENDBRANCH   5   6
ENDBRANCH   1   5
BRANCH   2  16
ATOM     16  C   UNK A  1       25.843 -15.900   3.157  0.00  0.00    +0.182 C 
BRANCH  16  17
ATOM     17  C   UNK A  1       27.046 -14.938   3.088  0.00  0.00    +0.325 C 
ATOM     18  O   UNK A  1       27.930 -14.854   3.921  0.00  0.00    -0.249 OA
BRANCH  17  19
ATOM     19  O   UNK A  1       27.105 -14.190   1.967  0.00  0.00    -0.479 OA
ATOM     20  H   UNK A  1       27.844 -14.585   1.455  0.00  0.00    +0.295 HD
ENDBRANCH  17  19
ENDBRANCH  16  17
BRANCH  16  21
ATOM     21  C   UNK A  1       24.692 -15.301   4.004  0.00  0.00    +0.045 C 
BRANCH  21  22
ATOM     22  C   UNK A  1       24.710 -13.823   4.424  0.00  0.00    +0.123 C 
BRANCH  22  23
ATOM     23  C   UNK A  1       24.244 -12.812   3.404  0.00  0.00    +0.305 C 
ATOM     24  O   UNK A  1       24.333 -12.933   2.202  0.00  0.00    -0.251 OA
BRANCH  23  25
ATOM     25  O   UNK A  1       23.671 -11.726   3.991  0.00  0.00    -0.481 OA
ATOM     26  H   UNK A  1       24.047 -11.485   4.855  0.00  0.00    +0.295 HD
ENDBRANCH  23  25
ENDBRANCH  22  23
ENDBRANCH  21  22
ENDBRANCH  16  21
ENDBRANCH   2  16
TORSDOF 12
ENDMDL
MODEL 5
REMARK VINA RESULT:      -4.7      1.699      7.109
REMARK  Name = *****
REMARK                            x       y       z     vdW  Elec       q    Type
REMARK                         _______ _______ _______ _____ _____    ______ ____
ROOT
ATOM      1  C   UNK A  1       25.104 -18.483   3.721  0.00  0.00    +0.216 C 
ATOM      2  N   UNK A  1       25.950 -19.522   4.077  0.00  0.00    -0.302 N 
ATOM      3  H   UNK A  1       26.913 -19.530   3.744  0.00  0.00    +0.149 HD
ATOM      4  O   UNK A  1       23.923 -18.462   4.023  0.00  0.00    -0.276 OA
ENDROOT
BRANCH   1   5
ATOM      5  C   UNK A  1       25.742 -17.350   2.928  0.00  0.00    +0.129 C 
BRANCH   5   6
ATOM      6  C   UNK A  1       25.943 -16.066   3.772  0.00  0.00    +0.190 C 
BRANCH   6   9
ATOM      7  C   UNK A  0       23.949 -12.916   2.898  0.00  0.00    +0.109 C 
ATOM      8  C   UNK A  0       24.372 -14.147   3.655  0.00  0.00    +0.211 C 
ATOM      9  N   UNK A  1       25.452 -14.828   3.109  0.00  0.00    -0.302 N 
ATOM     10  H   UNK A  1       25.590 -14.738   2.108  0.00  0.00    +0.149 HD
ATOM     11  O   UNK A  0       23.892 -14.419   4.753  0.00  0.00    -0.276 OA
ENDBRANCH   6   9
BRANCH   6  12
ATOM     12  C   UNK A  1       27.462 -15.878   3.981  0.00  0.00    +0.326 C 
ATOM     13  O   UNK A  1       28.025 -14.799   4.090  0.00  0.00    -0.249 OA
BRANCH  12  14
ATOM     14  O   UNK A  1       28.117 -17.055   4.193  0.00  0.00    -0.479 OA
ATOM     15  H   UNK A  1       28.239 -17.506   3.332  0.00  0.00    +0.295 HD
ENDBRANCH  12  14
ENDBRANCH   6  12
ENDBRANCH   5   6
ENDBRANCH   1   5
BRANCH   2  16
ATOM     16  C   UNK A  1       25.505 -20.654   4.908  0.00  0.00    +0.182 C 
BRANCH  16  17
ATOM     17  C   UNK A  1       24.075 -21.175   4.658  0.00  0.00    +0.325 C 
ATOM     18  O   UNK A  1       23.190 -21.232   5.494  0.00  0.00    -0.249 OA
BRANCH  17  19
ATOM     19  O   UNK A  1       23.820 -21.533   3.383  0.00  0.00    -0.479 OA
ATOM     20  H   UNK A  1       24.485 -21.036   2.859  0.00  0.00    +0.295 HD
ENDBRANCH  17  19
ENDBRANCH  16  17
BRANCH  16  21
ATOM     21  C   UNK A  1       25.771 -20.445   6.419  0.00  0.00    +0.045 C 
BRANCH  21  22
ATOM     22  C   UNK A  1       27.083 -20.923   7.061  0.00  0.00    +0.123 C 
BRANCH  22  23
ATOM     23  C   UNK A  1       28.371 -20.409   6.461  0.00  0.00    +0.305 C 
ATOM     24  O   UNK A  1       28.492 -19.382   5.831  0.00  0.00    -0.251 OA
BRANCH  23  25
ATOM     25  O   UNK A  1       29.420 -21.232   6.731  0.00  0.00    -0.481 OA
ATOM     26  H   UNK A  1       30.297 -20.829   6.606  0.00  0.00    +0.295 HD
ENDBRANCH  23  25
ENDBRANCH  22  23
ENDBRANCH  21  22
ENDBRANCH  16  21
ENDBRANCH   2  16
TORSDOF 12
ENDMDL
MODEL 6
REMARK VINA RESULT:      -4.5      2.305      7.010
REMARK  Name = *****
REMARK                            x       y       z     vdW  Elec       q    Type
REMARK                         _______ _______ _______ _____ _____    ______ ____
ROOT
ATOM      1  C   UNK A  1       23.059 -16.189   4.454  0.00  0.00    +0.216 C 
ATOM      2  N   UNK A  1       23.973 -17.136   4.021  0.00  0.00    -0.302 N 
ATOM      3  H   UNK A  1       24.944 -16.871   3.862  0.00  0.00    +0.149 HD
ATOM      4  O   UNK A  1       21.872 -16.430   4.585  0.00  0.00    -0.276 OA
ENDROOT
BRANCH   1   5
ATOM      5  C   UNK A  1       23.629 -14.812   4.770  0.00  0.00    +0.129 C 
BRANCH   5   6
ATOM      6  C   UNK A  1       24.539 -14.267   3.639  0.00  0.00    +0.190 C 
BRANCH   6   9
ATOM      7  C   UNK A  0       28.334 -13.753   3.692  0.00  0.00    +0.109 C 
ATOM      8  C   UNK A  0       26.962 -14.042   3.143  0.00  0.00    +0.211 C 
ATOM      9  N   UNK A  1       25.934 -13.984   4.075  0.00  0.00    -0.302 N 
ATOM     10  H   UNK A  1       26.180 -14.182   5.039  0.00  0.00    +0.149 HD
ATOM     11  O   UNK A  0       26.768 -14.157   1.935  0.00  0.00    -0.276 OA
ENDBRANCH   6   9
BRANCH   6  12
ATOM     12  C   UNK A  1       23.946 -12.920   3.171  0.00  0.00    +0.326 C 
ATOM     13  O   UNK A  1       23.674 -11.981   3.905  0.00  0.00    -0.249 OA
BRANCH  12  14
ATOM     14  O   UNK A  1       23.895 -12.808   1.813  0.00  0.00    -0.479 OA
ATOM     15  H   UNK A  1       23.957 -13.705   1.422  0.00  0.00    +0.295 HD
ENDBRANCH  12  14
ENDBRANCH   6  12
ENDBRANCH   5   6
ENDBRANCH   1   5
BRANCH   2  16
ATOM     16  C   UNK A  1       23.593 -18.533   3.747  0.00  0.00    +0.182 C 
BRANCH  16  17
ATOM     17  C   UNK A  1       22.531 -19.156   4.675  0.00  0.00    +0.325 C 
ATOM     18  O   UNK A  1       22.712 -19.481   5.835  0.00  0.00    -0.249 OA
BRANCH  17  19
ATOM     19  O   UNK A  1       21.305 -19.279   4.126  0.00  0.00    -0.479 OA
ATOM     20  H   UNK A  1       20.986 -18.354   4.046  0.00  0.00    +0.295 HD
ENDBRANCH  17  19
ENDBRANCH  16  17
BRANCH  16  21
ATOM     21  C   UNK A  1       24.812 -19.475   3.575  0.00  0.00    +0.045 C 
BRANCH  21  22
ATOM     22  C   UNK A  1       25.085 -20.601   4.585  0.00  0.00    +0.123 C 
BRANCH  22  23
ATOM     23  C   UNK A  1       26.173 -20.362   5.605  0.00  0.00    +0.305 C 
ATOM     24  O   UNK A  1       26.028 -20.390   6.807  0.00  0.00    -0.251 OA
BRANCH  23  25
ATOM     25  O   UNK A  1       27.378 -20.131   5.017  0.00  0.00    -0.481 OA
ATOM     26  H   UNK A  1       27.377 -20.197   4.045  0.00  0.00    +0.295 HD
ENDBRANCH  23  25
ENDBRANCH  22  23
ENDBRANCH  21  22
ENDBRANCH  16  21
ENDBRANCH   2  16
TORSDOF 12
ENDMDL
MODEL 7
REMARK VINA RESULT:      -4.5      1.729      2.953
REMARK  Name = *****
REMARK                            x       y       z     vdW  Elec       q    Type
REMARK                         _______ _______ _______ _____ _____    ______ ____
ROOT
ATOM      1  C   UNK A  1       26.452 -17.796   3.677  0.00  0.00    +0.216 C 
ATOM      2  N   UNK A  1       26.916 -16.519   3.945  0.00  0.00    -0.302 N 
ATOM      3  H   UNK A  1       27.626 -16.376   4.663  0.00  0.00    +0.149 HD
ATOM      4  O   UNK A  1       25.550 -18.017   2.887  0.00  0.00    -0.276 OA
ENDROOT
BRANCH   1   5
ATOM      5  C   UNK A  1       27.145 -18.926   4.427  0.00  0.00    +0.129 C 
BRANCH   5   6
ATOM      6  C   UNK A  1       26.172 -20.065   4.827  0.00  0.00    +0.190 C 
BRANCH   6   9
ATOM      7  C   UNK A  0       22.354 -19.777   4.817  0.00  0.00    +0.109 C 
ATOM      8  C   UNK A  0       23.722 -20.335   4.529  0.00  0.00    +0.211 C 
ATOM      9  N   UNK A  1       24.776 -19.607   5.064  0.00  0.00    -0.302 N 
ATOM     10  H   UNK A  1       24.620 -18.615   5.208  0.00  0.00    +0.149 HD
ATOM     11  O   UNK A  0       23.865 -21.435   4.001  0.00  0.00    -0.276 OA
ENDBRANCH   6   9
BRANCH   6  12
ATOM     12  C   UNK A  1       26.671 -20.658   6.163  0.00  0.00    +0.326 C 
ATOM     13  O   UNK A  1       25.949 -21.093   7.048  0.00  0.00    -0.249 OA
BRANCH  12  14
ATOM     14  O   UNK A  1       28.026 -20.798   6.207  0.00  0.00    -0.479 OA
ATOM     15  H   UNK A  1       28.434 -20.078   5.681  0.00  0.00    +0.295 HD
ENDBRANCH  12  14
ENDBRANCH   6  12
ENDBRANCH   5   6
ENDBRANCH   1   5
BRANCH   2  16
ATOM     16  C   UNK A  1       26.402 -15.327   3.247  0.00  0.00    +0.182 C 
BRANCH  16  17
ATOM     17  C   UNK A  1       27.345 -14.110   3.170  0.00  0.00    +0.325 C 
ATOM     18  O   UNK A  1       28.273 -13.889   3.927  0.00  0.00    -0.249 OA
BRANCH  17  19
ATOM     19  O   UNK A  1       27.114 -13.284   2.128  0.00  0.00    -0.479 OA
ATOM     20  H   UNK A  1       26.235 -13.564   1.792  0.00  0.00    +0.295 HD
ENDBRANCH  17  19
ENDBRANCH  16  17
BRANCH  16  21
ATOM     21  C   UNK A  1       24.984 -14.912   3.713  0.00  0.00    +0.045 C 
BRANCH  21  22
ATOM     22  C   UNK A  1       24.736 -13.534   4.347  0.00  0.00    +0.123 C 
BRANCH  22  23
ATOM     23  C   UNK A  1       24.030 -12.502   3.499  0.00  0.00    +0.305 C 
ATOM     24  O   UNK A  1       23.575 -11.455   3.901  0.00  0.00    -0.251 OA
BRANCH  23  25
ATOM     25  O   UNK A  1       23.980 -12.870   2.190  0.00  0.00    -0.481 OA
ATOM     26  H   UNK A  1       23.413 -12.310   1.631  0.00  0.00    +0.295 HD
ENDBRANCH  23  25
ENDBRANCH  22  23
ENDBRANCH  21  22
ENDBRANCH  16  21
ENDBRANCH   2  16
TORSDOF 12
ENDMDL
MODEL 8
REMARK VINA RESULT:      -4.2      1.749      6.908
REMARK  Name = *****
REMARK                            x       y       z     vdW  Elec       q    Type
REMARK                         _______ _______ _______ _____ _____    ______ ____
ROOT
ATOM      1  C   UNK A  1       25.261 -16.777   3.531  0.00  0.00    +0.216 C 
ATOM      2  N   UNK A  1       24.305 -17.657   4.012  0.00  0.00    -0.302 N 
ATOM      3  H   UNK A  1       23.528 -17.308   4.572  0.00  0.00    +0.149 HD
ATOM      4  O   UNK A  1       26.252 -17.147   2.925  0.00  0.00    -0.276 OA
ENDROOT
BRANCH   1   5
ATOM      5  C   UNK A  1       24.998 -15.301   3.798  0.00  0.00    +0.129 C 
BRANCH   5   6
ATOM      6  C   UNK A  1       25.467 -14.389   2.635  0.00  0.00    +0.190 C 
BRANCH   6   9
ATOM      7  C   UNK A  0       28.846 -13.054   3.845  0.00  0.00    +0.109 C 
ATOM      8  C   UNK A  0       27.385 -13.415   3.876  0.00  0.00    +0.211 C 
ATOM      9  N   UNK A  1       26.902 -14.004   2.715  0.00  0.00    -0.302 N 
ATOM     10  H   UNK A  1       27.380 -13.770   1.851  0.00  0.00    +0.149 HD
ATOM     11  O   UNK A  0       26.729 -13.336   4.912  0.00  0.00    -0.276 OA
ENDBRANCH   6   9
BRANCH   6  12
ATOM     12  C   UNK A  1       24.657 -13.076   2.716  0.00  0.00    +0.326 C 
ATOM     13  O   UNK A  1       24.555 -12.260   1.812  0.00  0.00    -0.249 OA
BRANCH  12  14
ATOM     14  O   UNK A  1       23.920 -12.978   3.859  0.00  0.00    -0.479 OA
ATOM     15  H   UNK A  1       23.977 -13.828   4.343  0.00  0.00    +0.295 HD
ENDBRANCH  12  14
ENDBRANCH   6  12
ENDBRANCH   5   6
ENDBRANCH   1   5
BRANCH   2  16
ATOM     16  C   UNK A  1       24.375 -19.110   3.772  0.00  0.00    +0.182 C 
BRANCH  16  17
ATOM     17  C   UNK A  1       23.284 -19.974   4.435  0.00  0.00    +0.325 C 
ATOM     18  O   UNK A  1       22.431 -19.565   5.202  0.00  0.00    -0.249 OA
BRANCH  17  19
ATOM     19  O   UNK A  1       23.285 -21.269   4.058  0.00  0.00    -0.479 OA
ATOM     20  H   UNK A  1       22.496 -21.647   4.504  0.00  0.00    +0.295 HD
ENDBRANCH  17  19
ENDBRANCH  16  17
BRANCH  16  21
ATOM     21  C   UNK A  1       25.786 -19.701   4.015  0.00  0.00    +0.045 C 
BRANCH  21  22
ATOM     22  C   UNK A  1       26.265 -20.036   5.437  0.00  0.00    +0.123 C 
BRANCH  22  23
ATOM     23  C   UNK A  1       27.755 -20.015   5.684  0.00  0.00    +0.305 C 
ATOM     24  O   UNK A  1       28.371 -20.825   6.339  0.00  0.00    -0.251 OA
BRANCH  23  25
ATOM     25  O   UNK A  1       28.359 -18.971   5.052  0.00  0.00    -0.481 OA
ATOM     26  H   UNK A  1       28.809 -18.342   5.644  0.00  0.00    +0.295 HD
ENDBRANCH  23  25
ENDBRANCH  22  23
ENDBRANCH  21  22
ENDBRANCH  16  21
ENDBRANCH   2  16
TORSDOF 12
ENDMDL
MODEL 9
REMARK VINA RESULT:      -4.1      1.830      7.167
REMARK  Name = *****
REMARK                            x       y       z     vdW  Elec       q    Type
REMARK                         _______ _______ _______ _____ _____    ______ ____
ROOT
ATOM      1  C   UNK A  1       25.005 -17.244   3.642  0.00  0.00    +0.216 C 
ATOM      2  N   UNK A  1       25.332 -18.579   3.462  0.00  0.00    -0.302 N 
ATOM      3  H   UNK A  1       26.236 -18.833   3.067  0.00  0.00    +0.149 HD
ATOM      4  O   UNK A  1       23.910 -16.880   4.035  0.00  0.00    -0.276 OA
ENDROOT
BRANCH   1   5
ATOM      5  C   UNK A  1       26.107 -16.242   3.323  0.00  0.00    +0.129 C 
BRANCH   5   6
ATOM      6  C   UNK A  1       25.782 -14.813   3.826  0.00  0.00    +0.190 C 
BRANCH   6   9
ATOM      7  C   UNK A  0       24.296 -11.914   1.812  0.00  0.00    +0.109 C 
ATOM      8  C   UNK A  0       24.563 -12.819   2.986  0.00  0.00    +0.211 C 
ATOM      9  N   UNK A  1       25.457 -13.852   2.737  0.00  0.00    -0.302 N 
ATOM     10  H   UNK A  1       25.520 -14.181   1.779  0.00  0.00    +0.149 HD
ATOM     11  O   UNK A  0       24.141 -12.551   4.108  0.00  0.00    -0.276 OA
ENDBRANCH   6   9
BRANCH   6  12
ATOM     12  C   UNK A  1       27.043 -14.266   4.530  0.00  0.00    +0.326 C 
ATOM     13  O   UNK A  1       28.185 -14.384   4.111  0.00  0.00    -0.249 OA
BRANCH  12  14
ATOM     14  O   UNK A  1       26.751 -13.486   5.609  0.00  0.00    -0.479 OA
ATOM     15  H   UNK A  1       26.584 -12.571   5.300  0.00  0.00    +0.295 HD
ENDBRANCH  12  14
ENDBRANCH   6  12
ENDBRANCH   5   6
ENDBRANCH   1   5
BRANCH   2  16
ATOM     16  C   UNK A  1       24.402 -19.672   3.797  0.00  0.00    +0.182 C 
BRANCH  16  17
ATOM     17  C   UNK A  1       23.027 -19.262   4.362  0.00  0.00    +0.325 C 
ATOM     18  O   UNK A  1       22.701 -19.321   5.534  0.00  0.00    -0.249 OA
BRANCH  17  19
ATOM     19  O   UNK A  1       22.173 -18.752   3.451  0.00  0.00    -0.479 OA
ATOM     20  H   UNK A  1       22.726 -18.625   2.650  0.00  0.00    +0.295 HD
ENDBRANCH  17  19
ENDBRANCH  16  17
BRANCH  16  21
ATOM     21  C   UNK A  1       25.053 -20.786   4.654  0.00  0.00    +0.045 C 
BRANCH  21  22
ATOM     22  C   UNK A  1       25.756 -20.451   5.979  0.00  0.00    +0.123 C 
BRANCH  22  23
ATOM     23  C   UNK A  1       27.266 -20.422   5.969  0.00  0.00    +0.305 C 
ATOM     24  O   UNK A  1       27.986 -21.008   6.746  0.00  0.00    -0.251 OA
BRANCH  23  25
ATOM     25  O   UNK A  1       27.752 -19.666   4.946  0.00  0.00    -0.481 OA
ATOM     26  H   UNK A  1       27.461 -18.737   4.953  0.00  0.00    +0.295 HD
ENDBRANCH  23  25
ENDBRANCH  22  23
ENDBRANCH  21  22
ENDBRANCH  16  21
ENDBRANCH   2  16
TORSDOF 12
ENDMDL
