MODEL 1
REMARK VINA RESULT:      11.3      0.000      0.000
REMARK  Name = *****
REMARK                            x       y       z     vdW  Elec       q    Type
REMARK                         _______ _______ _______ _____ _____    ______ ____
ROOT
ATOM      1  C   LIG    1       26.683 -17.173   3.459  0.00  0.00    +0.077 C 
ENDROOT
BRANCH   1   2
ATOM      2  C   LIG    1       25.704 -18.335   3.466  0.00  0.00    -0.034 A 
ATOM      3  C   LIG    1       24.357 -18.134   3.784  0.00  0.00    +0.012 A 
ATOM      4  C   LIG    1       23.410 -19.166   3.653  0.00  0.00    -0.025 A 
ATOM      5  C   LIG    1       23.846 -20.426   3.237  0.00  0.00    +0.008 A 
ATOM      6  C   LIG    1       25.198 -20.668   2.990  0.00  0.00    +0.001 A 
ATOM      7  C   LIG    1       26.124 -19.632   3.106  0.00  0.00    +0.005 A 
BRANCH   4   8
ATOM      8  C   LIG    1       21.988 -18.822   3.797  0.00  0.00    +0.010 C 
ATOM      9  C   LIG    1       21.363 -17.692   4.173  0.00  0.00    +0.028 C 
BRANCH   9  10
ATOM     10  C   LIG    1       21.859 -16.366   4.561  0.00  0.00    +0.065 A 
ATOM     11  N   LIG    1       22.412 -15.639   3.561  0.00  0.00    -0.247 NA
ATOM     12  C   LIG    1       23.031 -14.480   3.867  0.00  0.00    +0.073 A 
ATOM     13  C   LIG    1       23.168 -14.019   5.193  0.00  0.00    +0.001 A 
ATOM     14  C   LIG    1       23.833 -12.805   5.465  0.00  0.00    +0.011 A 
ATOM     15  C   LIG    1       24.331 -12.030   4.421  0.00  0.00    +0.021 A 
ATOM     16  C   LIG    1       24.183 -12.480   3.114  0.00  0.00    +0.043 A 
ATOM     17 CL   LIG    1       24.769 -11.518   1.812  0.00  0.00    -0.084 Cl
ATOM     18  C   LIG    1       22.609 -14.803   6.210  0.00  0.00    +0.012 A 
ATOM     19  C   LIG    1       23.555 -13.698   2.847  0.00  0.00    +0.048 A 
ATOM     20  C   LIG    1       21.930 -15.980   5.891  0.00  0.00    +0.028 A 
ENDBRANCH   9  10
ENDBRANCH   4   8
ENDBRANCH   1   2
BRANCH   1  21
ATOM     21  C   LIG    1       26.054 -15.719   3.342  0.00  0.00    +0.023 C 
BRANCH  21  22
ATOM     22  C   LIG    1       26.808 -14.599   2.571  0.00  0.00    +0.037 C 
BRANCH  22  24
ATOM     23  C   LIG    1       27.754 -13.350   4.817  0.00  0.00    -0.013 A 
ATOM     24  C   LIG    1       27.621 -13.556   3.398  0.00  0.00    -0.041 A 
ATOM     25  C   LIG    1       28.322 -12.633   2.566  0.00  0.00    +0.004 A 
ATOM     26  C   LIG    1       29.203 -11.662   3.056  0.00  0.00    +0.000 A 
ATOM     27  C   LIG    1       29.475 -11.606   4.400  0.00  0.00    +0.000 A 
ATOM     28  C   LIG    1       28.769 -12.440   5.247  0.00  0.00    +0.007 A 
BRANCH  23  30
ATOM     29  C   LIG    1       26.221 -12.809   6.880  0.00  0.00    +0.046 C 
ATOM     30  C   LIG    1       26.964 -13.927   6.028  0.00  0.00    +0.086 C 
ATOM     31  C   LIG    1       27.921 -14.736   6.909  0.00  0.00    +0.046 C 
BRANCH  30  32
ATOM     32  O   LIG    1       25.910 -14.802   5.624  0.00  0.00    -0.385 OA
ATOM     33  H   LIG    1       25.107 -14.483   6.080  0.00  0.00    +0.211 HD
ENDBRANCH  30  32
ENDBRANCH  23  30
ENDBRANCH  22  24
ENDBRANCH  21  22
ENDBRANCH   1  21
BRANCH   1  34
ATOM     34  S   LIG    1       28.209 -17.495   4.519  0.00  0.00    -0.152 S 
BRANCH  34  35
ATOM     35  C   LIG    1       27.629 -18.352   6.098  0.00  0.00    +0.077 C 
BRANCH  35  36
ATOM     36  C   LIG    1       28.003 -19.832   6.279  0.00  0.00    -0.010 C 
ATOM     37  C   LIG    1       28.854 -20.584   5.293  0.00  0.00    +0.009 C 
ATOM     38  C   LIG    1       29.475 -20.091   6.557  0.00  0.00    +0.009 C 
BRANCH  36  39
ATOM     39  C   LIG    1       27.030 -20.774   7.039  0.00  0.00    +0.128 C 
BRANCH  39  40
ATOM     40  C   LIG    1       25.537 -20.743   6.707  0.00  0.00    +0.305 C 
ATOM     41  O   LIG    1       24.768 -21.570   7.062  0.00  0.00    -0.251 OA
BRANCH  40  42
ATOM     42  O   LIG    1       25.154 -19.689   5.933  0.00  0.00    -0.481 OA
ATOM     43  H   LIG    1       24.945 -18.878   6.404  0.00  0.00    +0.295 HD
ENDBRANCH  40  42
ENDBRANCH  39  40
ENDBRANCH  36  39
ENDBRANCH  35  36
ENDBRANCH  34  35
ENDBRANCH   1  34
TORSDOF 14
ENDMDL
