MODEL 1
REMARK VINA RESULT:      -4.7      0.000      0.000
REMARK  Name = *****
REMARK                            x       y       z     vdW  Elec       q    Type
REMARK                         _______ _______ _______ _____ _____    ______ ____
ROOT
ATOM      1  C   LIG    1       26.643 -15.183   4.176  0.00  0.00    +0.211 C 
ENDROOT
BRANCH   1   2
ATOM      2  C   LIG    1       25.694 -14.277   3.401  0.00  0.00    +0.030 A 
ATOM      3  S   LIG    1       24.056 -14.116   3.891  0.00  0.00    -0.098 S 
ATOM      4  C   LIG    1       23.699 -13.051   2.602  0.00  0.00    +0.045 A 
ATOM      5  C   LIG    1       24.799 -12.808   1.812  0.00  0.00    +0.008 A 
ATOM      6  C   LIG    1       25.951 -13.506   2.279  0.00  0.00    +0.015 A 
ENDBRANCH   1   2
BRANCH   1   7
ATOM      7  C   LIG    1       27.954 -14.425   4.485  0.00  0.00    +0.065 C 
BRANCH   7   8
ATOM      8  C   LIG    1       27.806 -13.325   5.545  0.00  0.00    +0.084 C 
BRANCH   8  10
ATOM      9  C   LIG    1       29.175 -12.260   3.865  0.00  0.00    +0.101 C 
ATOM     10  N   LIG    1       28.723 -12.213   5.253  0.00  0.00    -0.319 NA
ATOM     11  H   LIG    1       28.232 -11.332   5.406  0.00  0.00    +0.122 HD
ENDBRANCH   8  10
ENDBRANCH   7   8
ENDBRANCH   1   7
BRANCH   1  12
ATOM     12  O   LIG    1       26.873 -16.299   3.306  0.00  0.00    -0.483 OA
BRANCH  12  13
ATOM     13  C   LIG    1       26.435 -17.553   3.661  0.00  0.00    +0.129 A 
ATOM     14  C   LIG    1       27.310 -18.301   4.488  0.00  0.00    +0.024 A 
ATOM     15  C   LIG    1       26.891 -19.573   4.956  0.00  0.00    -0.014 A 
ATOM     16  C   LIG    1       27.723 -20.310   5.814  0.00  0.00    +0.008 A 
ATOM     17  C   LIG    1       28.968 -19.821   6.203  0.00  0.00    +0.001 A 
ATOM     18  C   LIG    1       29.402 -18.587   5.733  0.00  0.00    +0.001 A 
ATOM     19  C   LIG    1       25.647 -20.081   4.556  0.00  0.00    +0.009 A 
ATOM     20  C   LIG    1       24.828 -19.361   3.694  0.00  0.00    +0.004 A 
ATOM     21  C   LIG    1       28.580 -17.837   4.890  0.00  0.00    +0.012 A 
ATOM     22  C   LIG    1       25.220 -18.098   3.243  0.00  0.00    +0.046 A 
ENDBRANCH  12  13
ENDBRANCH   1  12
TORSDOF 6
ENDMDL
MODEL 2
REMARK VINA RESULT:      -4.7      2.196      3.004
REMARK  Name = *****
REMARK                            x       y       z     vdW  Elec       q    Type
REMARK                         _______ _______ _______ _____ _____    ______ ____
ROOT
ATOM      1  C   LIG    1       25.875 -14.829   4.058  0.00  0.00    +0.211 C 
ENDROOT
BRANCH   1   2
ATOM      2  C   LIG    1       25.194 -13.632   3.404  0.00  0.00    +0.030 A 
ATOM      3  S   LIG    1       24.352 -12.483   4.363  0.00  0.00    -0.098 S 
ATOM      4  C   LIG    1       23.896 -11.567   2.993  0.00  0.00    +0.045 A 
ATOM      5  C   LIG    1       24.377 -12.109   1.824  0.00  0.00    +0.008 A 
ATOM      6  C   LIG    1       25.135 -13.293   2.061  0.00  0.00    +0.015 A 
ENDBRANCH   1   2
BRANCH   1   7
ATOM      7  C   LIG    1       27.406 -14.724   3.874  0.00  0.00    +0.065 C 
BRANCH   7   8
ATOM      8  C   LIG    1       27.859 -13.493   3.078  0.00  0.00    +0.084 C 
BRANCH   8  10
ATOM      9  C   LIG    1       28.738 -12.212   4.927  0.00  0.00    +0.101 C 
ATOM     10  N   LIG    1       29.065 -12.912   3.687  0.00  0.00    -0.319 NA
ATOM     11  H   LIG    1       29.722 -13.662   3.901  0.00  0.00    +0.122 HD
ENDBRANCH   8  10
ENDBRANCH   7   8
ENDBRANCH   1   7
BRANCH   1  12
ATOM     12  O   LIG    1       25.339 -15.970   3.376  0.00  0.00    -0.483 OA
BRANCH  12  13
ATOM     13  C   LIG    1       24.198 -16.579   3.842  0.00  0.00    +0.129 A 
ATOM     14  C   LIG    1       24.215 -17.996   3.850  0.00  0.00    +0.024 A 
ATOM     15  C   LIG    1       23.101 -18.692   4.387  0.00  0.00    -0.014 A 
ATOM     16  C   LIG    1       23.117 -20.095   4.448  0.00  0.00    +0.008 A 
ATOM     17  C   LIG    1       24.205 -20.823   3.971  0.00  0.00    +0.001 A 
ATOM     18  C   LIG    1       25.292 -20.155   3.420  0.00  0.00    +0.001 A 
ATOM     19  C   LIG    1       21.994 -17.969   4.854  0.00  0.00    +0.009 A 
ATOM     20  C   LIG    1       21.968 -16.581   4.781  0.00  0.00    +0.004 A 
ATOM     21  C   LIG    1       25.296 -18.761   3.365  0.00  0.00    +0.012 A 
ATOM     22  C   LIG    1       23.068 -15.884   4.273  0.00  0.00    +0.046 A 
ENDBRANCH  12  13
ENDBRANCH   1  12
TORSDOF 6
ENDMDL
MODEL 3
REMARK VINA RESULT:      -4.6      3.276      6.720
REMARK  Name = *****
REMARK                            x       y       z     vdW  Elec       q    Type
REMARK                         _______ _______ _______ _____ _____    ______ ____
ROOT
ATOM      1  C   LIG    1       25.144 -19.336   4.193  0.00  0.00    +0.211 C 
ENDROOT
BRANCH   1   2
ATOM      2  C   LIG    1       26.405 -19.627   4.998  0.00  0.00    +0.030 A 
ATOM      3  S   LIG    1       26.363 -20.740   6.305  0.00  0.00    -0.098 S 
ATOM      4  C   LIG    1       28.016 -20.492   6.664  0.00  0.00    +0.045 A 
ATOM      5  C   LIG    1       28.602 -19.589   5.807  0.00  0.00    +0.008 A 
ATOM      6  C   LIG    1       27.677 -19.099   4.840  0.00  0.00    +0.015 A 
ENDBRANCH   1   2
BRANCH   1   7
ATOM      7  C   LIG    1       24.866 -20.502   3.217  0.00  0.00    +0.065 C 
BRANCH   7   8
ATOM      8  C   LIG    1       23.862 -21.535   3.744  0.00  0.00    +0.084 C 
BRANCH   8  10
ATOM      9  C   LIG    1       22.752 -21.571   5.888  0.00  0.00    +0.101 C 
ATOM     10  N   LIG    1       22.867 -20.881   4.606  0.00  0.00    -0.319 NA
ATOM     11  H   LIG    1       23.162 -19.919   4.780  0.00  0.00    +0.122 HD
ENDBRANCH   8  10
ENDBRANCH   7   8
ENDBRANCH   1   7
BRANCH   1  12
ATOM     12  O   LIG    1       25.431 -18.119   3.493  0.00  0.00    -0.483 OA
BRANCH  12  13
ATOM     13  C   LIG    1       24.735 -16.971   3.791  0.00  0.00    +0.129 A 
ATOM     14  C   LIG    1       25.468 -15.762   3.688  0.00  0.00    +0.024 A 
ATOM     15  C   LIG    1       24.795 -14.532   3.906  0.00  0.00    -0.014 A 
ATOM     16  C   LIG    1       25.491 -13.320   3.763  0.00  0.00    +0.008 A 
ATOM     17  C   LIG    1       26.843 -13.303   3.427  0.00  0.00    +0.001 A 
ATOM     18  C   LIG    1       27.521 -14.502   3.235  0.00  0.00    +0.001 A 
ATOM     19  C   LIG    1       23.439 -14.539   4.262  0.00  0.00    +0.009 A 
ATOM     20  C   LIG    1       22.751 -15.737   4.419  0.00  0.00    +0.004 A 
ATOM     21  C   LIG    1       26.839 -15.713   3.359  0.00  0.00    +0.012 A 
ATOM     22  C   LIG    1       23.397 -16.954   4.186  0.00  0.00    +0.046 A 
ENDBRANCH  12  13
ENDBRANCH   1  12
TORSDOF 6
ENDMDL
MODEL 4
REMARK VINA RESULT:      -4.5      1.595      2.715
REMARK  Name = *****
REMARK                            x       y       z     vdW  Elec       q    Type
REMARK                         _______ _______ _______ _____ _____    ______ ____
ROOT
ATOM      1  C   LIG    1       26.134 -15.245   3.247  0.00  0.00    +0.211 C 
ENDROOT
BRANCH   1   2
ATOM      2  C   LIG    1       27.090 -14.200   3.810  0.00  0.00    +0.030 A 
ATOM      3  S   LIG    1       26.878 -13.602   5.406  0.00  0.00    -0.098 S 
ATOM      4  C   LIG    1       28.215 -12.545   5.265  0.00  0.00    +0.045 A 
ATOM      5  C   LIG    1       28.825 -12.643   4.036  0.00  0.00    +0.008 A 
ATOM      6  C   LIG    1       28.184 -13.605   3.201  0.00  0.00    +0.015 A 
ENDBRANCH   1   2
BRANCH   1   7
ATOM      7  C   LIG    1       24.950 -15.449   4.218  0.00  0.00    +0.065 C 
BRANCH   7   8
ATOM      8  C   LIG    1       23.814 -14.434   4.043  0.00  0.00    +0.084 C 
BRANCH   8  10
ATOM      9  C   LIG    1       23.963 -12.157   3.252  0.00  0.00    +0.101 C 
ATOM     10  N   LIG    1       24.083 -13.566   2.887  0.00  0.00    -0.319 NA
ATOM     11  H   LIG    1       25.034 -13.737   2.560  0.00  0.00    +0.122 HD
ENDBRANCH   8  10
ENDBRANCH   7   8
ENDBRANCH   1   7
BRANCH   1  12
ATOM     12  O   LIG    1       26.926 -16.434   3.123  0.00  0.00    -0.483 OA
BRANCH  12  13
ATOM     13  C   LIG    1       26.441 -17.637   3.578  0.00  0.00    +0.129 A 
ATOM     14  C   LIG    1       27.282 -18.341   4.477  0.00  0.00    +0.024 A 
ATOM     15  C   LIG    1       26.814 -19.554   5.046  0.00  0.00    -0.014 A 
ATOM     16  C   LIG    1       27.611 -20.243   5.974  0.00  0.00    +0.008 A 
ATOM     17  C   LIG    1       28.869 -19.765   6.335  0.00  0.00    +0.001 A 
ATOM     18  C   LIG    1       29.350 -18.591   5.767  0.00  0.00    +0.001 A 
ATOM     19  C   LIG    1       25.557 -20.051   4.675  0.00  0.00    +0.009 A 
ATOM     20  C   LIG    1       24.771 -19.380   3.745  0.00  0.00    +0.004 A 
ATOM     21  C   LIG    1       28.562 -17.889   4.854  0.00  0.00    +0.012 A 
ATOM     22  C   LIG    1       25.212 -18.174   3.193  0.00  0.00    +0.046 A 
ENDBRANCH  12  13
ENDBRANCH   1  12
TORSDOF 6
ENDMDL
MODEL 5
REMARK VINA RESULT:      -4.4      1.578      3.234
REMARK  Name = *****
REMARK                            x       y       z     vdW  Elec       q    Type
REMARK                         _______ _______ _______ _____ _____    ______ ____
ROOT
ATOM      1  C   LIG    1       25.737 -15.293   3.877  0.00  0.00    +0.211 C 
ENDROOT
BRANCH   1   2
ATOM      2  C   LIG    1       25.120 -14.027   3.293  0.00  0.00    +0.030 A 
ATOM      3  S   LIG    1       24.214 -12.964   4.292  0.00  0.00    -0.098 S 
ATOM      4  C   LIG    1       23.877 -11.911   2.987  0.00  0.00    +0.045 A 
ATOM      5  C   LIG    1       24.445 -12.344   1.812  0.00  0.00    +0.008 A 
ATOM      6  C   LIG    1       25.171 -13.558   1.990  0.00  0.00    +0.015 A 
ENDBRANCH   1   2
BRANCH   1   7
ATOM      7  C   LIG    1       27.267 -15.278   3.660  0.00  0.00    +0.065 C 
BRANCH   7   8
ATOM      8  C   LIG    1       27.996 -14.160   4.417  0.00  0.00    +0.084 C 
BRANCH   8  10
ATOM      9  C   LIG    1       29.149 -12.055   4.160  0.00  0.00    +0.101 C 
ATOM     10  N   LIG    1       28.609 -13.221   3.467  0.00  0.00    -0.319 NA
ATOM     11  H   LIG    1       29.373 -13.694   2.982  0.00  0.00    +0.122 HD
ENDBRANCH   8  10
ENDBRANCH   7   8
ENDBRANCH   1   7
BRANCH   1  12
ATOM     12  O   LIG    1       25.113 -16.366   3.159  0.00  0.00    -0.483 OA
BRANCH  12  13
ATOM     13  C   LIG    1       25.256 -17.663   3.593  0.00  0.00    +0.129 A 
ATOM     14  C   LIG    1       24.056 -18.334   3.936  0.00  0.00    +0.024 A 
ATOM     15  C   LIG    1       24.120 -19.699   4.320  0.00  0.00    -0.014 A 
ATOM     16  C   LIG    1       22.937 -20.396   4.619  0.00  0.00    +0.008 A 
ATOM     17  C   LIG    1       21.697 -19.765   4.562  0.00  0.00    +0.001 A 
ATOM     18  C   LIG    1       21.622 -18.422   4.211  0.00  0.00    +0.001 A 
ATOM     19  C   LIG    1       25.365 -20.338   4.397  0.00  0.00    +0.009 A 
ATOM     20  C   LIG    1       26.539 -19.647   4.117  0.00  0.00    +0.004 A 
ATOM     21  C   LIG    1       22.787 -17.720   3.898  0.00  0.00    +0.012 A 
ATOM     22  C   LIG    1       26.487 -18.308   3.718  0.00  0.00    +0.046 A 
ENDBRANCH  12  13
ENDBRANCH   1  12
TORSDOF 6
ENDMDL
MODEL 6
REMARK VINA RESULT:      -4.3      2.192      3.346
REMARK  Name = *****
REMARK                            x       y       z     vdW  Elec       q    Type
REMARK                         _______ _______ _______ _____ _____    ______ ____
ROOT
ATOM      1  C   LIG    1       26.059 -16.637   3.991  0.00  0.00    +0.211 C 
ENDROOT
BRANCH   1   2
ATOM      2  C   LIG    1       25.528 -15.276   3.557  0.00  0.00    +0.030 A 
ATOM      3  S   LIG    1       26.461 -14.270   2.523  0.00  0.00    -0.098 S 
ATOM      4  C   LIG    1       25.281 -13.032   2.543  0.00  0.00    +0.045 A 
ATOM      5  C   LIG    1       24.191 -13.370   3.311  0.00  0.00    +0.008 A 
ATOM      6  C   LIG    1       24.327 -14.666   3.886  0.00  0.00    +0.015 A 
ENDBRANCH   1   2
BRANCH   1   7
ATOM      7  C   LIG    1       27.572 -16.729   3.688  0.00  0.00    +0.065 C 
BRANCH   7   8
ATOM      8  C   LIG    1       28.452 -16.887   4.934  0.00  0.00    +0.084 C 
BRANCH   8  10
ATOM      9  C   LIG    1       29.294 -18.787   6.165  0.00  0.00    +0.101 C 
ATOM     10  N   LIG    1       29.219 -18.139   4.858  0.00  0.00    -0.319 NA
ATOM     11  H   LIG    1       28.753 -18.773   4.207  0.00  0.00    +0.122 HD
ENDBRANCH   8  10
ENDBRANCH   7   8
ENDBRANCH   1   7
BRANCH   1  12
ATOM     12  O   LIG    1       25.308 -17.583   3.219  0.00  0.00    -0.483 OA
BRANCH  12  13
ATOM     13  C   LIG    1       24.286 -18.294   3.803  0.00  0.00    +0.129 A 
ATOM     14  C   LIG    1       24.680 -19.399   4.599  0.00  0.00    +0.024 A 
ATOM     15  C   LIG    1       23.684 -20.134   5.293  0.00  0.00    -0.014 A 
ATOM     16  C   LIG    1       24.057 -21.203   6.124  0.00  0.00    +0.008 A 
ATOM     17  C   LIG    1       25.393 -21.571   6.266  0.00  0.00    +0.001 A 
ATOM     18  C   LIG    1       26.377 -20.876   5.572  0.00  0.00    +0.001 A 
ATOM     19  C   LIG    1       22.335 -19.782   5.142  0.00  0.00    +0.009 A 
ATOM     20  C   LIG    1       21.961 -18.734   4.309  0.00  0.00    +0.004 A 
ATOM     21  C   LIG    1       26.022 -19.802   4.754  0.00  0.00    +0.012 A 
ATOM     22  C   LIG    1       22.935 -17.990   3.636  0.00  0.00    +0.046 A 
ENDBRANCH  12  13
ENDBRANCH   1  12
TORSDOF 6
ENDMDL
MODEL 7
REMARK VINA RESULT:      -4.2      1.828      2.900
REMARK  Name = *****
REMARK                            x       y       z     vdW  Elec       q    Type
REMARK                         _______ _______ _______ _____ _____    ______ ____
ROOT
ATOM      1  C   LIG    1       25.429 -16.252   3.087  0.00  0.00    +0.211 C 
ENDROOT
BRANCH   1   2
ATOM      2  C   LIG    1       26.487 -15.177   3.312  0.00  0.00    +0.030 A 
ATOM      3  S   LIG    1       26.577 -13.818   2.266  0.00  0.00    -0.098 S 
ATOM      4  C   LIG    1       27.921 -13.173   3.104  0.00  0.00    +0.045 A 
ATOM      5  C   LIG    1       28.297 -13.963   4.166  0.00  0.00    +0.008 A 
ATOM      6  C   LIG    1       27.464 -15.112   4.292  0.00  0.00    +0.015 A 
ENDBRANCH   1   2
BRANCH   1   7
ATOM      7  C   LIG    1       24.309 -16.112   4.142  0.00  0.00    +0.065 C 
BRANCH   7   8
ATOM      8  C   LIG    1       23.506 -14.809   4.035  0.00  0.00    +0.084 C 
BRANCH   8  10
ATOM      9  C   LIG    1       24.032 -12.475   4.365  0.00  0.00    +0.101 C 
ATOM     10  N   LIG    1       24.043 -13.806   4.967  0.00  0.00    -0.319 NA
ATOM     11  H   LIG    1       23.461 -13.788   5.805  0.00  0.00    +0.122 HD
ENDBRANCH   8  10
ENDBRANCH   7   8
ENDBRANCH   1   7
BRANCH   1  12
ATOM     12  O   LIG    1       26.134 -17.492   3.228  0.00  0.00    -0.483 OA
BRANCH  12  13
ATOM     13  C   LIG    1       25.505 -18.586   3.771  0.00  0.00    +0.129 A 
ATOM     14  C   LIG    1       26.265 -19.333   4.707  0.00  0.00    +0.024 A 
ATOM     15  C   LIG    1       25.654 -20.431   5.365  0.00  0.00    -0.014 A 
ATOM     16  C   LIG    1       26.373 -21.155   6.330  0.00  0.00    +0.008 A 
ATOM     17  C   LIG    1       27.690 -20.824   6.642  0.00  0.00    +0.001 A 
ATOM     18  C   LIG    1       28.309 -19.766   5.987  0.00  0.00    +0.001 A 
ATOM     19  C   LIG    1       24.335 -20.782   5.045  0.00  0.00    +0.009 A 
ATOM     20  C   LIG    1       23.625 -20.077   4.080  0.00  0.00    +0.004 A 
ATOM     21  C   LIG    1       27.602 -19.029   5.036  0.00  0.00    +0.012 A 
ATOM     22  C   LIG    1       24.209 -18.981   3.439  0.00  0.00    +0.046 A 
ENDBRANCH  12  13
ENDBRANCH   1  12
TORSDOF 6
ENDMDL
MODEL 8
REMARK VINA RESULT:      -4.1      2.581      4.093
REMARK  Name = *****
REMARK                            x       y       z     vdW  Elec       q    Type
REMARK                         _______ _______ _______ _____ _____    ______ ____
ROOT
ATOM      1  C   LIG    1       25.894 -14.572   2.818  0.00  0.00    +0.211 C 
ENDROOT
BRANCH   1   2
ATOM      2  C   LIG    1       26.987 -13.809   3.558  0.00  0.00    +0.030 A 
ATOM      3  S   LIG    1       26.833 -13.483   5.237  0.00  0.00    -0.098 S 
ATOM      4  C   LIG    1       28.321 -12.641   5.284  0.00  0.00    +0.045 A 
ATOM      5  C   LIG    1       28.936 -12.610   4.054  0.00  0.00    +0.008 A 
ATOM      6  C   LIG    1       28.174 -13.292   3.062  0.00  0.00    +0.015 A 
ENDBRANCH   1   2
BRANCH   1   7
ATOM      7  C   LIG    1       24.578 -13.762   2.850  0.00  0.00    +0.065 C 
BRANCH   7   8
ATOM      8  C   LIG    1       24.604 -12.492   1.990  0.00  0.00    +0.084 C 
BRANCH   8  10
ATOM      9  C   LIG    1       23.729 -11.573   4.045  0.00  0.00    +0.101 C 
ATOM     10  N   LIG    1       23.747 -11.458   2.589  0.00  0.00    -0.319 NA
ATOM     11  H   LIG    1       24.113 -10.539   2.339  0.00  0.00    +0.122 HD
ENDBRANCH   8  10
ENDBRANCH   7   8
ENDBRANCH   1   7
BRANCH   1  12
ATOM     12  O   LIG    1       25.769 -15.810   3.530  0.00  0.00    -0.483 OA
BRANCH  12  13
ATOM     13  C   LIG    1       24.530 -16.262   3.917  0.00  0.00    +0.129 A 
ATOM     14  C   LIG    1       24.340 -17.665   3.861  0.00  0.00    +0.024 A 
ATOM     15  C   LIG    1       23.112 -18.209   4.318  0.00  0.00    -0.014 A 
ATOM     16  C   LIG    1       22.921 -19.601   4.315  0.00  0.00    +0.008 A 
ATOM     17  C   LIG    1       23.913 -20.462   3.853  0.00  0.00    +0.001 A 
ATOM     18  C   LIG    1       25.112 -19.941   3.379  0.00  0.00    +0.001 A 
ATOM     19  C   LIG    1       22.100 -17.350   4.769  0.00  0.00    +0.009 A 
ATOM     20  C   LIG    1       22.280 -15.971   4.759  0.00  0.00    +0.004 A 
ATOM     21  C   LIG    1       25.321 -18.561   3.389  0.00  0.00    +0.012 A 
ATOM     22  C   LIG    1       23.493 -15.425   4.331  0.00  0.00    +0.046 A 
ENDBRANCH  12  13
ENDBRANCH   1  12
TORSDOF 6
ENDMDL
MODEL 9
REMARK VINA RESULT:      -3.8      3.011      5.985
REMARK  Name = *****
REMARK                            x       y       z     vdW  Elec       q    Type
REMARK                         _______ _______ _______ _____ _____    ______ ____
ROOT
ATOM      1  C   LIG    1       25.880 -20.071   4.262  0.00  0.00    +0.211 C 
ENDROOT
BRANCH   1   2
ATOM      2  C   LIG    1       24.756 -20.570   5.162  0.00  0.00    +0.030 A 
ATOM      3  S   LIG    1       23.411 -21.400   4.489  0.00  0.00    -0.098 S 
ATOM      4  C   LIG    1       22.661 -21.571   6.017  0.00  0.00    +0.045 A 
ATOM      5  C   LIG    1       23.414 -21.019   7.027  0.00  0.00    +0.008 A 
ATOM      6  C   LIG    1       24.626 -20.452   6.537  0.00  0.00    +0.015 A 
ENDBRANCH   1   2
BRANCH   1   7
ATOM      7  C   LIG    1       26.924 -19.304   5.105  0.00  0.00    +0.065 C 
BRANCH   7   8
ATOM      8  C   LIG    1       27.870 -20.209   5.906  0.00  0.00    +0.084 C 
BRANCH   8  10
ATOM      9  C   LIG    1       29.190 -18.243   5.431  0.00  0.00    +0.101 C 
ATOM     10  N   LIG    1       29.166 -19.543   6.097  0.00  0.00    -0.319 NA
ATOM     11  H   LIG    1       29.321 -19.400   7.095  0.00  0.00    +0.122 HD
ENDBRANCH   8  10
ENDBRANCH   7   8
ENDBRANCH   1   7
BRANCH   1  12
ATOM     12  O   LIG    1       25.234 -19.212   3.313  0.00  0.00    -0.483 OA
BRANCH  12  13
ATOM     13  C   LIG    1       24.388 -18.218   3.745  0.00  0.00    +0.129 A 
ATOM     14  C   LIG    1       24.922 -16.905   3.731  0.00  0.00    +0.024 A 
ATOM     15  C   LIG    1       24.081 -15.820   4.091  0.00  0.00    -0.014 A 
ATOM     16  C   LIG    1       24.576 -14.507   4.038  0.00  0.00    +0.008 A 
ATOM     17  C   LIG    1       25.889 -14.248   3.653  0.00  0.00    +0.001 A 
ATOM     18  C   LIG    1       26.731 -15.304   3.321  0.00  0.00    +0.001 A 
ATOM     19  C   LIG    1       22.763 -16.072   4.497  0.00  0.00    +0.009 A 
ATOM     20  C   LIG    1       22.275 -17.372   4.565  0.00  0.00    +0.004 A 
ATOM     21  C   LIG    1       26.249 -16.613   3.356  0.00  0.00    +0.012 A 
ATOM     22  C   LIG    1       23.086 -18.447   4.192  0.00  0.00    +0.046 A 
ENDBRANCH  12  13
ENDBRANCH   1  12
TORSDOF 6
ENDMDL
