MODEL 1
REMARK VINA RESULT:      -4.4      0.000      0.000
REMARK  Name = *****
REMARK                            x       y       z     vdW  Elec       q    Type
REMARK                         _______ _______ _______ _____ _____    ______ ____
ROOT
ATOM      1  C   LIG    1       25.729 -18.688   4.491  0.00  0.00    +0.170 C 
ENDROOT
BRANCH   1   2
ATOM      2  C   LIG    1       24.329 -19.271   4.568  0.00  0.00    +0.001 A 
ATOM      3  C   LIG    1       23.988 -20.309   5.450  0.00  0.00    +0.048 A 
ATOM      4 CL   LIG    1       25.112 -20.954   6.592  0.00  0.00    -0.083 Cl
ATOM      5  C   LIG    1       22.701 -20.847   5.443  0.00  0.00    +0.040 A 
ATOM      6  C   LIG    1       21.747 -20.349   4.560  0.00  0.00    +0.042 A 
ATOM      7 CL   LIG    1       20.181 -21.056   4.510  0.00  0.00    -0.084 Cl
ATOM      8  C   LIG    1       22.049 -19.289   3.712  0.00  0.00    +0.020 A 
ATOM      9  C   LIG    1       23.328 -18.742   3.726  0.00  0.00    +0.009 A 
ENDBRANCH   1   2
BRANCH   1  10
ATOM     10  O   LIG    1       25.832 -17.869   3.306  0.00  0.00    -0.366 OA
BRANCH  10  11
ATOM     11  C   LIG    1       26.782 -16.801   3.452  0.00  0.00    +0.196 C 
BRANCH  11  16
ATOM     12 CL   LIG    1       23.876 -11.581   2.698  0.00  0.00    -0.084 Cl
ATOM     13  C   LIG    1       24.747 -13.036   2.993  0.00  0.00    +0.041 A 
ATOM     14  C   LIG    1       24.163 -14.048   3.752  0.00  0.00    +0.020 A 
ATOM     15  C   LIG    1       24.843 -15.251   3.945  0.00  0.00    +0.007 A 
ATOM     16  C   LIG    1       26.109 -15.453   3.380  0.00  0.00    -0.022 A 
ATOM     17  C   LIG    1       26.700 -14.409   2.646  0.00  0.00    +0.007 A 
ATOM     18  C   LIG    1       26.019 -13.204   2.453  0.00  0.00    +0.020 A 
ENDBRANCH  11  16
ENDBRANCH  10  11
ENDBRANCH   1  10
BRANCH   1  19
ATOM     19  C   LIG    1       26.797 -19.809   4.421  0.00  0.00    +0.159 C 
BRANCH  19  20
ATOM     20  N   LIG    1       27.838 -19.717   5.429  0.00  0.00    -0.334 N 
ATOM     21  C   LIG    1       28.240 -20.720   6.269  0.00  0.00    +0.199 A 
ATOM     22  N   LIG    1       29.212 -20.325   7.060  0.00  0.00    -0.244 NA
ATOM     23  C   LIG    1       29.470 -19.038   6.694  0.00  0.00    +0.130 A 
ATOM     24  C   LIG    1       28.642 -18.642   5.671  0.00  0.00    +0.107 A 
ENDBRANCH  19  20
ENDBRANCH   1  19
TORSDOF 6
ENDMDL
MODEL 2
REMARK VINA RESULT:      -2.5      1.504      1.948
REMARK  Name = *****
REMARK                            x       y       z     vdW  Elec       q    Type
REMARK                         _______ _______ _______ _____ _____    ______ ____
ROOT
ATOM      1  C   LIG    1       25.694 -18.546   4.324  0.00  0.00    +0.170 C 
ENDROOT
BRANCH   1   2
ATOM      2  C   LIG    1       24.364 -19.267   4.448  0.00  0.00    +0.001 A 
ATOM      3  C   LIG    1       24.079 -20.157   5.495  0.00  0.00    +0.048 A 
ATOM      4 CL   LIG    1       25.188 -20.442   6.789  0.00  0.00    -0.083 Cl
ATOM      5  C   LIG    1       22.861 -20.836   5.533  0.00  0.00    +0.040 A 
ATOM      6  C   LIG    1       21.920 -20.626   4.530  0.00  0.00    +0.042 A 
ATOM      7 CL   LIG    1       20.446 -21.511   4.545  0.00  0.00    -0.084 Cl
ATOM      8  C   LIG    1       22.161 -19.713   3.510  0.00  0.00    +0.020 A 
ATOM      9  C   LIG    1       23.370 -19.025   3.476  0.00  0.00    +0.009 A 
ENDBRANCH   1   2
BRANCH   1  10
ATOM     10  O   LIG    1       25.671 -17.717   3.140  0.00  0.00    -0.366 OA
BRANCH  10  11
ATOM     11  C   LIG    1       24.904 -16.516   3.320  0.00  0.00    +0.196 C 
BRANCH  11  16
ATOM     12 CL   LIG    1       28.592 -12.106   5.113  0.00  0.00    -0.084 Cl
ATOM     13  C   LIG    1       27.511 -13.310   4.526  0.00  0.00    +0.041 A 
ATOM     14  C   LIG    1       27.972 -14.276   3.635  0.00  0.00    +0.020 A 
ATOM     15  C   LIG    1       27.114 -15.288   3.202  0.00  0.00    +0.007 A 
ATOM     16  C   LIG    1       25.790 -15.343   3.658  0.00  0.00    -0.022 A 
ATOM     17  C   LIG    1       25.330 -14.341   4.530  0.00  0.00    +0.007 A 
ATOM     18  C   LIG    1       26.189 -13.327   4.963  0.00  0.00    +0.020 A 
ENDBRANCH  11  16
ENDBRANCH  10  11
ENDBRANCH   1  10
BRANCH   1  19
ATOM     19  C   LIG    1       26.866 -19.554   4.208  0.00  0.00    +0.159 C 
BRANCH  19  20
ATOM     20  N   LIG    1       27.939 -19.346   5.165  0.00  0.00    -0.334 N 
ATOM     21  C   LIG    1       28.530 -18.149   5.468  0.00  0.00    +0.199 A 
ATOM     22  N   LIG    1       29.464 -18.291   6.381  0.00  0.00    -0.244 NA
ATOM     23  C   LIG    1       29.451 -19.614   6.703  0.00  0.00    +0.130 A 
ATOM     24  C   LIG    1       28.500 -20.288   5.974  0.00  0.00    +0.107 A 
ENDBRANCH  19  20
ENDBRANCH   1  19
TORSDOF 6
ENDMDL
