MODEL 1
REMARK VINA RESULT:       2.7      0.000      0.000
REMARK  Name = *****
REMARK                            x       y       z     vdW  Elec       q    Type
REMARK                         _______ _______ _______ _____ _____    ______ ____
ROOT
ATOM      1  C   LIG    1       24.630 -30.414  13.038  0.00  0.00    +0.082 C 
ATOM      2  C   LIG    1       25.374 -29.064  13.242  0.00  0.00    +0.143 C 
ATOM      3  O   LIG    1       25.082 -28.323  14.197  0.00  0.00    -0.297 OA
ATOM      4  C   LIG    1       26.374 -28.549  12.243  0.00  0.00    +0.106 C 
ATOM      5  C   LIG    1       25.776 -27.969  10.964  0.00  0.00    +0.128 C 
ATOM      6  C   LIG    1       26.519 -28.340   9.643  0.00  0.00    +0.060 C 
ATOM      7  C   LIG    1       27.408 -29.590   9.653  0.00  0.00    +0.014 C 
ATOM      8  C   LIG    1       25.615 -28.284   8.363  0.00  0.00    +0.207 C 
ATOM      9  O   LIG    1       25.475 -29.635   7.858  0.00  0.00    -0.455 OA
ATOM     10  C   LIG    1       24.258 -30.058   7.442  0.00  0.00    +0.328 C 
ATOM     11  O   LIG    1       23.286 -29.332   7.266  0.00  0.00    -0.249 OA
ATOM     12  C   LIG    1       24.262 -31.553   7.063  0.00  0.00    +0.185 C 
ATOM     13  N   LIG    1       24.916 -32.459   8.041  0.00  0.00    -0.281 N 
ATOM     14  C   LIG    1       26.097 -33.192   7.606  0.00  0.00    +0.109 C 
ATOM     15  C   LIG    1       27.062 -32.332   6.809  0.00  0.00    +0.019 C 
ATOM     16  C   LIG    1       26.400 -31.594   5.648  0.00  0.00    +0.004 C 
ATOM     17  C   LIG    1       24.270 -32.947   9.197  0.00  0.00    +0.288 C 
ATOM     18  O   LIG    1       24.733 -33.825   9.922  0.00  0.00    -0.267 OA
ATOM     19  C   LIG    1       22.864 -32.469   9.501  0.00  0.00    +0.276 C 
ATOM     20  O   LIG    1       21.957 -32.902   8.785  0.00  0.00    -0.281 OA
ATOM     21  C   LIG    1       22.687 -31.433  10.680  0.00  0.00    +0.240 C 
ATOM     22  C   LIG    1       20.966 -30.589  10.349  0.00  0.00    +0.056 C 
ATOM     23  C   LIG    1       21.036 -29.125   9.911  0.00  0.00    +0.013 C 
ATOM     24  C   LIG    1       19.531 -30.838  11.590  0.00  0.00    +0.043 C 
ATOM     25  C   LIG    1       19.848 -31.705  13.272  0.00  0.00    +0.150 C 
ATOM     26  C   LIG    1       21.677 -32.248  13.707  0.00  0.00    +0.179 C 
ATOM     27  C   LIG    1       22.117 -31.685  15.131  0.00  0.00    +0.149 C 
ATOM     28  C   LIG    1       22.107 -30.160  15.432  0.00  0.00    +0.038 C 
ATOM     29  C   LIG    1       21.099 -29.223  14.757  0.00  0.00    -0.008 C 
ATOM     30  C   LIG    1       21.411 -27.761  15.127  0.00  0.00    +0.008 C 
ATOM     31  C   LIG    1       20.893 -29.351  13.206  0.00  0.00    +0.033 C 
ATOM     32  C   LIG    1       21.747 -30.567  12.452  0.00  0.00    -0.076 C 
ATOM     33  C   LIG    1       21.105 -32.343  11.689  0.00  0.00    +0.038 C 
ATOM     34  O   LIG    1       22.960 -32.258  12.345  0.00  0.00    -0.334 OA
ATOM     35  C   LIG    1       24.874 -31.687   5.657  0.00  0.00    +0.034 C 
ATOM     36  C   LIG    1       23.065 -30.036  12.790  0.00  0.00    -0.017 C 
ENDROOT
BRANCH   8  37
ATOM     37  C   LIG    1       26.154 -27.371   7.239  0.00  0.00    -0.036 C 
ATOM     38  C   LIG    1       25.991 -26.028   7.232  0.00  0.00    -0.021 C 
ATOM     39  C   LIG    1       26.755 -28.132   6.082  0.00  0.00    +0.042 C 
BRANCH  38  40
ATOM     40  C   LIG    1       26.263 -25.035   6.121  0.00  0.00    +0.014 C 
ATOM     41  C   LIG    1       25.062 -24.891   5.163  0.00  0.00    +0.042 C 
ATOM     42  C   LIG    1       23.858 -24.129   5.753  0.00  0.00    +0.147 C 
ATOM     43  C   LIG    1       24.294 -22.757   6.308  0.00  0.00    +0.143 C 
ATOM     44  C   LIG    1       25.482 -22.867   7.270  0.00  0.00    +0.034 C 
ATOM     45  C   LIG    1       26.658 -23.659   6.685  0.00  0.00    +0.010 C 
BRANCH  42  46
ATOM     46  O   LIG    1       23.207 -24.860   6.799  0.00  0.00    -0.377 OA
ATOM     47  C   LIG    1       22.055 -24.208   7.320  0.00  0.00    +0.194 C 
ENDBRANCH  42  46
BRANCH  43  48
ATOM     48  O   LIG    1       24.611 -21.859   5.240  0.00  0.00    -0.389 OA
ATOM     49  H   LIG    1       24.180 -21.005   5.407  0.00  0.00    +0.210 HD
ENDBRANCH  43  48
ENDBRANCH  38  40
ENDBRANCH   8  37
BRANCH   5  50
ATOM     50  O   LIG    1       24.362 -28.130  10.889  0.00  0.00    -0.391 OA
ATOM     51  H   LIG    1       24.082 -28.546  11.730  0.00  0.00    +0.210 HD
ENDBRANCH   5  50
BRANCH  27  52
ATOM     52  O   LIG    1       23.394 -32.256  15.499  0.00  0.00    -0.377 OA
ATOM     53  C   LIG    1       23.439 -33.680  15.500  0.00  0.00    +0.194 C 
ENDBRANCH  27  52
BRANCH  25  54
ATOM     54  O   LIG    1       19.080 -31.136  14.338  0.00  0.00    -0.377 OA
ATOM     55  C   LIG    1       18.025 -32.008  14.761  0.00  0.00    +0.194 C 
ENDBRANCH  25  54
BRANCH  21  56
ATOM     56  O   LIG    1       23.736 -30.540  10.290  0.00  0.00    -0.358 OA
ATOM     57  H   LIG    1       23.541 -30.174   9.404  0.00  0.00    +0.213 HD
ENDBRANCH  21  56
BRANCH   1  58
ATOM     58  C   LIG    1       25.511 -31.517  12.362  0.00  0.00    +0.041 C 
BRANCH  58  60
ATOM     59  C   LIG    1       26.678 -32.272  14.459  0.00  0.00    +0.004 C 
ATOM     60  C   LIG    1       26.103 -32.568  13.285  0.00  0.00    -0.034 C 
ENDBRANCH  58  60
ENDBRANCH   1  58
TORSDOF 10
ENDMDL
