MODEL 1
REMARK VINA RESULT:      -7.8      0.000      0.000
REMARK  Name = *****
REMARK                            x       y       z     vdW  Elec       q    Type
REMARK                         _______ _______ _______ _____ _____    ______ ____
ROOT
ATOM      1  N   LIG    1       25.463 -21.338   6.780  0.00  0.00    -0.298 N 
ATOM      2  C   LIG    1       24.511 -20.746   5.897  0.00  0.00    +0.048 A 
ATOM      3  C   LIG    1       24.904 -19.911   4.831  0.00  0.00    +0.034 A 
ATOM      4  C   LIG    1       23.953 -19.374   3.941  0.00  0.00    +0.017 A 
ATOM      5  C   LIG    1       22.596 -19.623   4.102  0.00  0.00    +0.001 A 
ATOM      6  C   LIG    1       22.178 -20.400   5.170  0.00  0.00    +0.002 A 
ATOM      7  S   LIG    1       26.592 -19.478   4.492  0.00  0.00    -0.086 S 
ATOM      8  C   LIG    1       27.453 -20.163   5.886  0.00  0.00    +0.034 A 
ATOM      9  C   LIG    1       28.819 -19.830   5.973  0.00  0.00    +0.017 A 
ATOM     10  C   LIG    1       29.623 -20.338   6.987  0.00  0.00    +0.001 A 
ATOM     11  C   LIG    1       29.062 -21.189   7.925  0.00  0.00    +0.002 A 
ATOM     12  C   LIG    1       27.703 -21.517   7.846  0.00  0.00    +0.024 A 
ATOM     13  C   LIG    1       23.120 -20.943   6.051  0.00  0.00    +0.024 A 
ATOM     14  C   LIG    1       26.852 -21.021   6.832  0.00  0.00    +0.048 A 
ENDROOT
BRANCH   1  15
ATOM     15  C   LIG    1       25.000 -22.496   7.586  0.00  0.00    +0.112 C 
BRANCH  15  16
ATOM     16  C   LIG    1       25.273 -23.829   6.877  0.00  0.00    +0.035 C 
BRANCH  16  17
ATOM     17  C   LIG    1       23.963 -24.569   6.570  0.00  0.00    +0.085 C 
BRANCH  17  19
ATOM     18  C   LIG    1       25.141 -25.387   4.632  0.00  0.00    +0.104 C 
ATOM     19  N   LIG    1       24.119 -25.701   5.637  0.00  0.00    -0.308 NA
ATOM     20  C   LIG    1       24.480 -26.947   6.318  0.00  0.00    +0.104 C 
ENDBRANCH  17  19
ENDBRANCH  16  17
ENDBRANCH  15  16
ENDBRANCH   1  15
TORSDOF 4
ENDMDL
MODEL 2
REMARK VINA RESULT:      -6.8      1.912      5.002
REMARK  Name = *****
REMARK                            x       y       z     vdW  Elec       q    Type
REMARK                         _______ _______ _______ _____ _____    ______ ____
ROOT
ATOM      1  N   LIG    1       25.393 -21.326   5.538  0.00  0.00    -0.298 N 
ATOM      2  C   LIG    1       24.425 -20.393   5.059  0.00  0.00    +0.048 A 
ATOM      3  C   LIG    1       23.041 -20.621   5.197  0.00  0.00    +0.034 A 
ATOM      4  C   LIG    1       22.101 -19.667   4.759  0.00  0.00    +0.017 A 
ATOM      5  C   LIG    1       22.506 -18.485   4.150  0.00  0.00    +0.001 A 
ATOM      6  C   LIG    1       23.859 -18.258   3.957  0.00  0.00    +0.002 A 
ATOM      7  S   LIG    1       22.353 -22.082   5.935  0.00  0.00    -0.086 S 
ATOM      8  C   LIG    1       23.787 -23.100   6.183  0.00  0.00    +0.034 A 
ATOM      9  C   LIG    1       23.525 -24.414   6.617  0.00  0.00    +0.017 A 
ATOM     10  C   LIG    1       24.557 -25.301   6.896  0.00  0.00    +0.001 A 
ATOM     11  C   LIG    1       25.866 -24.877   6.745  0.00  0.00    +0.002 A 
ATOM     12  C   LIG    1       26.132 -23.573   6.308  0.00  0.00    +0.024 A 
ATOM     13  C   LIG    1       24.795 -19.200   4.399  0.00  0.00    +0.024 A 
ATOM     14  C   LIG    1       25.111 -22.641   6.011  0.00  0.00    +0.048 A 
ENDROOT
BRANCH   1  15
ATOM     15  C   LIG    1       26.778 -20.822   5.717  0.00  0.00    +0.112 C 
BRANCH  15  16
ATOM     16  C   LIG    1       27.054 -20.421   7.173  0.00  0.00    +0.035 C 
BRANCH  16  17
ATOM     17  C   LIG    1       28.384 -21.011   7.665  0.00  0.00    +0.085 C 
BRANCH  17  19
ATOM     18  C   LIG    1       30.630 -20.642   8.461  0.00  0.00    +0.104 C 
ATOM     19  N   LIG    1       29.360 -19.997   8.109  0.00  0.00    -0.308 NA
ATOM     20  C   LIG    1       29.606 -18.968   7.096  0.00  0.00    +0.104 C 
ENDBRANCH  17  19
ENDBRANCH  16  17
ENDBRANCH  15  16
ENDBRANCH   1  15
TORSDOF 4
ENDMDL
MODEL 3
REMARK VINA RESULT:      -6.6      1.104      4.398
REMARK  Name = *****
REMARK                            x       y       z     vdW  Elec       q    Type
REMARK                         _______ _______ _______ _____ _____    ______ ____
ROOT
ATOM      1  N   LIG    1       26.267 -21.176   6.737  0.00  0.00    -0.298 N 
ATOM      2  C   LIG    1       27.642 -20.872   6.967  0.00  0.00    +0.048 A 
ATOM      3  C   LIG    1       28.325 -19.896   6.213  0.00  0.00    +0.034 A 
ATOM      4  C   LIG    1       29.670 -19.577   6.487  0.00  0.00    +0.017 A 
ATOM      5  C   LIG    1       30.376 -20.233   7.488  0.00  0.00    +0.001 A 
ATOM      6  C   LIG    1       29.744 -21.231   8.211  0.00  0.00    +0.002 A 
ATOM      7  S   LIG    1       27.580 -18.975   4.891  0.00  0.00    -0.086 S 
ATOM      8  C   LIG    1       25.995 -19.759   4.722  0.00  0.00    +0.034 A 
ATOM      9  C   LIG    1       25.228 -19.336   3.618  0.00  0.00    +0.017 A 
ATOM     10  C   LIG    1       23.950 -19.832   3.395  0.00  0.00    +0.001 A 
ATOM     11  C   LIG    1       23.425 -20.758   4.280  0.00  0.00    +0.002 A 
ATOM     12  C   LIG    1       24.186 -21.187   5.375  0.00  0.00    +0.024 A 
ATOM     13  C   LIG    1       28.406 -21.545   7.948  0.00  0.00    +0.024 A 
ATOM     14  C   LIG    1       25.491 -20.709   5.636  0.00  0.00    +0.048 A 
ENDROOT
BRANCH   1  15
ATOM     15  C   LIG    1       25.548 -21.893   7.820  0.00  0.00    +0.112 C 
BRANCH  15  16
ATOM     16  C   LIG    1       24.921 -23.201   7.319  0.00  0.00    +0.035 C 
BRANCH  16  17
ATOM     17  C   LIG    1       26.004 -24.201   6.888  0.00  0.00    +0.085 C 
BRANCH  17  19
ATOM     18  C   LIG    1       26.375 -26.383   5.932  0.00  0.00    +0.104 C 
ATOM     19  N   LIG    1       25.552 -25.170   5.872  0.00  0.00    -0.308 NA
ATOM     20  C   LIG    1       24.142 -25.536   6.029  0.00  0.00    +0.104 C 
ENDBRANCH  17  19
ENDBRANCH  16  17
ENDBRANCH  15  16
ENDBRANCH   1  15
TORSDOF 4
ENDMDL
MODEL 4
REMARK VINA RESULT:      -6.4      2.878      6.984
REMARK  Name = *****
REMARK                            x       y       z     vdW  Elec       q    Type
REMARK                         _______ _______ _______ _____ _____    ______ ____
ROOT
ATOM      1  N   LIG    1       26.191 -19.744   4.885  0.00  0.00    -0.298 N 
ATOM      2  C   LIG    1       27.424 -19.756   5.604  0.00  0.00    +0.048 A 
ATOM      3  C   LIG    1       27.641 -20.622   6.694  0.00  0.00    +0.034 A 
ATOM      4  C   LIG    1       28.882 -20.652   7.361  0.00  0.00    +0.017 A 
ATOM      5  C   LIG    1       29.921 -19.808   6.988  0.00  0.00    +0.001 A 
ATOM      6  C   LIG    1       29.717 -18.912   5.952  0.00  0.00    +0.002 A 
ATOM      7  S   LIG    1       26.419 -21.753   7.311  0.00  0.00    -0.086 S 
ATOM      8  C   LIG    1       24.977 -21.309   6.374  0.00  0.00    +0.034 A 
ATOM      9  C   LIG    1       23.783 -21.944   6.770  0.00  0.00    +0.017 A 
ATOM     10  C   LIG    1       22.590 -21.725   6.092  0.00  0.00    +0.001 A 
ATOM     11  C   LIG    1       22.584 -20.867   5.005  0.00  0.00    +0.002 A 
ATOM     12  C   LIG    1       23.767 -20.229   4.612  0.00  0.00    +0.024 A 
ATOM     13  C   LIG    1       28.490 -18.885   5.280  0.00  0.00    +0.024 A 
ATOM     14  C   LIG    1       25.000 -20.423   5.276  0.00  0.00    +0.048 A 
ENDROOT
BRANCH   1  15
ATOM     15  C   LIG    1       26.205 -19.118   3.539  0.00  0.00    +0.112 C 
BRANCH  15  16
ATOM     16  C   LIG    1       25.587 -17.713   3.558  0.00  0.00    +0.035 C 
BRANCH  16  17
ATOM     17  C   LIG    1       26.673 -16.632   3.449  0.00  0.00    +0.085 C 
BRANCH  17  19
ATOM     18  C   LIG    1       25.072 -14.865   3.802  0.00  0.00    +0.104 C 
ATOM     19  N   LIG    1       26.176 -15.333   2.957  0.00  0.00    -0.308 NA
ATOM     20  C   LIG    1       27.221 -14.307   2.917  0.00  0.00    +0.104 C 
ENDBRANCH  17  19
ENDBRANCH  16  17
ENDBRANCH  15  16
ENDBRANCH   1  15
TORSDOF 4
ENDMDL
MODEL 5
REMARK VINA RESULT:      -6.0      2.856      5.633
REMARK  Name = *****
REMARK                            x       y       z     vdW  Elec       q    Type
REMARK                         _______ _______ _______ _____ _____    ______ ____
ROOT
ATOM      1  N   LIG    1       26.154 -19.892   4.906  0.00  0.00    -0.298 N 
ATOM      2  C   LIG    1       24.878 -20.441   5.233  0.00  0.00    +0.048 A 
ATOM      3  C   LIG    1       24.539 -20.801   6.553  0.00  0.00    +0.034 A 
ATOM      4  C   LIG    1       23.258 -21.298   6.864  0.00  0.00    +0.017 A 
ATOM      5  C   LIG    1       22.296 -21.478   5.876  0.00  0.00    +0.001 A 
ATOM      6  C   LIG    1       22.619 -21.178   4.563  0.00  0.00    +0.002 A 
ATOM      7  S   LIG    1       25.650 -20.651   7.930  0.00  0.00    -0.086 S 
ATOM      8  C   LIG    1       27.174 -20.187   7.145  0.00  0.00    +0.034 A 
ATOM      9  C   LIG    1       28.301 -20.152   7.991  0.00  0.00    +0.017 A 
ATOM     10  C   LIG    1       29.546 -19.758   7.517  0.00  0.00    +0.001 A 
ATOM     11  C   LIG    1       29.674 -19.391   6.189  0.00  0.00    +0.002 A 
ATOM     12  C   LIG    1       28.559 -19.430   5.343  0.00  0.00    +0.024 A 
ATOM     13  C   LIG    1       23.888 -20.676   4.252  0.00  0.00    +0.024 A 
ATOM     14  C   LIG    1       27.275 -19.827   5.784  0.00  0.00    +0.048 A 
ENDROOT
BRANCH   1  15
ATOM     15  C   LIG    1       26.265 -19.179   3.609  0.00  0.00    +0.112 C 
BRANCH  15  16
ATOM     16  C   LIG    1       25.681 -17.761   3.686  0.00  0.00    +0.035 C 
BRANCH  16  17
ATOM     17  C   LIG    1       26.779 -16.703   3.507  0.00  0.00    +0.085 C 
BRANCH  17  19
ATOM     18  C   LIG    1       25.096 -15.002   3.800  0.00  0.00    +0.104 C 
ATOM     19  N   LIG    1       26.281 -15.399   3.030  0.00  0.00    -0.308 NA
ATOM     20  C   LIG    1       27.291 -14.342   3.120  0.00  0.00    +0.104 C 
ENDBRANCH  17  19
ENDBRANCH  16  17
ENDBRANCH  15  16
ENDBRANCH   1  15
TORSDOF 4
ENDMDL
MODEL 6
REMARK VINA RESULT:      -5.9      2.121      5.351
REMARK  Name = *****
REMARK                            x       y       z     vdW  Elec       q    Type
REMARK                         _______ _______ _______ _____ _____    ______ ____
ROOT
ATOM      1  N   LIG    1       26.634 -20.944   6.190  0.00  0.00    -0.298 N 
ATOM      2  C   LIG    1       26.403 -19.947   5.196  0.00  0.00    +0.048 A 
ATOM      3  C   LIG    1       25.262 -19.971   4.369  0.00  0.00    +0.034 A 
ATOM      4  C   LIG    1       25.028 -18.951   3.425  0.00  0.00    +0.017 A 
ATOM      5  C   LIG    1       25.927 -17.905   3.258  0.00  0.00    +0.001 A 
ATOM      6  C   LIG    1       27.081 -17.883   4.023  0.00  0.00    +0.002 A 
ATOM      7  S   LIG    1       24.022 -21.240   4.439  0.00  0.00    -0.086 S 
ATOM      8  C   LIG    1       24.732 -22.409   5.573  0.00  0.00    +0.034 A 
ATOM      9  C   LIG    1       24.030 -23.623   5.705  0.00  0.00    +0.017 A 
ATOM     10  C   LIG    1       24.449 -24.606   6.593  0.00  0.00    +0.001 A 
ATOM     11  C   LIG    1       25.577 -24.378   7.363  0.00  0.00    +0.002 A 
ATOM     12  C   LIG    1       26.282 -23.176   7.231  0.00  0.00    +0.024 A 
ATOM     13  C   LIG    1       27.313 -18.890   4.968  0.00  0.00    +0.024 A 
ATOM     14  C   LIG    1       25.891 -22.152   6.337  0.00  0.00    +0.048 A 
ENDROOT
BRANCH   1  15
ATOM     15  C   LIG    1       27.613 -20.614   7.256  0.00  0.00    +0.112 C 
BRANCH  15  16
ATOM     16  C   LIG    1       29.024 -21.105   6.906  0.00  0.00    +0.035 C 
BRANCH  16  17
ATOM     17  C   LIG    1       30.083 -20.064   7.298  0.00  0.00    +0.085 C 
BRANCH  17  19
ATOM     18  C   LIG    1       31.136 -21.441   8.973  0.00  0.00    +0.104 C 
ATOM     19  N   LIG    1       30.505 -20.143   8.710  0.00  0.00    -0.308 NA
ATOM     20  C   LIG    1       31.432 -19.072   9.082  0.00  0.00    +0.104 C 
ENDBRANCH  17  19
ENDBRANCH  16  17
ENDBRANCH  15  16
ENDBRANCH   1  15
TORSDOF 4
ENDMDL
MODEL 7
REMARK VINA RESULT:      -5.8      2.144      4.569
REMARK  Name = *****
REMARK                            x       y       z     vdW  Elec       q    Type
REMARK                         _______ _______ _______ _____ _____    ______ ____
ROOT
ATOM      1  N   LIG    1       26.489 -20.558   5.247  0.00  0.00    -0.298 N 
ATOM      2  C   LIG    1       25.703 -21.612   5.801  0.00  0.00    +0.048 A 
ATOM      3  C   LIG    1       25.831 -22.007   7.148  0.00  0.00    +0.034 A 
ATOM      4  C   LIG    1       25.013 -23.018   7.689  0.00  0.00    +0.017 A 
ATOM      5  C   LIG    1       24.075 -23.680   6.906  0.00  0.00    +0.001 A 
ATOM      6  C   LIG    1       23.963 -23.347   5.566  0.00  0.00    +0.002 A 
ATOM      7  S   LIG    1       26.988 -21.278   8.281  0.00  0.00    -0.086 S 
ATOM      8  C   LIG    1       27.940 -20.211   7.226  0.00  0.00    +0.034 A 
ATOM      9  C   LIG    1       29.060 -19.610   7.832  0.00  0.00    +0.017 A 
ATOM     10  C   LIG    1       29.864 -18.716   7.135  0.00  0.00    +0.001 A 
ATOM     11  C   LIG    1       29.548 -18.413   5.822  0.00  0.00    +0.002 A 
ATOM     12  C   LIG    1       28.439 -19.013   5.213  0.00  0.00    +0.024 A 
ATOM     13  C   LIG    1       24.768 -22.336   5.028  0.00  0.00    +0.024 A 
ATOM     14  C   LIG    1       27.598 -19.930   5.886  0.00  0.00    +0.048 A 
ENDROOT
BRANCH   1  15
ATOM     15  C   LIG    1       26.005 -19.954   3.980  0.00  0.00    +0.112 C 
BRANCH  15  16
ATOM     16  C   LIG    1       24.929 -18.889   4.231  0.00  0.00    +0.035 C 
BRANCH  16  17
ATOM     17  C   LIG    1       23.617 -19.253   3.518  0.00  0.00    +0.085 C 
BRANCH  17  19
ATOM     18  C   LIG    1       22.560 -19.745   5.629  0.00  0.00    +0.104 C 
ATOM     19  N   LIG    1       22.412 -19.050   4.345  0.00  0.00    -0.308 NA
ATOM     20  C   LIG    1       22.130 -17.634   4.593  0.00  0.00    +0.104 C 
ENDBRANCH  17  19
ENDBRANCH  16  17
ENDBRANCH  15  16
ENDBRANCH   1  15
TORSDOF 4
ENDMDL
MODEL 8
REMARK VINA RESULT:      -5.6      1.584      4.783
REMARK  Name = *****
REMARK                            x       y       z     vdW  Elec       q    Type
REMARK                         _______ _______ _______ _____ _____    ______ ____
ROOT
ATOM      1  N   LIG    1       27.406 -20.718   6.885  0.00  0.00    -0.298 N 
ATOM      2  C   LIG    1       28.776 -20.420   7.153  0.00  0.00    +0.048 A 
ATOM      3  C   LIG    1       29.466 -19.405   6.460  0.00  0.00    +0.034 A 
ATOM      4  C   LIG    1       30.804 -19.094   6.772  0.00  0.00    +0.017 A 
ATOM      5  C   LIG    1       31.497 -19.796   7.751  0.00  0.00    +0.001 A 
ATOM      6  C   LIG    1       30.858 -20.832   8.413  0.00  0.00    +0.002 A 
ATOM      7  S   LIG    1       28.738 -18.423   5.172  0.00  0.00    -0.086 S 
ATOM      8  C   LIG    1       27.160 -19.204   4.938  0.00  0.00    +0.034 A 
ATOM      9  C   LIG    1       26.410 -18.729   3.844  0.00  0.00    +0.017 A 
ATOM     10  C   LIG    1       25.138 -19.219   3.574  0.00  0.00    +0.001 A 
ATOM     11  C   LIG    1       24.604 -20.190   4.404  0.00  0.00    +0.002 A 
ATOM     12  C   LIG    1       25.348 -20.670   5.488  0.00  0.00    +0.024 A 
ATOM     13  C   LIG    1       29.526 -21.138   8.112  0.00  0.00    +0.024 A 
ATOM     14  C   LIG    1       26.646 -20.200   5.795  0.00  0.00    +0.048 A 
ENDROOT
BRANCH   1  15
ATOM     15  C   LIG    1       26.672 -21.490   7.918  0.00  0.00    +0.112 C 
BRANCH  15  16
ATOM     16  C   LIG    1       26.354 -22.915   7.446  0.00  0.00    +0.035 C 
BRANCH  16  17
ATOM     17  C   LIG    1       24.862 -23.235   7.626  0.00  0.00    +0.085 C 
BRANCH  17  19
ATOM     18  C   LIG    1       22.924 -24.147   6.519  0.00  0.00    +0.104 C 
ATOM     19  N   LIG    1       24.367 -24.301   6.734  0.00  0.00    -0.308 NA
ATOM     20  C   LIG    1       25.049 -24.314   5.438  0.00  0.00    +0.104 C 
ENDBRANCH  17  19
ENDBRANCH  16  17
ENDBRANCH  15  16
ENDBRANCH   1  15
TORSDOF 4
ENDMDL
MODEL 9
REMARK VINA RESULT:      -5.6      5.635     10.344
REMARK  Name = *****
REMARK                            x       y       z     vdW  Elec       q    Type
REMARK                         _______ _______ _______ _____ _____    ______ ____
ROOT
ATOM      1  N   LIG    1       24.960 -30.914   6.699  0.00  0.00    -0.298 N 
ATOM      2  C   LIG    1       24.910 -30.872   8.125  0.00  0.00    +0.048 A 
ATOM      3  C   LIG    1       25.859 -31.541   8.923  0.00  0.00    +0.034 A 
ATOM      4  C   LIG    1       25.820 -31.449  10.328  0.00  0.00    +0.017 A 
ATOM      5  C   LIG    1       24.828 -30.722  10.975  0.00  0.00    +0.001 A 
ATOM      6  C   LIG    1       23.852 -30.095  10.216  0.00  0.00    +0.002 A 
ATOM      7  S   LIG    1       27.182 -32.525   8.263  0.00  0.00    -0.086 S 
ATOM      8  C   LIG    1       26.806 -32.559   6.527  0.00  0.00    +0.034 A 
ATOM      9  C   LIG    1       27.612 -33.418   5.753  0.00  0.00    +0.017 A 
ATOM     10  C   LIG    1       27.457 -33.504   4.375  0.00  0.00    +0.001 A 
ATOM     11  C   LIG    1       26.493 -32.726   3.758  0.00  0.00    +0.002 A 
ATOM     12  C   LIG    1       25.685 -31.876   4.523  0.00  0.00    +0.024 A 
ATOM     13  C   LIG    1       23.893 -30.177   8.819  0.00  0.00    +0.024 A 
ATOM     14  C   LIG    1       25.808 -31.760   5.927  0.00  0.00    +0.048 A 
ENDROOT
BRANCH   1  15
ATOM     15  C   LIG    1       24.194 -29.872   5.970  0.00  0.00    +0.112 C 
BRANCH  15  16
ATOM     16  C   LIG    1       25.032 -28.608   5.735  0.00  0.00    +0.035 C 
BRANCH  16  17
ATOM     17  C   LIG    1       24.395 -27.390   6.420  0.00  0.00    +0.085 C 
BRANCH  17  19
ATOM     18  C   LIG    1       23.944 -25.023   6.334  0.00  0.00    +0.104 C 
ATOM     19  N   LIG    1       24.247 -26.217   5.537  0.00  0.00    -0.308 NA
ATOM     20  C   LIG    1       25.442 -25.966   4.728  0.00  0.00    +0.104 C 
ENDBRANCH  17  19
ENDBRANCH  16  17
ENDBRANCH  15  16
ENDBRANCH   1  15
TORSDOF 4
ENDMDL
