MODEL 1
REMARK VINA RESULT:      18.8      0.000      0.000
REMARK  Name = *****
REMARK                            x       y       z     vdW  Elec       q    Type
REMARK                         _______ _______ _______ _____ _____    ______ ____
ROOT
ATOM      1  N   LIG    1       27.008 -18.915   4.609  0.00  0.00    -0.286 N 
ATOM      2  C   LIG    1       26.714 -19.626   5.832  0.00  0.00    +0.234 C 
ATOM      3  O   LIG    1       27.442 -19.466   6.823  0.00  0.00    -0.274 OA
ENDROOT
BRANCH   1   4
ATOM      4  C   LIG    1       26.116 -18.836   3.438  0.00  0.00    +0.139 C 
ATOM      5  C   LIG    1       25.597 -20.138   2.762  0.00  0.00    +0.036 C 
BRANCH   4   6
ATOM      6  C   LIG    1       25.246 -17.614   3.378  0.00  0.00    +0.128 A 
ATOM      7  N   LIG    1       23.968 -17.578   2.859  0.00  0.00    -0.346 N 
ATOM      8  H   LIG    1       23.465 -18.338   2.418  0.00  0.00    +0.167 HD
ATOM      9  C   LIG    1       23.480 -16.316   3.063  0.00  0.00    +0.112 A 
ATOM     10  C   LIG    1       24.491 -15.628   3.693  0.00  0.00    +0.089 A 
ATOM     11  N   LIG    1       25.576 -16.437   3.861  0.00  0.00    -0.231 NA
BRANCH  10  12
ATOM     12  C   LIG    1       24.456 -14.242   4.103  0.00  0.00    +0.002 A 
ATOM     13  C   LIG    1       25.105 -13.848   5.278  0.00  0.00    +0.010 A 
ATOM     14  C   LIG    1       25.009 -12.538   5.737  0.00  0.00    +0.001 A 
ATOM     15  C   LIG    1       24.275 -11.601   5.015  0.00  0.00    +0.000 A 
ATOM     16  C   LIG    1       23.657 -11.969   3.819  0.00  0.00    +0.001 A 
ATOM     17  C   LIG    1       23.754 -13.284   3.356  0.00  0.00    +0.010 A 
ENDBRANCH  10  12
ENDBRANCH   4   6
ENDBRANCH   1   4
BRANCH   1  18
ATOM     18  C   LIG    1       28.173 -17.926   4.622  0.00  0.00    +0.143 C 
BRANCH  18  22
ATOM     19  C   LIG    1       27.791 -13.627   3.374  0.00  0.00    +0.134 A 
ATOM     20  C   LIG    1       28.128 -13.809   4.696  0.00  0.00    +0.101 A 
ATOM     21  C   LIG    1       28.285 -15.174   5.065  0.00  0.00    +0.024 A 
ATOM     22  C   LIG    1       27.985 -16.370   4.279  0.00  0.00    -0.029 A 
ATOM     23  C   LIG    1       27.694 -16.080   2.943  0.00  0.00    +0.009 A 
ATOM     24  C   LIG    1       27.675 -14.741   2.512  0.00  0.00    +0.047 A 
BRANCH  19  26
ATOM     25  C   LIG    1       26.415 -12.011   2.530  0.00  0.00    +0.277 C 
ATOM     26  O   LIG    1       27.738 -12.350   2.906  0.00  0.00    -0.494 OA
ENDBRANCH  19  26
BRANCH  20  27
ATOM     27  C   LIG    1       28.568 -12.640   5.551  0.00  0.00    +0.340 C 
ATOM     28  O   LIG    1       28.825 -12.706   6.814  0.00  0.00    -0.245 OA
BRANCH  27  29
ATOM     29  O   LIG    1       28.702 -11.449   4.961  0.00  0.00    -0.477 OA
ATOM     30  H   LIG    1       29.251 -11.628   4.142  0.00  0.00    +0.295 HD
ENDBRANCH  27  29
ENDBRANCH  20  27
ENDBRANCH  18  22
ENDBRANCH   1  18
BRANCH   2  31
ATOM     31  C   LIG    1       25.420 -20.590   5.983  0.00  0.00    +0.142 C 
BRANCH  31  32
ATOM     32  N   LIG    1       25.613 -21.531   7.043  0.00  0.00    -0.320 NA
ATOM     33  H   LIG    1       25.631 -20.999   7.919  0.00  0.00    +0.119 HD
ATOM     34  H   LIG    1       24.755 -22.035   6.897  0.00  0.00    +0.119 HD
ENDBRANCH  31  32
BRANCH  31  35
ATOM     35  C   LIG    1       24.033 -20.103   6.492  0.00  0.00    +0.063 C 
BRANCH  35  36
ATOM     36  C   LIG    1       23.018 -19.542   5.529  0.00  0.00    -0.040 A 
ATOM     37  C   LIG    1       22.672 -20.228   4.310  0.00  0.00    -0.046 A 
ATOM     38  C   LIG    1       23.102 -21.565   3.724  0.00  0.00    +0.044 C 
ATOM     39  C   LIG    1       21.655 -19.699   3.512  0.00  0.00    +0.016 A 
ATOM     40  C   LIG    1       21.062 -18.476   3.729  0.00  0.00    +0.037 A 
ATOM     41  C   LIG    1       21.529 -17.732   4.814  0.00  0.00    +0.016 A 
ATOM     42  C   LIG    1       22.408 -18.273   5.786  0.00  0.00    -0.046 A 
ATOM     43  C   LIG    1       22.445 -17.408   7.045  0.00  0.00    +0.044 C 
BRANCH  40  44
ATOM     44  C   LIG    1       19.875 -18.139   2.883  0.00  0.00    +0.241 C 
ATOM     45  O   LIG    1       19.354 -18.976   2.111  0.00  0.00    -0.270 OA
ATOM     46  N   LIG    1       19.353 -16.866   2.933  0.00  0.00    -0.325 N 
ATOM     47  H   LIG    1       18.589 -16.614   2.326  0.00  0.00    +0.145 HD
ATOM     48  H   LIG    1       19.610 -16.150   3.600  0.00  0.00    +0.145 HD
ENDBRANCH  40  44
ENDBRANCH  35  36
ENDBRANCH  31  35
ENDBRANCH   2  31
TORSDOF 13
ENDMDL
MODEL 2
REMARK VINA RESULT:      20.3      0.933      1.777
REMARK  Name = *****
REMARK                            x       y       z     vdW  Elec       q    Type
REMARK                         _______ _______ _______ _____ _____    ______ ____
ROOT
ATOM      1  N   LIG    1       27.108 -18.986   4.755  0.00  0.00    -0.286 N 
ATOM      2  C   LIG    1       26.698 -19.744   5.915  0.00  0.00    +0.234 C 
ATOM      3  O   LIG    1       27.439 -19.791   6.908  0.00  0.00    -0.274 OA
ENDROOT
BRANCH   1   4
ATOM      4  C   LIG    1       26.244 -18.660   3.606  0.00  0.00    +0.139 C 
ATOM      5  C   LIG    1       25.093 -19.623   3.196  0.00  0.00    +0.036 C 
BRANCH   4   6
ATOM      6  C   LIG    1       26.070 -17.194   3.331  0.00  0.00    +0.128 A 
ATOM      7  N   LIG    1       26.656 -16.511   2.286  0.00  0.00    -0.346 N 
ATOM      8  H   LIG    1       27.304 -16.879   1.601  0.00  0.00    +0.167 HD
ATOM      9  C   LIG    1       26.189 -15.225   2.326  0.00  0.00    +0.112 A 
ATOM     10  C   LIG    1       25.339 -15.177   3.407  0.00  0.00    +0.089 A 
ATOM     11  N   LIG    1       25.294 -16.391   4.024  0.00  0.00    -0.231 NA
BRANCH  10  12
ATOM     12  C   LIG    1       24.610 -14.016   3.869  0.00  0.00    +0.002 A 
ATOM     13  C   LIG    1       24.177 -13.056   2.948  0.00  0.00    +0.010 A 
ATOM     14  C   LIG    1       23.552 -11.890   3.378  0.00  0.00    +0.001 A 
ATOM     15  C   LIG    1       23.339 -11.679   4.738  0.00  0.00    +0.000 A 
ATOM     16  C   LIG    1       23.727 -12.646   5.665  0.00  0.00    +0.001 A 
ATOM     17  C   LIG    1       24.354 -13.819   5.234  0.00  0.00    +0.010 A 
ENDBRANCH  10  12
ENDBRANCH   4   6
ENDBRANCH   1   4
BRANCH   1  18
ATOM     18  C   LIG    1       28.420 -18.206   4.841  0.00  0.00    +0.143 C 
BRANCH  18  22
ATOM     19  C   LIG    1       28.308 -13.795   5.695  0.00  0.00    +0.134 A 
ATOM     20  C   LIG    1       28.431 -14.116   4.361  0.00  0.00    +0.101 A 
ATOM     21  C   LIG    1       28.424 -15.514   4.104  0.00  0.00    +0.024 A 
ATOM     22  C   LIG    1       28.462 -16.617   5.064  0.00  0.00    -0.029 A 
ATOM     23  C   LIG    1       28.289 -16.191   6.384  0.00  0.00    +0.009 A 
ATOM     24  C   LIG    1       28.146 -14.818   6.657  0.00  0.00    +0.047 A 
BRANCH  19  26
ATOM     25  C   LIG    1       27.169 -11.868   5.243  0.00  0.00    +0.277 C 
ATOM     26  O   LIG    1       28.184 -12.480   6.019  0.00  0.00    -0.494 OA
ENDBRANCH  19  26
BRANCH  20  27
ATOM     27  C   LIG    1       28.284 -13.053   3.294  0.00  0.00    +0.340 C 
ATOM     28  O   LIG    1       27.397 -13.067   2.356  0.00  0.00    -0.245 OA
BRANCH  27  29
ATOM     29  O   LIG    1       29.131 -12.020   3.318  0.00  0.00    -0.477 OA
ATOM     30  H   LIG    1       28.569 -11.221   3.097  0.00  0.00    +0.295 HD
ENDBRANCH  27  29
ENDBRANCH  20  27
ENDBRANCH  18  22
ENDBRANCH   1  18
BRANCH   2  31
ATOM     31  C   LIG    1       25.263 -20.493   5.997  0.00  0.00    +0.142 C 
BRANCH  31  32
ATOM     32  N   LIG    1       25.253 -21.449   7.061  0.00  0.00    -0.320 NA
ATOM     33  H   LIG    1       24.532 -21.153   7.727  0.00  0.00    +0.119 HD
ATOM     34  H   LIG    1       24.980 -22.235   6.496  0.00  0.00    +0.119 HD
ENDBRANCH  31  32
BRANCH  31  35
ATOM     35  C   LIG    1       23.946 -19.792   6.439  0.00  0.00    +0.063 C 
BRANCH  35  36
ATOM     36  C   LIG    1       22.955 -19.307   5.412  0.00  0.00    -0.040 A 
ATOM     37  C   LIG    1       22.544 -20.135   4.308  0.00  0.00    -0.046 A 
ATOM     38  C   LIG    1       22.873 -21.569   3.918  0.00  0.00    +0.044 C 
ATOM     39  C   LIG    1       21.551 -19.656   3.448  0.00  0.00    +0.016 A 
ATOM     40  C   LIG    1       21.046 -18.377   3.491  0.00  0.00    +0.037 A 
ATOM     41  C   LIG    1       21.580 -17.519   4.453  0.00  0.00    +0.016 A 
ATOM     42  C   LIG    1       22.436 -17.975   5.487  0.00  0.00    -0.046 A 
ATOM     43  C   LIG    1       22.554 -16.943   6.608  0.00  0.00    +0.044 C 
BRANCH  40  44
ATOM     44  C   LIG    1       19.871 -18.083   2.613  0.00  0.00    +0.241 C 
ATOM     45  O   LIG    1       19.350 -18.962   1.888  0.00  0.00    -0.270 OA
ATOM     46  N   LIG    1       19.359 -16.806   2.579  0.00  0.00    -0.325 N 
ATOM     47  H   LIG    1       18.603 -16.586   1.949  0.00  0.00    +0.145 HD
ATOM     48  H   LIG    1       19.615 -16.052   3.203  0.00  0.00    +0.145 HD
ENDBRANCH  40  44
ENDBRANCH  35  36
ENDBRANCH  31  35
ENDBRANCH   2  31
TORSDOF 13
ENDMDL
