MODEL 1
REMARK VINA RESULT:      -9.6      0.000      0.000
REMARK  Name = *****
REMARK                            x       y       z     vdW  Elec       q    Type
REMARK                         _______ _______ _______ _____ _____    ______ ____
ROOT
ATOM      1  C   LIG    1       26.604 -20.995   6.677  0.00  0.00    -0.017 C 
ATOM      2  C   LIG    1       25.541 -21.458   5.976  0.00  0.00    -0.013 C 
ATOM      3  C   LIG    1       25.067 -22.856   6.107  0.00  0.00    -0.011 A 
ATOM      4  C   LIG    1       23.793 -23.138   6.635  0.00  0.00    -0.017 A 
ATOM      5  C   LIG    1       23.398 -24.480   6.778  0.00  0.00    +0.008 A 
ATOM      6  C   LIG    1       24.231 -25.520   6.364  0.00  0.00    +0.001 A 
ATOM      7  C   LIG    1       25.469 -25.238   5.800  0.00  0.00    +0.001 A 
ATOM      8  C   LIG    1       22.857 -22.095   7.104  0.00  0.00    +0.009 C 
ATOM      9  C   LIG    1       22.694 -20.863   6.615  0.00  0.00    +0.009 C 
ATOM     10  C   LIG    1       23.411 -20.221   5.492  0.00  0.00    -0.017 A 
ATOM     11  C   LIG    1       22.718 -19.261   4.738  0.00  0.00    +0.008 A 
ATOM     12  C   LIG    1       23.342 -18.575   3.695  0.00  0.00    +0.001 A 
ATOM     13  C   LIG    1       24.674 -18.835   3.391  0.00  0.00    +0.001 A 
ATOM     14  C   LIG    1       25.383 -19.778   4.134  0.00  0.00    +0.009 A 
ATOM     15  C   LIG    1       25.885 -23.912   5.668  0.00  0.00    +0.009 A 
ATOM     16  C   LIG    1       24.766 -20.466   5.194  0.00  0.00    -0.011 A 
ENDROOT
BRANCH   1  17
ATOM     17  C   LIG    1       27.440 -21.746   7.683  0.00  0.00    +0.043 C 
BRANCH  17  18
ATOM     18  C   LIG    1       28.951 -21.557   7.451  0.00  0.00    +0.088 C 
BRANCH  18  20
ATOM     19  C   LIG    1       30.936 -21.229   8.816  0.00  0.00    +0.104 C 
ATOM     20  N   LIG    1       29.603 -20.722   8.482  0.00  0.00    -0.308 NA
ATOM     21  C   LIG    1       29.711 -19.333   8.025  0.00  0.00    +0.104 C 
ENDBRANCH  18  20
ENDBRANCH  17  18
ENDBRANCH   1  17
TORSDOF 3
ENDMDL
MODEL 2
REMARK VINA RESULT:      -8.4      2.358      4.922
REMARK  Name = *****
REMARK                            x       y       z     vdW  Elec       q    Type
REMARK                         _______ _______ _______ _____ _____    ______ ____
ROOT
ATOM      1  C   LIG    1       24.302 -23.063   5.095  0.00  0.00    -0.017 C 
ATOM      2  C   LIG    1       24.460 -21.810   5.585  0.00  0.00    -0.013 C 
ATOM      3  C   LIG    1       25.522 -21.481   6.563  0.00  0.00    -0.011 A 
ATOM      4  C   LIG    1       26.559 -20.590   6.227  0.00  0.00    -0.017 A 
ATOM      5  C   LIG    1       27.569 -20.334   7.172  0.00  0.00    +0.008 A 
ATOM      6  C   LIG    1       27.527 -20.915   8.441  0.00  0.00    +0.001 A 
ATOM      7  C   LIG    1       26.478 -21.758   8.786  0.00  0.00    +0.001 A 
ATOM      8  C   LIG    1       26.680 -19.942   4.905  0.00  0.00    +0.009 C 
ATOM      9  C   LIG    1       25.693 -19.546   4.096  0.00  0.00    +0.009 C 
ATOM     10  C   LIG    1       24.234 -19.662   4.305  0.00  0.00    -0.017 A 
ATOM     11  C   LIG    1       23.412 -18.680   3.732  0.00  0.00    +0.008 A 
ATOM     12  C   LIG    1       22.022 -18.748   3.842  0.00  0.00    +0.001 A 
ATOM     13  C   LIG    1       21.430 -19.806   4.526  0.00  0.00    +0.001 A 
ATOM     14  C   LIG    1       22.229 -20.797   5.095  0.00  0.00    +0.009 A 
ATOM     15  C   LIG    1       25.477 -22.037   7.853  0.00  0.00    +0.009 A 
ATOM     16  C   LIG    1       23.630 -20.741   4.980  0.00  0.00    -0.011 A 
ENDROOT
BRANCH   1  17
ATOM     17  C   LIG    1       25.138 -24.282   5.402  0.00  0.00    +0.043 C 
BRANCH  17  18
ATOM     18  C   LIG    1       24.306 -25.426   6.013  0.00  0.00    +0.088 C 
BRANCH  18  20
ATOM     19  C   LIG    1       25.862 -26.796   4.742  0.00  0.00    +0.104 C 
ATOM     20  N   LIG    1       24.534 -26.731   5.357  0.00  0.00    -0.308 NA
ATOM     21  C   LIG    1       24.393 -27.824   6.326  0.00  0.00    +0.104 C 
ENDBRANCH  18  20
ENDBRANCH  17  18
ENDBRANCH   1  17
TORSDOF 3
ENDMDL
MODEL 3
REMARK VINA RESULT:      -7.7      2.340      5.301
REMARK  Name = *****
REMARK                            x       y       z     vdW  Elec       q    Type
REMARK                         _______ _______ _______ _____ _____    ______ ____
ROOT
ATOM      1  C   LIG    1       26.126 -23.646   6.669  0.00  0.00    -0.017 C 
ATOM      2  C   LIG    1       26.049 -22.300   6.536  0.00  0.00    -0.013 C 
ATOM      3  C   LIG    1       24.835 -21.634   6.009  0.00  0.00    -0.011 A 
ATOM      4  C   LIG    1       24.078 -20.769   6.822  0.00  0.00    -0.017 A 
ATOM      5  C   LIG    1       22.911 -20.187   6.295  0.00  0.00    +0.008 A 
ATOM      6  C   LIG    1       22.527 -20.423   4.975  0.00  0.00    +0.001 A 
ATOM      7  C   LIG    1       23.301 -21.241   4.160  0.00  0.00    +0.001 A 
ATOM      8  C   LIG    1       24.413 -20.476   8.231  0.00  0.00    +0.009 C 
ATOM      9  C   LIG    1       25.627 -20.393   8.783  0.00  0.00    +0.009 C 
ATOM     10  C   LIG    1       26.942 -20.584   8.136  0.00  0.00    -0.017 A 
ATOM     11  C   LIG    1       28.032 -19.862   8.646  0.00  0.00    +0.008 A 
ATOM     12  C   LIG    1       29.316 -20.027   8.122  0.00  0.00    +0.001 A 
ATOM     13  C   LIG    1       29.531 -20.922   7.079  0.00  0.00    +0.001 A 
ATOM     14  C   LIG    1       28.462 -21.655   6.564  0.00  0.00    +0.009 A 
ATOM     15  C   LIG    1       24.452 -21.841   4.673  0.00  0.00    +0.009 A 
ATOM     16  C   LIG    1       27.168 -21.504   7.093  0.00  0.00    -0.011 A 
ENDROOT
BRANCH   1  17
ATOM     17  C   LIG    1       25.055 -24.663   6.358  0.00  0.00    +0.043 C 
BRANCH  17  18
ATOM     18  C   LIG    1       25.222 -25.282   4.957  0.00  0.00    +0.088 C 
BRANCH  18  20
ATOM     19  C   LIG    1       26.587 -27.292   5.050  0.00  0.00    +0.104 C 
ATOM     20  N   LIG    1       25.225 -26.761   4.966  0.00  0.00    -0.308 NA
ATOM     21  C   LIG    1       24.435 -27.268   6.094  0.00  0.00    +0.104 C 
ENDBRANCH  18  20
ENDBRANCH  17  18
ENDBRANCH   1  17
TORSDOF 3
ENDMDL
MODEL 4
REMARK VINA RESULT:      -7.5      2.371      5.991
REMARK  Name = *****
REMARK                            x       y       z     vdW  Elec       q    Type
REMARK                         _______ _______ _______ _____ _____    ______ ____
ROOT
ATOM      1  C   LIG    1       23.741 -21.584   5.735  0.00  0.00    -0.017 C 
ATOM      2  C   LIG    1       25.002 -22.064   5.851  0.00  0.00    -0.013 C 
ATOM      3  C   LIG    1       26.160 -21.170   6.089  0.00  0.00    -0.011 A 
ATOM      4  C   LIG    1       26.901 -21.255   7.283  0.00  0.00    -0.017 A 
ATOM      5  C   LIG    1       27.969 -20.362   7.485  0.00  0.00    +0.008 A 
ATOM      6  C   LIG    1       28.323 -19.434   6.504  0.00  0.00    +0.001 A 
ATOM      7  C   LIG    1       27.618 -19.385   5.306  0.00  0.00    +0.001 A 
ATOM      8  C   LIG    1       26.585 -22.201   8.372  0.00  0.00    +0.009 C 
ATOM      9  C   LIG    1       26.082 -23.434   8.264  0.00  0.00    +0.009 C 
ATOM     10  C   LIG    1       25.702 -24.163   7.036  0.00  0.00    -0.017 A 
ATOM     11  C   LIG    1       25.820 -25.562   7.044  0.00  0.00    +0.008 A 
ATOM     12  C   LIG    1       25.434 -26.326   5.941  0.00  0.00    +0.001 A 
ATOM     13  C   LIG    1       24.918 -25.701   4.810  0.00  0.00    +0.001 A 
ATOM     14  C   LIG    1       24.784 -24.313   4.785  0.00  0.00    +0.009 A 
ATOM     15  C   LIG    1       26.544 -20.251   5.098  0.00  0.00    +0.009 A 
ATOM     16  C   LIG    1       25.161 -23.537   5.896  0.00  0.00    -0.011 A 
ENDROOT
BRANCH   1  17
ATOM     17  C   LIG    1       23.289 -20.149   5.846  0.00  0.00    +0.043 C 
BRANCH  17  18
ATOM     18  C   LIG    1       22.168 -19.806   4.845  0.00  0.00    +0.088 C 
BRANCH  18  20
ATOM     19  C   LIG    1       22.225 -17.383   4.645  0.00  0.00    +0.104 C 
ATOM     20  N   LIG    1       22.493 -18.657   3.973  0.00  0.00    -0.308 NA
ATOM     21  C   LIG    1       23.901 -18.705   3.565  0.00  0.00    +0.104 C 
ENDBRANCH  18  20
ENDBRANCH  17  18
ENDBRANCH   1  17
TORSDOF 3
ENDMDL
MODEL 5
REMARK VINA RESULT:      -7.1      2.206      5.543
REMARK  Name = *****
REMARK                            x       y       z     vdW  Elec       q    Type
REMARK                         _______ _______ _______ _____ _____    ______ ____
ROOT
ATOM      1  C   LIG    1       24.933 -21.298   4.196  0.00  0.00    -0.017 C 
ATOM      2  C   LIG    1       25.285 -21.941   5.335  0.00  0.00    -0.013 C 
ATOM      3  C   LIG    1       25.988 -21.247   6.440  0.00  0.00    -0.011 A 
ATOM      4  C   LIG    1       25.374 -21.089   7.697  0.00  0.00    -0.017 A 
ATOM      5  C   LIG    1       26.061 -20.390   8.706  0.00  0.00    +0.008 A 
ATOM      6  C   LIG    1       27.348 -19.897   8.488  0.00  0.00    +0.001 A 
ATOM      7  C   LIG    1       27.970 -20.095   7.260  0.00  0.00    +0.001 A 
ATOM      8  C   LIG    1       24.013 -21.573   8.005  0.00  0.00    +0.009 C 
ATOM      9  C   LIG    1       23.406 -22.664   7.528  0.00  0.00    +0.009 C 
ATOM     10  C   LIG    1       23.929 -23.657   6.567  0.00  0.00    -0.017 A 
ATOM     11  C   LIG    1       23.474 -24.980   6.681  0.00  0.00    +0.008 A 
ATOM     12  C   LIG    1       23.883 -25.965   5.780  0.00  0.00    +0.001 A 
ATOM     13  C   LIG    1       24.753 -25.640   4.744  0.00  0.00    +0.001 A 
ATOM     14  C   LIG    1       25.209 -24.329   4.607  0.00  0.00    +0.009 A 
ATOM     15  C   LIG    1       27.295 -20.770   6.242  0.00  0.00    +0.009 A 
ATOM     16  C   LIG    1       24.794 -23.329   5.505  0.00  0.00    -0.011 A 
ENDROOT
BRANCH   1  17
ATOM     17  C   LIG    1       25.143 -19.842   3.860  0.00  0.00    +0.043 C 
BRANCH  17  18
ATOM     18  C   LIG    1       23.823 -19.117   3.533  0.00  0.00    +0.088 C 
BRANCH  18  20
ATOM     19  C   LIG    1       22.097 -17.763   4.582  0.00  0.00    +0.104 C 
ATOM     20  N   LIG    1       22.937 -18.957   4.706  0.00  0.00    -0.308 NA
ATOM     21  C   LIG    1       22.083 -20.138   4.869  0.00  0.00    +0.104 C 
ENDBRANCH  18  20
ENDBRANCH  17  18
ENDBRANCH   1  17
TORSDOF 3
ENDMDL
