MODEL 1
REMARK VINA RESULT:       2.1      0.000      0.000
REMARK  Name = *****
REMARK                            x       y       z     vdW  Elec       q    Type
REMARK                         _______ _______ _______ _____ _____    ______ ____
ROOT
ATOM      1  C   UNK    1       23.770 -18.816   3.645  0.00  0.00    +0.242 C 
ATOM      2  C   UNK    1       23.068 -17.374   3.739  0.00  0.00    +0.199 C 
ATOM      3  N   UNK    1       24.360 -16.789   3.375  0.00  0.00    -0.244 N 
ATOM      4  C   UNK    1       24.692 -15.449   3.453  0.00  0.00    +0.123 C 
ATOM      5  C   UNK    1       23.826 -14.576   4.050  0.00  0.00    -0.021 C 
ATOM      6  C   UNK    1       22.579 -15.014   4.808  0.00  0.00    +0.104 C 
ATOM      7  S   UNK    1       22.666 -16.719   5.399  0.00  0.00    -0.129 S 
ATOM      8  C   UNK    1       25.066 -17.920   3.585  0.00  0.00    +0.275 C 
ATOM      9  O   UNK    1       26.282 -18.078   3.698  0.00  0.00    -0.270 OA
ENDROOT
BRANCH   1  10
ATOM     10  N   UNK    1       23.732 -19.685   4.856  0.00  0.00    -0.277 N 
ATOM     11  H   UNK    1       24.553 -19.748   5.444  0.00  0.00    +0.152 HD
ATOM     12  C   UNK    1       22.668 -20.530   5.074  0.00  0.00    +0.225 C 
ATOM     13  O   UNK    1       21.815 -20.678   4.204  0.00  0.00    -0.275 OA
BRANCH  12  14
ATOM     14  C   UNK    1       22.667 -21.226   6.429  0.00  0.00    +0.165 C 
BRANCH  14  15
ATOM     15  S   UNK    1       24.355 -21.571   7.051  0.00  0.00    -0.149 S 
BRANCH  15  16
ATOM     16  C   UNK    1       25.333 -20.550   5.879  0.00  0.00    +0.099 C 
BRANCH  16  17
ATOM     17  C   UNK    1       26.745 -20.228   6.386  0.00  0.00    +0.170 C 
BRANCH  17  18
ATOM     18  N   UNK    1       27.413 -21.384   7.062  0.00  0.00    -0.318 NA
ATOM     19  H   UNK    1       26.764 -22.177   6.985  0.00  0.00    +0.119 HD
ATOM     20  H   UNK    1       28.193 -21.684   6.461  0.00  0.00    +0.119 HD
ENDBRANCH  17  18
BRANCH  17  21
ATOM     21  C   UNK    1       27.621 -19.786   5.202  0.00  0.00    +0.323 C 
ATOM     22  O   UNK    1       28.609 -19.072   5.280  0.00  0.00    -0.249 OA
BRANCH  21  23
ATOM     23  O   UNK    1       27.189 -20.329   4.033  0.00  0.00    -0.479 OA
ATOM     24  H   UNK    1       26.265 -20.007   3.892  0.00  0.00    +0.295 HD
ENDBRANCH  21  23
ENDBRANCH  17  21
ENDBRANCH  16  17
ENDBRANCH  15  16
ENDBRANCH  14  15
ENDBRANCH  12  14
ENDBRANCH   1  10
BRANCH   1  26
ATOM     25  C   UNK    1       24.221 -20.832   2.302  0.00  0.00    +0.197 C 
ATOM     26  O   UNK    1       23.647 -19.538   2.387  0.00  0.00    -0.349 OA
ENDBRANCH   1  26
BRANCH   4  27
ATOM     27  C   UNK    1       25.962 -14.970   2.786  0.00  0.00    +0.351 C 
ATOM     28  O   UNK    1       25.978 -14.228   1.814  0.00  0.00    -0.244 OA
BRANCH  27  29
ATOM     29  O   UNK    1       27.124 -15.446   3.271  0.00  0.00    -0.476 OA
ATOM     30  H   UNK    1       27.087 -15.983   4.095  0.00  0.00    +0.295 HD
ENDBRANCH  27  29
ENDBRANCH   4  27
BRANCH   5  31
ATOM     31  C   UNK    1       24.015 -13.067   4.144  0.00  0.00    +0.111 C 
BRANCH  31  32
ATOM     32  S   UNK    1       25.673 -12.620   3.533  0.00  0.00    -0.080 S 
BRANCH  32  33
ATOM     33  C   UNK    1       26.615 -13.075   4.905  0.00  0.00    +0.209 A 
ATOM     34  N   UNK    1       27.966 -12.913   4.997  0.00  0.00    -0.223 N 
ATOM     35  C   UNK    1       28.890 -12.353   4.051  0.00  0.00    +0.177 C 
ATOM     36  N   UNK    1       28.385 -13.349   6.198  0.00  0.00    -0.043 NA
ATOM     37  N   UNK    1       27.288 -13.767   6.818  0.00  0.00    -0.022 NA
ATOM     38  N   UNK    1       26.177 -13.607   6.021  0.00  0.00    -0.102 NA
ENDBRANCH  32  33
ENDBRANCH  31  32
ENDBRANCH   5  31
TORSDOF 14
ENDMDL
MODEL 2
REMARK VINA RESULT:       2.3      2.585      6.785
REMARK  Name = *****
REMARK                            x       y       z     vdW  Elec       q    Type
REMARK                         _______ _______ _______ _____ _____    ______ ____
ROOT
ATOM      1  C   UNK    1       23.916 -14.967   4.042  0.00  0.00    +0.242 C 
ATOM      2  C   UNK    1       24.295 -16.234   3.130  0.00  0.00    +0.199 C 
ATOM      3  N   UNK    1       23.123 -16.910   3.689  0.00  0.00    -0.244 N 
ATOM      4  C   UNK    1       22.830 -18.256   3.565  0.00  0.00    +0.123 C 
ATOM      5  C   UNK    1       23.754 -19.096   3.008  0.00  0.00    -0.021 C 
ATOM      6  C   UNK    1       25.178 -18.676   2.672  0.00  0.00    +0.104 C 
ATOM      7  S   UNK    1       25.741 -17.243   3.618  0.00  0.00    -0.129 S 
ATOM      8  C   UNK    1       22.938 -16.022   4.688  0.00  0.00    +0.275 C 
ATOM      9  O   UNK    1       22.251 -16.115   5.705  0.00  0.00    -0.270 OA
ENDROOT
BRANCH   1  10
ATOM     10  N   UNK    1       24.942 -14.474   5.004  0.00  0.00    -0.277 N 
ATOM     11  H   UNK    1       25.471 -15.144   5.549  0.00  0.00    +0.152 HD
ATOM     12  C   UNK    1       25.045 -13.131   5.286  0.00  0.00    +0.225 C 
ATOM     13  O   UNK    1       24.202 -12.349   4.857  0.00  0.00    -0.275 OA
BRANCH  12  14
ATOM     14  C   UNK    1       26.244 -12.744   6.142  0.00  0.00    +0.165 C 
BRANCH  14  15
ATOM     15  S   UNK    1       27.682 -12.200   5.146  0.00  0.00    -0.149 S 
BRANCH  15  16
ATOM     16  C   UNK    1       28.583 -13.795   5.006  0.00  0.00    +0.099 C 
BRANCH  16  17
ATOM     17  C   UNK    1       28.369 -14.497   3.659  0.00  0.00    +0.170 C 
BRANCH  17  18
ATOM     18  N   UNK    1       27.724 -15.842   3.783  0.00  0.00    -0.318 NA
ATOM     19  H   UNK    1       28.374 -16.513   3.353  0.00  0.00    +0.119 HD
ATOM     20  H   UNK    1       27.760 -16.111   4.775  0.00  0.00    +0.119 HD
ENDBRANCH  17  18
BRANCH  17  21
ATOM     21  C   UNK    1       27.483 -13.615   2.763  0.00  0.00    +0.323 C 
ATOM     22  O   UNK    1       26.533 -14.007   2.102  0.00  0.00    -0.249 OA
BRANCH  21  23
ATOM     23  O   UNK    1       27.856 -12.310   2.824  0.00  0.00    -0.479 OA
ATOM     24  H   UNK    1       27.069 -11.775   2.555  0.00  0.00    +0.295 HD
ENDBRANCH  21  23
ENDBRANCH  17  21
ENDBRANCH  16  17
ENDBRANCH  15  16
ENDBRANCH  14  15
ENDBRANCH  12  14
ENDBRANCH   1  10
BRANCH   1  26
ATOM     25  C   UNK    1       23.658 -13.246   2.297  0.00  0.00    +0.197 C 
ATOM     26  O   UNK    1       23.120 -13.915   3.426  0.00  0.00    -0.349 OA
ENDBRANCH   1  26
BRANCH   4  27
ATOM     27  C   UNK    1       21.455 -18.744   3.960  0.00  0.00    +0.351 C 
ATOM     28  O   UNK    1       20.416 -18.219   3.585  0.00  0.00    -0.244 OA
BRANCH  27  29
ATOM     29  O   UNK    1       21.397 -19.780   4.818  0.00  0.00    -0.476 OA
ATOM     30  H   UNK    1       20.900 -19.649   5.657  0.00  0.00    +0.295 HD
ENDBRANCH  27  29
ENDBRANCH   4  27
BRANCH   5  31
ATOM     31  C   UNK    1       23.549 -20.581   2.736  0.00  0.00    +0.111 C 
BRANCH  31  32
ATOM     32  S   UNK    1       24.969 -21.522   3.384  0.00  0.00    -0.080 S 
BRANCH  32  33
ATOM     33  C   UNK    1       24.828 -21.135   5.059  0.00  0.00    +0.209 A 
ATOM     34  N   UNK    1       25.824 -20.579   5.805  0.00  0.00    -0.223 N 
ATOM     35  C   UNK    1       27.151 -20.187   5.420  0.00  0.00    +0.177 C 
ATOM     36  N   UNK    1       25.385 -20.387   7.062  0.00  0.00    -0.043 NA
ATOM     37  N   UNK    1       24.132 -20.826   7.062  0.00  0.00    -0.022 NA
ATOM     38  N   UNK    1       23.773 -21.301   5.820  0.00  0.00    -0.102 NA
ENDBRANCH  32  33
ENDBRANCH  31  32
ENDBRANCH   5  31
TORSDOF 14
ENDMDL
MODEL 3
REMARK VINA RESULT:       3.1      2.123      3.204
REMARK  Name = *****
REMARK                            x       y       z     vdW  Elec       q    Type
REMARK                         _______ _______ _______ _____ _____    ______ ____
ROOT
ATOM      1  C   UNK    1       22.866 -16.346   4.533  0.00  0.00    +0.242 C 
ATOM      2  C   UNK    1       24.444 -16.047   4.489  0.00  0.00    +0.199 C 
ATOM      3  N   UNK    1       24.132 -14.850   3.706  0.00  0.00    -0.244 N 
ATOM      4  C   UNK    1       25.046 -14.070   3.021  0.00  0.00    +0.123 C 
ATOM      5  C   UNK    1       26.342 -14.492   2.915  0.00  0.00    -0.021 C 
ATOM      6  C   UNK    1       26.816 -15.871   3.353  0.00  0.00    +0.104 C 
ATOM      7  S   UNK    1       25.489 -17.095   3.415  0.00  0.00    -0.129 S 
ATOM      8  C   UNK    1       22.857 -15.207   3.444  0.00  0.00    +0.275 C 
ATOM      9  O   UNK    1       22.070 -14.755   2.613  0.00  0.00    -0.270 OA
ENDROOT
BRANCH   1  10
ATOM     10  N   UNK    1       22.394 -17.654   3.996  0.00  0.00    -0.277 N 
ATOM     11  H   UNK    1       21.988 -17.690   3.069  0.00  0.00    +0.152 HD
ATOM     12  C   UNK    1       22.339 -18.763   4.809  0.00  0.00    +0.225 C 
ATOM     13  O   UNK    1       22.541 -18.649   6.014  0.00  0.00    -0.275 OA
BRANCH  12  14
ATOM     14  C   UNK    1       22.012 -20.068   4.095  0.00  0.00    +0.165 C 
BRANCH  14  15
ATOM     15  S   UNK    1       22.361 -21.545   5.121  0.00  0.00    -0.149 S 
BRANCH  15  16
ATOM     16  C   UNK    1       23.880 -20.973   5.982  0.00  0.00    +0.099 C 
BRANCH  16  17
ATOM     17  C   UNK    1       25.165 -21.247   5.192  0.00  0.00    +0.170 C 
BRANCH  17  18
ATOM     18  N   UNK    1       25.071 -20.864   3.748  0.00  0.00    -0.318 NA
ATOM     19  H   UNK    1       24.096 -21.034   3.469  0.00  0.00    +0.119 HD
ATOM     20  H   UNK    1       25.134 -19.838   3.696  0.00  0.00    +0.119 HD
ENDBRANCH  17  18
BRANCH  17  21
ATOM     21  C   UNK    1       26.327 -20.463   5.826  0.00  0.00    +0.323 C 
ATOM     22  O   UNK    1       26.508 -20.310   7.024  0.00  0.00    -0.249 OA
BRANCH  21  23
ATOM     23  O   UNK    1       27.180 -19.986   4.881  0.00  0.00    -0.479 OA
ATOM     24  H   UNK    1       27.252 -20.682   4.183  0.00  0.00    +0.295 HD
ENDBRANCH  21  23
ENDBRANCH  17  21
ENDBRANCH  16  17
ENDBRANCH  15  16
ENDBRANCH  14  15
ENDBRANCH  12  14
ENDBRANCH   1  10
BRANCH   1  26
ATOM     25  C   UNK    1       22.336 -14.542   6.126  0.00  0.00    +0.197 C 
ATOM     26  O   UNK    1       22.130 -15.879   5.699  0.00  0.00    -0.349 OA
ENDBRANCH   1  26
BRANCH   4  27
ATOM     27  C   UNK    1       24.608 -12.722   2.493  0.00  0.00    +0.351 C 
ATOM     28  O   UNK    1       25.337 -11.976   1.856  0.00  0.00    -0.244 OA
BRANCH  27  29
ATOM     29  O   UNK    1       23.361 -12.320   2.804  0.00  0.00    -0.476 OA
ATOM     30  H   UNK    1       23.263 -11.668   3.534  0.00  0.00    +0.295 HD
ENDBRANCH  27  29
ENDBRANCH   4  27
BRANCH   5  31
ATOM     31  C   UNK    1       27.477 -13.712   2.261  0.00  0.00    +0.111 C 
BRANCH  31  32
ATOM     32  S   UNK    1       28.057 -12.412   3.399  0.00  0.00    -0.080 S 
BRANCH  32  33
ATOM     33  C   UNK    1       27.533 -13.087   4.897  0.00  0.00    +0.209 A 
ATOM     34  N   UNK    1       26.430 -12.672   5.583  0.00  0.00    -0.223 N 
ATOM     35  C   UNK    1       25.479 -11.648   5.258  0.00  0.00    +0.177 C 
ATOM     36  N   UNK    1       26.292 -13.416   6.695  0.00  0.00    -0.043 NA
ATOM     37  N   UNK    1       27.309 -14.270   6.670  0.00  0.00    -0.022 NA
ATOM     38  N   UNK    1       28.094 -14.073   5.556  0.00  0.00    -0.102 NA
ENDBRANCH  32  33
ENDBRANCH  31  32
ENDBRANCH   5  31
TORSDOF 14
ENDMDL
