MODEL 1
REMARK VINA RESULT:      -7.9      0.000      0.000
REMARK  Name = *****
REMARK                            x       y       z     vdW  Elec       q    Type
REMARK                         _______ _______ _______ _____ _____    ______ ____
ROOT
ATOM      1  C   LIG    1       26.064 -21.029   6.637  0.00  0.00    +0.086 C 
ENDROOT
BRANCH   1   2
ATOM      2  C   LIG    1       24.920 -20.412   5.795  0.00  0.00    -0.027 A 
ATOM      3  C   LIG    1       25.159 -19.882   4.509  0.00  0.00    +0.005 A 
ATOM      4  C   LIG    1       24.135 -19.303   3.750  0.00  0.00    +0.000 A 
ATOM      5  C   LIG    1       22.836 -19.269   4.240  0.00  0.00    +0.000 A 
ATOM      6  C   LIG    1       22.566 -19.787   5.501  0.00  0.00    +0.000 A 
ATOM      7  C   LIG    1       23.599 -20.324   6.280  0.00  0.00    +0.005 A 
ENDBRANCH   1   2
BRANCH   1   9
ATOM      8  C   LIG    1       25.957 -23.371   7.887  0.00  0.00    +0.009 C 
ATOM      9  C   LIG    1       26.053 -22.630   6.537  0.00  0.00    +0.007 C 
ATOM     10  C   LIG    1       24.999 -23.220   5.590  0.00  0.00    +0.009 C 
ENDBRANCH   1   9
BRANCH   1  11
ATOM     11  C   LIG    1       25.898 -20.735   8.099  0.00  0.00    +0.074 C 
ATOM     12  N   LIG    1       25.810 -20.513   9.231  0.00  0.00    -0.196 NA
ENDBRANCH   1  11
BRANCH   1  13
ATOM     13  C   LIG    1       27.505 -20.502   6.224  0.00  0.00    +0.045 C 
BRANCH  13  14
ATOM     14  C   LIG    1       28.566 -20.131   7.324  0.00  0.00    +0.055 C 
ATOM     15  C   LIG    1       29.346 -21.336   7.874  0.00  0.00    +0.024 C 
BRANCH  14  16
ATOM     16  N   LIG    1       29.455 -19.017   6.866  0.00  0.00    -0.306 NA
ATOM     17  C   LIG    1       29.192 -18.507   5.521  0.00  0.00    +0.105 C 
ATOM     18  C   LIG    1       30.885 -19.321   7.004  0.00  0.00    +0.105 C 
ENDBRANCH  14  16
ENDBRANCH  13  14
ENDBRANCH   1  13
TORSDOF 6
ENDMDL
MODEL 2
REMARK VINA RESULT:      -7.7      0.349      1.390
REMARK  Name = *****
REMARK                            x       y       z     vdW  Elec       q    Type
REMARK                         _______ _______ _______ _____ _____    ______ ____
ROOT
ATOM      1  C   LIG    1       26.076 -21.029   6.620  0.00  0.00    +0.086 C 
ENDROOT
BRANCH   1   2
ATOM      2  C   LIG    1       24.937 -20.394   5.783  0.00  0.00    -0.027 A 
ATOM      3  C   LIG    1       23.614 -20.335   6.271  0.00  0.00    +0.005 A 
ATOM      4  C   LIG    1       22.575 -19.782   5.512  0.00  0.00    +0.000 A 
ATOM      5  C   LIG    1       22.835 -19.240   4.260  0.00  0.00    +0.000 A 
ATOM      6  C   LIG    1       24.128 -19.278   3.754  0.00  0.00    +0.000 A 
ATOM      7  C   LIG    1       25.159 -19.874   4.492  0.00  0.00    +0.005 A 
ENDBRANCH   1   2
BRANCH   1   9
ATOM      8  C   LIG    1       25.894 -23.367   7.870  0.00  0.00    +0.009 C 
ATOM      9  C   LIG    1       26.037 -22.630   6.521  0.00  0.00    +0.007 C 
ATOM     10  C   LIG    1       24.996 -23.202   5.549  0.00  0.00    +0.009 C 
ENDBRANCH   1   9
BRANCH   1  11
ATOM     11  C   LIG    1       25.924 -20.731   8.082  0.00  0.00    +0.074 C 
ATOM     12  N   LIG    1       25.843 -20.485   9.210  0.00  0.00    -0.196 NA
ENDBRANCH   1  11
BRANCH   1  13
ATOM     13  C   LIG    1       27.523 -20.527   6.197  0.00  0.00    +0.045 C 
BRANCH  13  14
ATOM     14  C   LIG    1       28.618 -20.236   7.288  0.00  0.00    +0.055 C 
ATOM     15  C   LIG    1       29.234 -21.498   7.911  0.00  0.00    +0.024 C 
BRANCH  14  16
ATOM     16  N   LIG    1       29.645 -19.271   6.781  0.00  0.00    -0.306 NA
ATOM     17  C   LIG    1       30.197 -18.351   7.775  0.00  0.00    +0.105 C 
ATOM     18  C   LIG    1       29.200 -18.513   5.606  0.00  0.00    +0.105 C 
ENDBRANCH  14  16
ENDBRANCH  13  14
ENDBRANCH   1  13
TORSDOF 6
ENDMDL
MODEL 3
REMARK VINA RESULT:      -7.6      2.082      5.217
REMARK  Name = *****
REMARK                            x       y       z     vdW  Elec       q    Type
REMARK                         _______ _______ _______ _____ _____    ______ ____
ROOT
ATOM      1  C   LIG    1       24.793 -20.978   5.857  0.00  0.00    +0.086 C 
ENDROOT
BRANCH   1   2
ATOM      2  C   LIG    1       26.230 -20.542   6.238  0.00  0.00    -0.027 A 
ATOM      3  C   LIG    1       26.721 -20.700   7.551  0.00  0.00    +0.005 A 
ATOM      4  C   LIG    1       28.010 -20.287   7.908  0.00  0.00    +0.000 A 
ATOM      5  C   LIG    1       28.858 -19.739   6.955  0.00  0.00    +0.000 A 
ATOM      6  C   LIG    1       28.407 -19.575   5.652  0.00  0.00    +0.000 A 
ATOM      7  C   LIG    1       27.100 -19.943   5.304  0.00  0.00    +0.005 A 
ENDBRANCH   1   2
BRANCH   1   9
ATOM      8  C   LIG    1       24.253 -20.471   3.306  0.00  0.00    +0.009 C 
ATOM      9  C   LIG    1       24.160 -19.986   4.768  0.00  0.00    +0.007 C 
ATOM     10  C   LIG    1       22.712 -19.553   5.038  0.00  0.00    +0.009 C 
ENDBRANCH   1   9
BRANCH   1  11
ATOM     11  C   LIG    1       23.861 -20.904   7.030  0.00  0.00    +0.074 C 
ATOM     12  N   LIG    1       23.162 -20.877   7.952  0.00  0.00    -0.196 NA
ENDBRANCH   1  11
BRANCH   1  13
ATOM     13  C   LIG    1       24.713 -22.465   5.301  0.00  0.00    +0.045 C 
BRANCH  13  14
ATOM     14  C   LIG    1       24.688 -23.688   6.290  0.00  0.00    +0.055 C 
ATOM     15  C   LIG    1       23.276 -24.172   6.652  0.00  0.00    +0.024 C 
BRANCH  14  16
ATOM     16  N   LIG    1       25.580 -24.791   5.809  0.00  0.00    -0.306 NA
ATOM     17  C   LIG    1       25.131 -25.492   4.607  0.00  0.00    +0.105 C 
ATOM     18  C   LIG    1       25.907 -25.769   6.853  0.00  0.00    +0.105 C 
ENDBRANCH  14  16
ENDBRANCH  13  14
ENDBRANCH   1  13
TORSDOF 6
ENDMDL
MODEL 4
REMARK VINA RESULT:      -7.3      2.329      4.515
REMARK  Name = *****
REMARK                            x       y       z     vdW  Elec       q    Type
REMARK                         _______ _______ _______ _____ _____    ______ ____
ROOT
ATOM      1  C   LIG    1       25.158 -22.888   6.425  0.00  0.00    +0.086 C 
ENDROOT
BRANCH   1   2
ATOM      2  C   LIG    1       25.350 -24.371   6.021  0.00  0.00    -0.027 A 
ATOM      3  C   LIG    1       25.879 -25.315   6.927  0.00  0.00    +0.005 A 
ATOM      4  C   LIG    1       26.077 -26.652   6.563  0.00  0.00    +0.000 A 
ATOM      5  C   LIG    1       25.717 -27.093   5.296  0.00  0.00    +0.000 A 
ATOM      6  C   LIG    1       25.189 -26.189   4.383  0.00  0.00    +0.000 A 
ATOM      7  C   LIG    1       25.035 -24.841   4.730  0.00  0.00    +0.005 A 
ENDBRANCH   1   2
BRANCH   1   9
ATOM      8  C   LIG    1       23.218 -21.247   7.201  0.00  0.00    +0.009 C 
ATOM      9  C   LIG    1       23.782 -22.683   7.224  0.00  0.00    +0.007 C 
ATOM     10  C   LIG    1       22.652 -23.648   6.842  0.00  0.00    +0.009 C 
ENDBRANCH   1   9
BRANCH   1  11
ATOM     11  C   LIG    1       25.040 -21.996   5.224  0.00  0.00    +0.074 C 
ATOM     12  N   LIG    1       24.910 -21.315   4.298  0.00  0.00    -0.196 NA
ENDBRANCH   1  11
BRANCH   1  13
ATOM     13  C   LIG    1       26.351 -22.315   7.306  0.00  0.00    +0.045 C 
BRANCH  13  14
ATOM     14  C   LIG    1       26.499 -20.767   7.539  0.00  0.00    +0.055 C 
ATOM     15  C   LIG    1       26.064 -20.298   8.936  0.00  0.00    +0.024 C 
BRANCH  14  16
ATOM     16  N   LIG    1       27.868 -20.292   7.162  0.00  0.00    -0.306 NA
ATOM     17  C   LIG    1       28.047 -19.921   5.758  0.00  0.00    +0.105 C 
ATOM     18  C   LIG    1       28.935 -21.215   7.564  0.00  0.00    +0.105 C 
ENDBRANCH  14  16
ENDBRANCH  13  14
ENDBRANCH   1  13
TORSDOF 6
ENDMDL
MODEL 5
REMARK VINA RESULT:      -7.1      1.737      3.882
REMARK  Name = *****
REMARK                            x       y       z     vdW  Elec       q    Type
REMARK                         _______ _______ _______ _____ _____    ______ ____
ROOT
ATOM      1  C   LIG    1       25.170 -21.100   6.226  0.00  0.00    +0.086 C 
ENDROOT
BRANCH   1   2
ATOM      2  C   LIG    1       25.311 -22.640   6.143  0.00  0.00    -0.027 A 
ATOM      3  C   LIG    1       24.862 -23.359   5.015  0.00  0.00    +0.005 A 
ATOM      4  C   LIG    1       24.965 -24.753   4.941  0.00  0.00    +0.000 A 
ATOM      5  C   LIG    1       25.554 -25.466   5.978  0.00  0.00    +0.000 A 
ATOM      6  C   LIG    1       26.011 -24.788   7.101  0.00  0.00    +0.000 A 
ATOM      7  C   LIG    1       25.865 -23.398   7.196  0.00  0.00    +0.005 A 
ENDBRANCH   1   2
BRANCH   1   9
ATOM      8  C   LIG    1       22.767 -20.078   5.736  0.00  0.00    +0.009 C 
ATOM      9  C   LIG    1       23.724 -20.684   6.784  0.00  0.00    +0.007 C 
ATOM     10  C   LIG    1       22.971 -21.788   7.539  0.00  0.00    +0.009 C 
ENDBRANCH   1   9
BRANCH   1  11
ATOM     11  C   LIG    1       25.257 -20.460   4.872  0.00  0.00    +0.074 C 
ATOM     12  N   LIG    1       25.354 -19.944   3.842  0.00  0.00    -0.196 NA
ENDBRANCH   1  11
BRANCH   1  13
ATOM     13  C   LIG    1       26.282 -20.414   7.131  0.00  0.00    +0.045 C 
BRANCH  13  14
ATOM     14  C   LIG    1       27.807 -20.574   6.781  0.00  0.00    +0.055 C 
ATOM     15  C   LIG    1       28.282 -19.682   5.624  0.00  0.00    +0.024 C 
BRANCH  14  16
ATOM     16  N   LIG    1       28.659 -20.447   8.006  0.00  0.00    -0.306 NA
ATOM     17  C   LIG    1       29.374 -19.180   8.154  0.00  0.00    +0.105 C 
ATOM     18  C   LIG    1       29.599 -21.562   8.177  0.00  0.00    +0.105 C 
ENDBRANCH  14  16
ENDBRANCH  13  14
ENDBRANCH   1  13
TORSDOF 6
ENDMDL
MODEL 6
REMARK VINA RESULT:      -6.9      1.795      4.760
REMARK  Name = *****
REMARK                            x       y       z     vdW  Elec       q    Type
REMARK                         _______ _______ _______ _____ _____    ______ ____
ROOT
ATOM      1  C   LIG    1       26.057 -21.411   7.013  0.00  0.00    +0.086 C 
ENDROOT
BRANCH   1   2
ATOM      2  C   LIG    1       25.433 -22.809   6.778  0.00  0.00    -0.027 A 
ATOM      3  C   LIG    1       24.044 -23.023   6.901  0.00  0.00    +0.005 A 
ATOM      4  C   LIG    1       23.475 -24.288   6.712  0.00  0.00    +0.000 A 
ATOM      5  C   LIG    1       24.274 -25.368   6.359  0.00  0.00    +0.000 A 
ATOM      6  C   LIG    1       25.645 -25.190   6.224  0.00  0.00    +0.000 A 
ATOM      7  C   LIG    1       26.221 -23.935   6.460  0.00  0.00    +0.005 A 
ENDBRANCH   1   2
BRANCH   1   9
ATOM      8  C   LIG    1       28.222 -20.286   5.962  0.00  0.00    +0.009 C 
ATOM      9  C   LIG    1       27.646 -21.447   6.799  0.00  0.00    +0.007 C 
ATOM     10  C   LIG    1       28.478 -21.570   8.084  0.00  0.00    +0.009 C 
ENDBRANCH   1   9
BRANCH   1  11
ATOM     11  C   LIG    1       25.870 -20.950   8.428  0.00  0.00    +0.074 C 
ATOM     12  N   LIG    1       25.735 -20.558   9.508  0.00  0.00    -0.196 NA
ENDBRANCH   1  11
BRANCH   1  13
ATOM     13  C   LIG    1       25.442 -20.282   6.077  0.00  0.00    +0.045 C 
BRANCH  13  14
ATOM     14  C   LIG    1       24.086 -20.524   5.319  0.00  0.00    +0.055 C 
ATOM     15  C   LIG    1       22.837 -20.163   6.138  0.00  0.00    +0.024 C 
BRANCH  14  16
ATOM     16  N   LIG    1       24.102 -19.889   3.964  0.00  0.00    -0.306 NA
ATOM     17  C   LIG    1       25.408 -19.424   3.496  0.00  0.00    +0.105 C 
ATOM     18  C   LIG    1       23.117 -18.810   3.816  0.00  0.00    +0.105 C 
ENDBRANCH  14  16
ENDBRANCH  13  14
ENDBRANCH   1  13
TORSDOF 6
ENDMDL
MODEL 7
REMARK VINA RESULT:      -6.6      2.010      5.173
REMARK  Name = *****
REMARK                            x       y       z     vdW  Elec       q    Type
REMARK                         _______ _______ _______ _____ _____    ______ ____
ROOT
ATOM      1  C   LIG    1       25.898 -21.356   6.410  0.00  0.00    +0.086 C 
ENDROOT
BRANCH   1   2
ATOM      2  C   LIG    1       27.329 -20.769   6.491  0.00  0.00    -0.027 A 
ATOM      3  C   LIG    1       27.715 -19.665   5.700  0.00  0.00    +0.005 A 
ATOM      4  C   LIG    1       29.013 -19.143   5.751  0.00  0.00    +0.000 A 
ATOM      5  C   LIG    1       29.951 -19.684   6.621  0.00  0.00    +0.000 A 
ATOM      6  C   LIG    1       29.600 -20.768   7.416  0.00  0.00    +0.000 A 
ATOM      7  C   LIG    1       28.317 -21.322   7.331  0.00  0.00    +0.005 A 
ENDBRANCH   1   2
BRANCH   1   9
ATOM      8  C   LIG    1       23.658 -21.541   7.827  0.00  0.00    +0.009 C 
ATOM      9  C   LIG    1       24.966 -20.762   7.572  0.00  0.00    +0.007 C 
ATOM     10  C   LIG    1       25.662 -20.541   8.922  0.00  0.00    +0.009 C 
ENDBRANCH   1   9
BRANCH   1  11
ATOM     11  C   LIG    1       25.892 -22.839   6.634  0.00  0.00    +0.074 C 
ATOM     12  N   LIG    1       25.885 -23.977   6.846  0.00  0.00    -0.196 NA
ENDBRANCH   1  11
BRANCH   1  13
ATOM     13  C   LIG    1       25.191 -21.101   5.009  0.00  0.00    +0.045 C 
BRANCH  13  14
ATOM     14  C   LIG    1       24.507 -19.719   4.699  0.00  0.00    +0.055 C 
ATOM     15  C   LIG    1       25.268 -18.858   3.679  0.00  0.00    +0.024 C 
BRANCH  14  16
ATOM     16  N   LIG    1       23.061 -19.896   4.353  0.00  0.00    -0.306 NA
ATOM     17  C   LIG    1       22.219 -18.712   4.519  0.00  0.00    +0.105 C 
ATOM     18  C   LIG    1       22.438 -21.040   5.030  0.00  0.00    +0.105 C 
ENDBRANCH  14  16
ENDBRANCH  13  14
ENDBRANCH   1  13
TORSDOF 6
ENDMDL
MODEL 8
REMARK VINA RESULT:      -6.6      2.697      5.438
REMARK  Name = *****
REMARK                            x       y       z     vdW  Elec       q    Type
REMARK                         _______ _______ _______ _____ _____    ______ ____
ROOT
ATOM      1  C   LIG    1       24.784 -23.223   6.297  0.00  0.00    +0.086 C 
ENDROOT
BRANCH   1   2
ATOM      2  C   LIG    1       25.231 -24.680   6.019  0.00  0.00    -0.027 A 
ATOM      3  C   LIG    1       25.150 -25.238   4.725  0.00  0.00    +0.005 A 
ATOM      4  C   LIG    1       25.530 -26.560   4.470  0.00  0.00    +0.000 A 
ATOM      5  C   LIG    1       26.037 -27.352   5.492  0.00  0.00    +0.000 A 
ATOM      6  C   LIG    1       26.134 -26.831   6.776  0.00  0.00    +0.000 A 
ATOM      7  C   LIG    1       25.709 -25.523   7.042  0.00  0.00    +0.005 A 
ENDBRANCH   1   2
BRANCH   1   9
ATOM      8  C   LIG    1       27.053 -22.271   7.300  0.00  0.00    +0.009 C 
ATOM      9  C   LIG    1       25.569 -22.611   7.555  0.00  0.00    +0.007 C 
ATOM     10  C   LIG    1       24.904 -21.394   8.214  0.00  0.00    +0.009 C 
ENDBRANCH   1   9
BRANCH   1  11
ATOM     11  C   LIG    1       23.335 -23.148   6.676  0.00  0.00    +0.074 C 
ATOM     12  N   LIG    1       22.209 -23.116   6.938  0.00  0.00    -0.196 NA
ENDBRANCH   1  11
BRANCH   1  13
ATOM     13  C   LIG    1       24.983 -22.255   5.052  0.00  0.00    +0.045 C 
BRANCH  13  14
ATOM     14  C   LIG    1       24.849 -20.697   5.222  0.00  0.00    +0.055 C 
ATOM     15  C   LIG    1       26.112 -19.913   4.833  0.00  0.00    +0.024 C 
BRANCH  14  16
ATOM     16  N   LIG    1       23.612 -20.183   4.554  0.00  0.00    -0.306 NA
ATOM     17  C   LIG    1       23.817 -19.127   3.563  0.00  0.00    +0.105 C 
ATOM     18  C   LIG    1       22.569 -19.771   5.500  0.00  0.00    +0.105 C 
ENDBRANCH  14  16
ENDBRANCH  13  14
ENDBRANCH   1  13
TORSDOF 6
ENDMDL
MODEL 9
REMARK VINA RESULT:      -6.6      1.144      1.993
REMARK  Name = *****
REMARK                            x       y       z     vdW  Elec       q    Type
REMARK                         _______ _______ _______ _____ _____    ______ ____
ROOT
ATOM      1  C   LIG    1       25.665 -21.852   7.049  0.00  0.00    +0.086 C 
ENDROOT
BRANCH   1   2
ATOM      2  C   LIG    1       24.779 -21.072   6.046  0.00  0.00    -0.027 A 
ATOM      3  C   LIG    1       23.621 -20.386   6.470  0.00  0.00    +0.005 A 
ATOM      4  C   LIG    1       22.802 -19.698   5.567  0.00  0.00    +0.000 A 
ATOM      5  C   LIG    1       23.137 -19.645   4.220  0.00  0.00    +0.000 A 
ATOM      6  C   LIG    1       24.273 -20.307   3.772  0.00  0.00    +0.000 A 
ATOM      7  C   LIG    1       25.067 -21.035   4.667  0.00  0.00    +0.005 A 
ENDBRANCH   1   2
BRANCH   1   9
ATOM      8  C   LIG    1       23.606 -23.519   6.852  0.00  0.00    +0.009 C 
ATOM      9  C   LIG    1       25.046 -23.298   7.361  0.00  0.00    +0.007 C 
ATOM     10  C   LIG    1       25.902 -24.489   6.909  0.00  0.00    +0.009 C 
ENDBRANCH   1   9
BRANCH   1  11
ATOM     11  C   LIG    1       25.730 -21.167   8.382  0.00  0.00    +0.074 C 
ATOM     12  N   LIG    1       25.775 -20.604   9.392  0.00  0.00    -0.196 NA
ENDBRANCH   1  11
BRANCH   1  13
ATOM     13  C   LIG    1       27.165 -22.035   6.554  0.00  0.00    +0.045 C 
BRANCH  13  14
ATOM     14  C   LIG    1       28.151 -20.810   6.524  0.00  0.00    +0.055 C 
ATOM     15  C   LIG    1       27.577 -19.560   5.839  0.00  0.00    +0.024 C 
BRANCH  14  16
ATOM     16  N   LIG    1       28.707 -20.529   7.885  0.00  0.00    -0.306 NA
ATOM     17  C   LIG    1       29.273 -19.194   8.077  0.00  0.00    +0.105 C 
ATOM     18  C   LIG    1       29.670 -21.539   8.339  0.00  0.00    +0.105 C 
ENDBRANCH  14  16
ENDBRANCH  13  14
ENDBRANCH   1  13
TORSDOF 6
ENDMDL
