MODEL 1
REMARK VINA RESULT:      -4.2      0.000      0.000
REMARK  Name = *****
REMARK                            x       y       z     vdW  Elec       q    Type
REMARK                         _______ _______ _______ _____ _____    ______ ____
ROOT
ATOM      1  C   LIG    1       24.183 -17.600   3.729  0.00  0.00    +0.061 A 
ATOM      2  C   LIG    1       23.858 -18.957   3.824  0.00  0.00    +0.152 A 
ATOM      3  C   LIG    1       22.571 -19.334   4.194  0.00  0.00    +0.141 A 
ATOM      4  N   LIG    1       21.597 -18.458   4.521  0.00  0.00    -0.261 NA
ATOM      5  C   LIG    1       21.922 -17.153   4.458  0.00  0.00    +0.112 A 
ATOM      6  C   LIG    1       23.168 -16.689   4.063  0.00  0.00    +0.045 A 
ENDROOT
BRANCH   2   7
ATOM      7  S   LIG    1       25.008 -20.272   3.586  0.00  0.00    +0.106 S 
ATOM      8  O   LIG    1       25.696 -20.045   2.325  0.00  0.00    -0.146 OA
ATOM      9  O   LIG    1       24.269 -21.506   3.779  0.00  0.00    -0.146 OA
BRANCH   7  10
ATOM     10  N   LIG    1       26.031 -20.073   4.812  0.00  0.00    -0.076 NA
ATOM     11  C   LIG    1       25.800 -20.440   6.018  0.00  0.00    +0.299 C 
BRANCH  11  12
ATOM     12  N   LIG    1       26.648 -20.289   7.061  0.00  0.00    -0.296 N 
ATOM     13  H   LIG    1       26.215 -20.178   7.969  0.00  0.00    +0.151 HD
BRANCH  12  14
ATOM     14  C   LIG    1       28.084 -20.127   6.966  0.00  0.00    +0.068 C 
ATOM     15  C   LIG    1       28.427 -19.445   5.645  0.00  0.00    +0.027 C 
ATOM     16  C   LIG    1       28.749 -21.496   7.062  0.00  0.00    +0.027 C 
ENDBRANCH  12  14
ENDBRANCH  11  12
BRANCH  11  17
ATOM     17  O   LIG    1       24.682 -21.040   6.453  0.00  0.00    -0.481 OA
ATOM     18  H   LIG    1       24.510 -20.867   7.399  0.00  0.00    +0.295 HD
ENDBRANCH  11  17
ENDBRANCH   7  10
ENDBRANCH   2   7
BRANCH   1  19
ATOM     19  N   LIG    1       25.448 -17.138   3.319  0.00  0.00    -0.313 N 
ATOM     20  H   LIG    1       26.154 -17.864   3.172  0.00  0.00    +0.152 HD
BRANCH  19  24
ATOM     21  C   LIG    1       25.230 -12.287   2.210  0.00  0.00    +0.044 C 
ATOM     22  C   LIG    1       25.964 -13.464   2.779  0.00  0.00    -0.049 A 
ATOM     23  C   LIG    1       25.363 -14.734   2.774  0.00  0.00    +0.026 A 
ATOM     24  C   LIG    1       26.015 -15.848   3.315  0.00  0.00    +0.032 A 
ATOM     25  C   LIG    1       27.299 -15.677   3.845  0.00  0.00    +0.023 A 
ATOM     26  C   LIG    1       27.913 -14.423   3.845  0.00  0.00    +0.002 A 
ATOM     27  C   LIG    1       27.247 -13.320   3.314  0.00  0.00    +0.003 A 
ENDBRANCH  19  24
ENDBRANCH   1  19
TORSDOF 7
ENDMDL
MODEL 2
REMARK VINA RESULT:      -4.1      2.440      6.625
REMARK  Name = *****
REMARK                            x       y       z     vdW  Elec       q    Type
REMARK                         _______ _______ _______ _____ _____    ______ ____
ROOT
ATOM      1  C   LIG    1       27.312 -19.653   4.930  0.00  0.00    +0.061 A 
ATOM      2  C   LIG    1       27.348 -18.344   4.438  0.00  0.00    +0.152 A 
ATOM      3  C   LIG    1       28.397 -17.503   4.791  0.00  0.00    +0.141 A 
ATOM      4  N   LIG    1       29.390 -17.855   5.637  0.00  0.00    -0.261 NA
ATOM      5  C   LIG    1       29.335 -19.105   6.134  0.00  0.00    +0.112 A 
ATOM      6  C   LIG    1       28.346 -20.021   5.804  0.00  0.00    +0.045 A 
ENDROOT
BRANCH   2   7
ATOM      7  S   LIG    1       26.086 -17.625   3.439  0.00  0.00    +0.106 S 
ATOM      8  O   LIG    1       24.861 -17.580   4.223  0.00  0.00    -0.146 OA
ATOM      9  O   LIG    1       26.094 -18.348   2.180  0.00  0.00    -0.146 OA
BRANCH   7  10
ATOM     10  N   LIG    1       26.635 -16.133   3.194  0.00  0.00    -0.076 NA
ATOM     11  C   LIG    1       25.927 -15.071   3.302  0.00  0.00    +0.299 C 
BRANCH  11  12
ATOM     12  N   LIG    1       26.371 -13.807   3.108  0.00  0.00    -0.296 N 
ATOM     13  H   LIG    1       26.169 -13.404   2.202  0.00  0.00    +0.151 HD
BRANCH  12  14
ATOM     14  C   LIG    1       27.219 -13.061   4.013  0.00  0.00    +0.068 C 
ATOM     15  C   LIG    1       28.679 -13.278   3.628  0.00  0.00    +0.027 C 
ATOM     16  C   LIG    1       26.957 -13.525   5.442  0.00  0.00    +0.027 C 
ENDBRANCH  12  14
ENDBRANCH  11  12
BRANCH  11  17
ATOM     17  O   LIG    1       24.627 -15.027   3.632  0.00  0.00    -0.481 OA
ATOM     18  H   LIG    1       24.249 -15.916   3.775  0.00  0.00    +0.295 HD
ENDBRANCH  11  17
ENDBRANCH   7  10
ENDBRANCH   2   7
BRANCH   1  19
ATOM     19  N   LIG    1       26.309 -20.578   4.584  0.00  0.00    -0.313 N 
ATOM     20  H   LIG    1       26.415 -21.019   3.667  0.00  0.00    +0.152 HD
BRANCH  19  24
ATOM     21  C   LIG    1       21.337 -20.594   4.284  0.00  0.00    +0.044 C 
ATOM     22  C   LIG    1       22.599 -20.847   5.053  0.00  0.00    -0.049 A 
ATOM     23  C   LIG    1       23.845 -20.589   4.459  0.00  0.00    +0.026 A 
ATOM     24  C   LIG    1       25.041 -20.834   5.144  0.00  0.00    +0.032 A 
ATOM     25  C   LIG    1       24.971 -21.323   6.454  0.00  0.00    +0.023 A 
ATOM     26  C   LIG    1       23.739 -21.571   7.061  0.00  0.00    +0.002 A 
ATOM     27  C   LIG    1       22.556 -21.335   6.362  0.00  0.00    +0.003 A 
ENDBRANCH  19  24
ENDBRANCH   1  19
TORSDOF 7
ENDMDL
MODEL 3
REMARK VINA RESULT:      -3.7      1.376      4.614
REMARK  Name = *****
REMARK                            x       y       z     vdW  Elec       q    Type
REMARK                         _______ _______ _______ _____ _____    ______ ____
ROOT
ATOM      1  C   LIG    1       27.592 -18.410   4.664  0.00  0.00    +0.061 A 
ATOM      2  C   LIG    1       27.088 -19.620   5.154  0.00  0.00    +0.152 A 
ATOM      3  C   LIG    1       27.781 -20.304   6.146  0.00  0.00    +0.141 A 
ATOM      4  N   LIG    1       28.964 -19.896   6.654  0.00  0.00    -0.261 NA
ATOM      5  C   LIG    1       29.461 -18.746   6.159  0.00  0.00    +0.112 A 
ATOM      6  C   LIG    1       28.818 -17.981   5.197  0.00  0.00    +0.045 A 
ENDROOT
BRANCH   2   7
ATOM      7  S   LIG    1       25.642 -20.415   4.535  0.00  0.00    +0.106 S 
ATOM      8  O   LIG    1       25.369 -21.572   5.374  0.00  0.00    -0.146 OA
ATOM      9  O   LIG    1       25.853 -20.606   3.111  0.00  0.00    -0.146 OA
BRANCH   7  10
ATOM     10  N   LIG    1       24.504 -19.299   4.754  0.00  0.00    -0.076 NA
ATOM     11  C   LIG    1       23.260 -19.554   4.929  0.00  0.00    +0.299 C 
BRANCH  11  12
ATOM     12  N   LIG    1       22.289 -18.632   5.122  0.00  0.00    -0.296 N 
ATOM     13  H   LIG    1       21.665 -18.805   5.900  0.00  0.00    +0.151 HD
BRANCH  12  14
ATOM     14  C   LIG    1       21.985 -17.527   4.237  0.00  0.00    +0.068 C 
ATOM     15  C   LIG    1       21.957 -16.231   5.042  0.00  0.00    +0.027 C 
ATOM     16  C   LIG    1       20.640 -17.780   3.564  0.00  0.00    +0.027 C 
ENDBRANCH  12  14
ENDBRANCH  11  12
BRANCH  11  17
ATOM     17  O   LIG    1       22.708 -20.776   4.955  0.00  0.00    -0.481 OA
ATOM     18  H   LIG    1       21.746 -20.747   5.125  0.00  0.00    +0.295 HD
ENDBRANCH  11  17
ENDBRANCH   7  10
ENDBRANCH   2   7
BRANCH   1  19
ATOM     19  N   LIG    1       26.928 -17.636   3.694  0.00  0.00    -0.313 N 
ATOM     20  H   LIG    1       26.800 -18.087   2.784  0.00  0.00    +0.152 HD
BRANCH  19  24
ATOM     21  C   LIG    1       28.344 -12.860   3.728  0.00  0.00    +0.044 C 
ATOM     22  C   LIG    1       27.267 -13.902   3.670  0.00  0.00    -0.049 A 
ATOM     23  C   LIG    1       27.607 -15.264   3.714  0.00  0.00    +0.026 A 
ATOM     24  C   LIG    1       26.626 -16.261   3.643  0.00  0.00    +0.032 A 
ATOM     25  C   LIG    1       25.285 -15.870   3.549  0.00  0.00    +0.023 A 
ATOM     26  C   LIG    1       24.932 -14.519   3.517  0.00  0.00    +0.002 A 
ATOM     27  C   LIG    1       25.921 -13.539   3.576  0.00  0.00    +0.003 A 
ENDBRANCH  19  24
ENDBRANCH   1  19
TORSDOF 7
ENDMDL
MODEL 4
REMARK VINA RESULT:      -3.3      1.551      4.460
REMARK  Name = *****
REMARK                            x       y       z     vdW  Elec       q    Type
REMARK                         _______ _______ _______ _____ _____    ______ ____
ROOT
ATOM      1  C   LIG    1       26.730 -19.289   4.650  0.00  0.00    +0.061 A 
ATOM      2  C   LIG    1       25.684 -20.121   5.065  0.00  0.00    +0.152 A 
ATOM      3  C   LIG    1       25.899 -21.042   6.084  0.00  0.00    +0.141 A 
ATOM      4  N   LIG    1       27.092 -21.229   6.689  0.00  0.00    -0.261 NA
ATOM      5  C   LIG    1       28.104 -20.447   6.266  0.00  0.00    +0.112 A 
ATOM      6  C   LIG    1       27.968 -19.477   5.283  0.00  0.00    +0.045 A 
ENDROOT
BRANCH   2   7
ATOM      7  S   LIG    1       24.087 -20.154   4.320  0.00  0.00    +0.106 S 
ATOM      8  O   LIG    1       23.237 -21.026   5.115  0.00  0.00    -0.146 OA
ATOM      9  O   LIG    1       24.295 -20.456   2.915  0.00  0.00    -0.146 OA
BRANCH   7  10
ATOM     10  N   LIG    1       23.597 -18.629   4.465  0.00  0.00    -0.076 NA
ATOM     11  C   LIG    1       22.374 -18.250   4.406  0.00  0.00    +0.299 C 
BRANCH  11  12
ATOM     12  N   LIG    1       21.940 -16.975   4.533  0.00  0.00    -0.296 N 
ATOM     13  H   LIG    1       21.140 -16.723   3.966  0.00  0.00    +0.151 HD
BRANCH  12  14
ATOM     14  C   LIG    1       22.603 -15.927   5.280  0.00  0.00    +0.068 C 
ATOM     15  C   LIG    1       21.638 -15.362   6.318  0.00  0.00    +0.027 C 
ATOM     16  C   LIG    1       23.064 -14.840   4.316  0.00  0.00    +0.027 C 
ENDBRANCH  12  14
ENDBRANCH  11  12
BRANCH  11  17
ATOM     17  O   LIG    1       21.315 -19.051   4.214  0.00  0.00    -0.481 OA
ATOM     18  H   LIG    1       21.254 -19.374   3.295  0.00  0.00    +0.295 HD
ENDBRANCH  11  17
ENDBRANCH   7  10
ENDBRANCH   2   7
BRANCH   1  19
ATOM     19  N   LIG    1       26.580 -18.302   3.658  0.00  0.00    -0.313 N 
ATOM     20  H   LIG    1       26.467 -18.652   2.703  0.00  0.00    +0.152 HD
BRANCH  19  24
ATOM     21  C   LIG    1       25.439 -13.672   2.218  0.00  0.00    +0.044 C 
ATOM     22  C   LIG    1       26.301 -14.623   2.993  0.00  0.00    -0.049 A 
ATOM     23  C   LIG    1       26.036 -16.001   2.953  0.00  0.00    +0.026 A 
ATOM     24  C   LIG    1       26.810 -16.912   3.681  0.00  0.00    +0.032 A 
ATOM     25  C   LIG    1       27.880 -16.420   4.440  0.00  0.00    +0.023 A 
ATOM     26  C   LIG    1       28.163 -15.054   4.478  0.00  0.00    +0.002 A 
ATOM     27  C   LIG    1       27.375 -14.158   3.758  0.00  0.00    +0.003 A 
ENDBRANCH  19  24
ENDBRANCH   1  19
TORSDOF 7
ENDMDL
MODEL 5
REMARK VINA RESULT:      -2.2      3.093      5.433
REMARK  Name = *****
REMARK                            x       y       z     vdW  Elec       q    Type
REMARK                         _______ _______ _______ _____ _____    ______ ____
ROOT
ATOM      1  C   LIG    1       24.708 -14.821   4.033  0.00  0.00    +0.061 A 
ATOM      2  C   LIG    1       25.789 -13.934   4.081  0.00  0.00    +0.152 A 
ATOM      3  C   LIG    1       25.601 -12.644   4.564  0.00  0.00    +0.141 A 
ATOM      4  N   LIG    1       24.405 -12.157   4.959  0.00  0.00    -0.261 NA
ATOM      5  C   LIG    1       23.361 -13.004   4.882  0.00  0.00    +0.112 A 
ATOM      6  C   LIG    1       23.467 -14.318   4.450  0.00  0.00    +0.045 A 
ENDROOT
BRANCH   2   7
ATOM      7  S   LIG    1       27.405 -14.305   3.482  0.00  0.00    +0.106 S 
ATOM      8  O   LIG    1       28.189 -13.080   3.512  0.00  0.00    -0.146 OA
ATOM      9  O   LIG    1       27.227 -15.002   2.221  0.00  0.00    -0.146 OA
BRANCH   7  10
ATOM     10  N   LIG    1       27.962 -15.339   4.582  0.00  0.00    -0.076 NA
ATOM     11  C   LIG    1       27.988 -16.612   4.435  0.00  0.00    +0.299 C 
BRANCH  11  12
ATOM     12  N   LIG    1       28.458 -17.497   5.343  0.00  0.00    -0.296 N 
ATOM     13  H   LIG    1       28.871 -17.097   6.177  0.00  0.00    +0.151 HD
BRANCH  12  14
ATOM     14  C   LIG    1       28.553 -18.930   5.156  0.00  0.00    +0.068 C 
ATOM     15  C   LIG    1       27.159 -19.542   5.246  0.00  0.00    +0.027 C 
ATOM     16  C   LIG    1       29.474 -19.513   6.222  0.00  0.00    +0.027 C 
ENDBRANCH  12  14
ENDBRANCH  11  12
BRANCH  11  17
ATOM     17  O   LIG    1       27.561 -17.284   3.356  0.00  0.00    -0.481 OA
ATOM     18  H   LIG    1       26.589 -17.380   3.337  0.00  0.00    +0.295 HD
ENDBRANCH  11  17
ENDBRANCH   7  10
ENDBRANCH   2   7
BRANCH   1  19
ATOM     19  N   LIG    1       24.827 -16.155   3.600  0.00  0.00    -0.313 N 
ATOM     20  H   LIG    1       25.464 -16.307   2.813  0.00  0.00    +0.152 HD
BRANCH  19  24
ATOM     21  C   LIG    1       24.198 -21.097   3.624  0.00  0.00    +0.044 C 
ATOM     22  C   LIG    1       23.682 -19.714   3.887  0.00  0.00    -0.049 A 
ATOM     23  C   LIG    1       24.492 -18.600   3.615  0.00  0.00    +0.026 A 
ATOM     24  C   LIG    1       24.046 -17.297   3.869  0.00  0.00    +0.032 A 
ATOM     25  C   LIG    1       22.755 -17.123   4.382  0.00  0.00    +0.023 A 
ATOM     26  C   LIG    1       21.934 -18.221   4.644  0.00  0.00    +0.002 A 
ATOM     27  C   LIG    1       22.397 -19.513   4.399  0.00  0.00    +0.003 A 
ENDBRANCH  19  24
ENDBRANCH   1  19
TORSDOF 7
ENDMDL
MODEL 6
REMARK VINA RESULT:      -1.6      3.243      6.244
REMARK  Name = *****
REMARK                            x       y       z     vdW  Elec       q    Type
REMARK                         _______ _______ _______ _____ _____    ______ ____
ROOT
ATOM      1  C   LIG    1       26.418 -15.283   3.608  0.00  0.00    +0.061 A 
ATOM      2  C   LIG    1       25.651 -14.154   3.915  0.00  0.00    +0.152 A 
ATOM      3  C   LIG    1       26.281 -12.980   4.312  0.00  0.00    +0.141 A 
ATOM      4  N   LIG    1       27.618 -12.861   4.471  0.00  0.00    -0.261 NA
ATOM      5  C   LIG    1       28.350 -13.960   4.204  0.00  0.00    +0.112 A 
ATOM      6  C   LIG    1       27.806 -15.159   3.767  0.00  0.00    +0.045 A 
ENDROOT
BRANCH   2   7
ATOM      7  S   LIG    1       23.889 -14.122   3.920  0.00  0.00    +0.106 S 
ATOM      8  O   LIG    1       23.442 -13.707   2.599  0.00  0.00    -0.146 OA
ATOM      9  O   LIG    1       23.494 -13.343   5.080  0.00  0.00    -0.146 OA
BRANCH   7  10
ATOM     10  N   LIG    1       23.507 -15.665   4.167  0.00  0.00    -0.076 NA
ATOM     11  C   LIG    1       22.627 -16.071   5.005  0.00  0.00    +0.299 C 
BRANCH  11  12
ATOM     12  N   LIG    1       22.286 -17.362   5.222  0.00  0.00    -0.296 N 
ATOM     13  H   LIG    1       22.283 -17.660   6.190  0.00  0.00    +0.151 HD
BRANCH  12  14
ATOM     14  C   LIG    1       22.077 -18.365   4.200  0.00  0.00    +0.068 C 
ATOM     15  C   LIG    1       20.743 -18.107   3.507  0.00  0.00    +0.027 C 
ATOM     16  C   LIG    1       22.099 -19.748   4.842  0.00  0.00    +0.027 C 
ENDBRANCH  12  14
ENDBRANCH  11  12
BRANCH  11  17
ATOM     17  O   LIG    1       21.888 -15.288   5.805  0.00  0.00    -0.481 OA
ATOM     18  H   LIG    1       22.359 -15.043   6.625  0.00  0.00    +0.295 HD
ENDBRANCH  11  17
ENDBRANCH   7  10
ENDBRANCH   2   7
BRANCH   1  19
ATOM     19  N   LIG    1       25.858 -16.494   3.157  0.00  0.00    -0.313 N 
ATOM     20  H   LIG    1       25.088 -16.400   2.489  0.00  0.00    +0.152 HD
BRANCH  19  24
ATOM     21  C   LIG    1       28.196 -19.944   5.885  0.00  0.00    +0.044 C 
ATOM     22  C   LIG    1       27.095 -19.546   4.948  0.00  0.00    -0.049 A 
ATOM     23  C   LIG    1       27.003 -18.220   4.497  0.00  0.00    +0.026 A 
ATOM     24  C   LIG    1       25.976 -17.813   3.638  0.00  0.00    +0.032 A 
ATOM     25  C   LIG    1       25.045 -18.769   3.213  0.00  0.00    +0.023 A 
ATOM     26  C   LIG    1       25.131 -20.094   3.643  0.00  0.00    +0.002 A 
ATOM     27  C   LIG    1       26.153 -20.481   4.509  0.00  0.00    +0.003 A 
ENDBRANCH  19  24
ENDBRANCH   1  19
TORSDOF 7
ENDMDL
MODEL 7
REMARK VINA RESULT:      -1.5      1.628      2.278
REMARK  Name = *****
REMARK                            x       y       z     vdW  Elec       q    Type
REMARK                         _______ _______ _______ _____ _____    ______ ____
ROOT
ATOM      1  C   LIG    1       22.519 -17.811   4.119  0.00  0.00    +0.061 A 
ATOM      2  C   LIG    1       22.268 -19.163   4.376  0.00  0.00    +0.152 A 
ATOM      3  C   LIG    1       21.058 -19.726   3.986  0.00  0.00    +0.141 A 
ATOM      4  N   LIG    1       20.060 -19.030   3.399  0.00  0.00    -0.261 NA
ATOM      5  C   LIG    1       20.294 -17.722   3.182  0.00  0.00    +0.112 A 
ATOM      6  C   LIG    1       21.485 -17.089   3.504  0.00  0.00    +0.045 A 
ENDROOT
BRANCH   2   7
ATOM      7  S   LIG    1       23.364 -20.226   5.258  0.00  0.00    +0.106 S 
ATOM      8  O   LIG    1       23.212 -21.571   4.726  0.00  0.00    -0.146 OA
ATOM      9  O   LIG    1       23.120 -19.989   6.669  0.00  0.00    -0.146 OA
BRANCH   7  10
ATOM     10  N   LIG    1       24.812 -19.643   4.868  0.00  0.00    -0.076 NA
ATOM     11  C   LIG    1       25.926 -20.193   5.183  0.00  0.00    +0.299 C 
BRANCH  11  12
ATOM     12  N   LIG    1       27.153 -19.724   4.860  0.00  0.00    -0.296 N 
ATOM     13  H   LIG    1       27.406 -19.789   3.881  0.00  0.00    +0.151 HD
BRANCH  12  14
ATOM     14  C   LIG    1       28.165 -19.286   5.797  0.00  0.00    +0.068 C 
ATOM     15  C   LIG    1       29.031 -18.216   5.139  0.00  0.00    +0.027 C 
ATOM     16  C   LIG    1       29.006 -20.484   6.222  0.00  0.00    +0.027 C 
ENDBRANCH  12  14
ENDBRANCH  11  12
BRANCH  11  17
ATOM     17  O   LIG    1       26.067 -21.329   5.883  0.00  0.00    -0.481 OA
ATOM     18  H   LIG    1       25.463 -21.372   6.649  0.00  0.00    +0.295 HD
ENDBRANCH  11  17
ENDBRANCH   7  10
ENDBRANCH   2   7
BRANCH   1  19
ATOM     19  N   LIG    1       23.735 -17.179   4.443  0.00  0.00    -0.313 N 
ATOM     20  H   LIG    1       24.289 -17.638   5.170  0.00  0.00    +0.152 HD
BRANCH  19  24
ATOM     21  C   LIG    1       27.276 -14.180   2.632  0.00  0.00    +0.044 C 
ATOM     22  C   LIG    1       25.939 -14.377   3.283  0.00  0.00    -0.049 A 
ATOM     23  C   LIG    1       25.478 -15.675   3.556  0.00  0.00    +0.026 A 
ATOM     24  C   LIG    1       24.226 -15.892   4.145  0.00  0.00    +0.032 A 
ATOM     25  C   LIG    1       23.446 -14.780   4.481  0.00  0.00    +0.023 A 
ATOM     26  C   LIG    1       23.897 -13.484   4.226  0.00  0.00    +0.002 A 
ATOM     27  C   LIG    1       25.140 -13.283   3.628  0.00  0.00    +0.003 A 
ENDBRANCH  19  24
ENDBRANCH   1  19
TORSDOF 7
ENDMDL
