MODEL 1
REMARK VINA RESULT:      -4.4      0.000      0.000
REMARK  Name = *****
REMARK                            x       y       z     vdW  Elec       q    Type
REMARK                         _______ _______ _______ _____ _____    ______ ____
ROOT
ATOM      1  C   LIG    1       24.081 -17.509   3.950  0.00  0.00    +0.147 A 
ATOM      2  N   LIG    1       23.881 -18.872   4.069  0.00  0.00    -0.318 N 
ATOM      3  C   LIG    1       22.584 -19.053   4.492  0.00  0.00    +0.200 A 
ATOM      4  N   LIG    1       21.973 -17.918   4.724  0.00  0.00    -0.243 NA
ATOM      5  C   LIG    1       22.888 -16.959   4.403  0.00  0.00    +0.145 A 
ENDROOT
BRANCH   1   6
ATOM      6  C   LIG    1       25.240 -16.814   3.469  0.00  0.00    +0.357 C 
ATOM      7  O   LIG    1       26.209 -17.322   2.934  0.00  0.00    -0.243 OA
BRANCH   6   8
ATOM      8  O   LIG    1       25.083 -15.469   3.680  0.00  0.00    -0.460 OA
BRANCH   8  10
ATOM      9  C   LIG    1       26.373 -13.780   2.525  0.00  0.00    +0.048 C 
ATOM     10  C   LIG    1       26.288 -14.695   3.731  0.00  0.00    +0.229 C 
ENDBRANCH   8  10
ENDBRANCH   6   8
ENDBRANCH   1   6
BRANCH   2  11
ATOM     11  C   LIG    1       24.830 -19.958   3.782  0.00  0.00    +0.116 C 
ATOM     12  C   LIG    1       24.131 -21.223   3.257  0.00  0.00    +0.036 C 
BRANCH  11  13
ATOM     13  C   LIG    1       25.743 -20.275   4.967  0.00  0.00    -0.025 A 
ATOM     14  C   LIG    1       25.369 -21.150   6.002  0.00  0.00    +0.006 A 
ATOM     15  C   LIG    1       26.254 -21.467   7.037  0.00  0.00    +0.000 A 
ATOM     16  C   LIG    1       27.532 -20.920   7.062  0.00  0.00    +0.000 A 
ATOM     17  C   LIG    1       27.925 -20.046   6.052  0.00  0.00    +0.000 A 
ATOM     18  C   LIG    1       27.041 -19.728   5.014  0.00  0.00    +0.006 A 
ENDBRANCH  11  13
ENDBRANCH   2  11
TORSDOF 5
ENDMDL
MODEL 2
REMARK VINA RESULT:      -3.1      2.038      5.000
REMARK  Name = *****
REMARK                            x       y       z     vdW  Elec       q    Type
REMARK                         _______ _______ _______ _____ _____    ______ ____
ROOT
ATOM      1  C   LIG    1       23.698 -19.706   4.695  0.00  0.00    +0.147 A 
ATOM      2  N   LIG    1       23.919 -18.566   3.944  0.00  0.00    -0.318 N 
ATOM      3  C   LIG    1       22.716 -17.904   3.857  0.00  0.00    +0.200 A 
ATOM      4  N   LIG    1       21.739 -18.568   4.423  0.00  0.00    -0.243 NA
ATOM      5  C   LIG    1       22.330 -19.685   4.934  0.00  0.00    +0.145 A 
ENDROOT
BRANCH   1   6
ATOM      6  C   LIG    1       24.651 -20.686   5.134  0.00  0.00    +0.357 C 
ATOM      7  O   LIG    1       25.133 -21.572   4.451  0.00  0.00    -0.243 OA
BRANCH   6   8
ATOM      8  O   LIG    1       24.963 -20.458   6.448  0.00  0.00    -0.460 OA
BRANCH   8  10
ATOM      9  C   LIG    1       27.303 -20.473   7.059  0.00  0.00    +0.048 C 
ATOM     10  C   LIG    1       26.013 -21.265   6.996  0.00  0.00    +0.229 C 
ENDBRANCH   8  10
ENDBRANCH   6   8
ENDBRANCH   1   6
BRANCH   2  11
ATOM     11  C   LIG    1       25.182 -18.095   3.357  0.00  0.00    +0.116 C 
ATOM     12  C   LIG    1       26.396 -18.896   3.860  0.00  0.00    +0.036 C 
BRANCH  11  13
ATOM     13  C   LIG    1       25.392 -16.590   3.535  0.00  0.00    -0.025 A 
ATOM     14  C   LIG    1       24.357 -15.718   3.912  0.00  0.00    +0.006 A 
ATOM     15  C   LIG    1       24.599 -14.357   4.128  0.00  0.00    +0.000 A 
ATOM     16  C   LIG    1       25.881 -13.839   3.975  0.00  0.00    +0.000 A 
ATOM     17  C   LIG    1       26.922 -14.681   3.597  0.00  0.00    +0.000 A 
ATOM     18  C   LIG    1       26.682 -16.044   3.381  0.00  0.00    +0.006 A 
ENDBRANCH  11  13
ENDBRANCH   2  11
TORSDOF 5
ENDMDL
MODEL 3
REMARK VINA RESULT:      -3.0      2.609      4.198
REMARK  Name = *****
REMARK                            x       y       z     vdW  Elec       q    Type
REMARK                         _______ _______ _______ _____ _____    ______ ____
ROOT
ATOM      1  C   LIG    1       25.406 -14.760   3.762  0.00  0.00    +0.147 A 
ATOM      2  N   LIG    1       24.946 -16.059   3.652  0.00  0.00    -0.318 N 
ATOM      3  C   LIG    1       26.040 -16.852   3.389  0.00  0.00    +0.200 A 
ATOM      4  N   LIG    1       27.139 -16.153   3.247  0.00  0.00    -0.243 NA
ATOM      5  C   LIG    1       26.759 -14.862   3.465  0.00  0.00    +0.145 A 
ENDROOT
BRANCH   1   6
ATOM      6  C   LIG    1       24.670 -13.577   4.107  0.00  0.00    +0.357 C 
ATOM      7  O   LIG    1       24.746 -12.967   5.158  0.00  0.00    -0.243 OA
BRANCH   6   8
ATOM      8  O   LIG    1       23.876 -13.214   3.051  0.00  0.00    -0.460 OA
BRANCH   8  10
ATOM      9  C   LIG    1       24.982 -11.451   1.819  0.00  0.00    +0.048 C 
ATOM     10  C   LIG    1       23.837 -11.815   2.744  0.00  0.00    +0.229 C 
ENDBRANCH   8  10
ENDBRANCH   6   8
ENDBRANCH   1   6
BRANCH   2  11
ATOM     11  C   LIG    1       23.569 -16.552   3.808  0.00  0.00    +0.116 C 
ATOM     12  C   LIG    1       22.786 -15.771   4.877  0.00  0.00    +0.036 C 
BRANCH  11  13
ATOM     13  C   LIG    1       23.505 -18.059   4.058  0.00  0.00    -0.025 A 
ATOM     14  C   LIG    1       24.562 -18.929   3.739  0.00  0.00    +0.006 A 
ATOM     15  C   LIG    1       24.495 -20.293   4.040  0.00  0.00    +0.000 A 
ATOM     16  C   LIG    1       23.372 -20.818   4.670  0.00  0.00    +0.000 A 
ATOM     17  C   LIG    1       22.308 -19.979   4.991  0.00  0.00    +0.000 A 
ATOM     18  C   LIG    1       22.375 -18.613   4.691  0.00  0.00    +0.006 A 
ENDBRANCH  11  13
ENDBRANCH   2  11
TORSDOF 5
ENDMDL
MODEL 4
REMARK VINA RESULT:      -3.0      1.383      2.212
REMARK  Name = *****
REMARK                            x       y       z     vdW  Elec       q    Type
REMARK                         _______ _______ _______ _____ _____    ______ ____
ROOT
ATOM      1  C   LIG    1       24.131 -16.447   4.004  0.00  0.00    +0.147 A 
ATOM      2  N   LIG    1       23.174 -17.422   4.215  0.00  0.00    -0.318 N 
ATOM      3  C   LIG    1       22.107 -16.811   4.833  0.00  0.00    +0.200 A 
ATOM      4  N   LIG    1       22.340 -15.550   5.099  0.00  0.00    -0.243 NA
ATOM      5  C   LIG    1       23.588 -15.317   4.602  0.00  0.00    +0.145 A 
ENDROOT
BRANCH   1   6
ATOM      6  C   LIG    1       25.390 -16.562   3.325  0.00  0.00    +0.357 C 
ATOM      7  O   LIG    1       25.906 -17.597   2.945  0.00  0.00    -0.243 OA
BRANCH   6   8
ATOM      8  O   LIG    1       25.922 -15.313   3.142  0.00  0.00    -0.460 OA
BRANCH   8  10
ATOM      9  C   LIG    1       27.744 -13.729   3.283  0.00  0.00    +0.048 C 
ATOM     10  C   LIG    1       27.241 -15.108   3.662  0.00  0.00    +0.229 C 
ENDBRANCH   8  10
ENDBRANCH   6   8
ENDBRANCH   1   6
BRANCH   2  11
ATOM     11  C   LIG    1       23.227 -18.844   3.843  0.00  0.00    +0.116 C 
ATOM     12  C   LIG    1       21.859 -19.383   3.392  0.00  0.00    +0.036 C 
BRANCH  11  13
ATOM     13  C   LIG    1       23.840 -19.720   4.937  0.00  0.00    -0.025 A 
ATOM     14  C   LIG    1       25.202 -20.067   4.959  0.00  0.00    +0.006 A 
ATOM     15  C   LIG    1       25.741 -20.816   6.009  0.00  0.00    +0.000 A 
ATOM     16  C   LIG    1       24.934 -21.234   7.062  0.00  0.00    +0.000 A 
ATOM     17  C   LIG    1       23.580 -20.909   7.060  0.00  0.00    +0.000 A 
ATOM     18  C   LIG    1       23.038 -20.157   6.010  0.00  0.00    +0.006 A 
ENDBRANCH  11  13
ENDBRANCH   2  11
TORSDOF 5
ENDMDL
MODEL 5
REMARK VINA RESULT:      -3.0      2.348      5.359
REMARK  Name = *****
REMARK                            x       y       z     vdW  Elec       q    Type
REMARK                         _______ _______ _______ _____ _____    ______ ____
ROOT
ATOM      1  C   LIG    1       24.009 -20.509   4.970  0.00  0.00    +0.147 A 
ATOM      2  N   LIG    1       23.571 -19.459   4.184  0.00  0.00    -0.318 N 
ATOM      3  C   LIG    1       23.930 -19.750   2.888  0.00  0.00    +0.200 A 
ATOM      4  N   LIG    1       24.625 -20.857   2.800  0.00  0.00    -0.243 NA
ATOM      5  C   LIG    1       24.688 -21.328   4.078  0.00  0.00    +0.145 A 
ENDROOT
BRANCH   1   6
ATOM      6  C   LIG    1       23.811 -20.717   6.376  0.00  0.00    +0.357 C 
ATOM      7  O   LIG    1       22.832 -21.224   6.894  0.00  0.00    -0.243 OA
BRANCH   6   8
ATOM      8  O   LIG    1       24.914 -20.276   7.059  0.00  0.00    -0.460 OA
BRANCH   8  10
ATOM      9  C   LIG    1       27.323 -20.360   6.869  0.00  0.00    +0.048 C 
ATOM     10  C   LIG    1       26.046 -21.154   7.060  0.00  0.00    +0.229 C 
ENDBRANCH   8  10
ENDBRANCH   6   8
ENDBRANCH   1   6
BRANCH   2  11
ATOM     11  C   LIG    1       22.833 -18.257   4.602  0.00  0.00    +0.116 C 
ATOM     12  C   LIG    1       21.390 -18.242   4.071  0.00  0.00    +0.036 C 
BRANCH  11  13
ATOM     13  C   LIG    1       23.569 -16.961   4.258  0.00  0.00    -0.025 A 
ATOM     14  C   LIG    1       23.033 -15.690   4.523  0.00  0.00    +0.006 A 
ATOM     15  C   LIG    1       23.761 -14.526   4.254  0.00  0.00    +0.000 A 
ATOM     16  C   LIG    1       25.041 -14.607   3.717  0.00  0.00    +0.000 A 
ATOM     17  C   LIG    1       25.592 -15.855   3.439  0.00  0.00    +0.000 A 
ATOM     18  C   LIG    1       24.865 -17.021   3.709  0.00  0.00    +0.006 A 
ENDBRANCH  11  13
ENDBRANCH   2  11
TORSDOF 5
ENDMDL
MODEL 6
REMARK VINA RESULT:      -3.0      2.085      5.130
REMARK  Name = *****
REMARK                            x       y       z     vdW  Elec       q    Type
REMARK                         _______ _______ _______ _____ _____    ______ ____
ROOT
ATOM      1  C   LIG    1       23.503 -19.215   3.965  0.00  0.00    +0.147 A 
ATOM      2  N   LIG    1       24.043 -17.950   3.822  0.00  0.00    -0.318 N 
ATOM      3  C   LIG    1       23.137 -17.064   4.357  0.00  0.00    +0.200 A 
ATOM      4  N   LIG    1       22.037 -17.654   4.755  0.00  0.00    -0.243 NA
ATOM      5  C   LIG    1       22.248 -18.979   4.509  0.00  0.00    +0.145 A 
ENDROOT
BRANCH   1   6
ATOM      6  C   LIG    1       24.093 -20.481   3.635  0.00  0.00    +0.357 C 
ATOM      7  O   LIG    1       24.567 -20.791   2.558  0.00  0.00    -0.243 OA
BRANCH   6   8
ATOM      8  O   LIG    1       24.068 -21.294   4.738  0.00  0.00    -0.460 OA
BRANCH   8  10
ATOM      9  C   LIG    1       24.512 -20.793   7.062  0.00  0.00    +0.048 C 
ATOM     10  C   LIG    1       25.109 -21.085   5.699  0.00  0.00    +0.229 C 
ENDBRANCH   8  10
ENDBRANCH   6   8
ENDBRANCH   1   6
BRANCH   2  11
ATOM     11  C   LIG    1       25.343 -17.577   3.245  0.00  0.00    +0.116 C 
ATOM     12  C   LIG    1       26.483 -18.490   3.730  0.00  0.00    +0.036 C 
BRANCH  11  13
ATOM     13  C   LIG    1       25.682 -16.100   3.455  0.00  0.00    -0.025 A 
ATOM     14  C   LIG    1       24.698 -15.111   3.619  0.00  0.00    +0.006 A 
ATOM     15  C   LIG    1       25.044 -13.780   3.873  0.00  0.00    +0.000 A 
ATOM     16  C   LIG    1       26.381 -13.408   3.973  0.00  0.00    +0.000 A 
ATOM     17  C   LIG    1       27.375 -14.368   3.808  0.00  0.00    +0.000 A 
ATOM     18  C   LIG    1       27.030 -15.702   3.555  0.00  0.00    +0.006 A 
ENDBRANCH  11  13
ENDBRANCH   2  11
TORSDOF 5
ENDMDL
MODEL 7
REMARK VINA RESULT:      -2.9      2.135      3.177
REMARK  Name = *****
REMARK                            x       y       z     vdW  Elec       q    Type
REMARK                         _______ _______ _______ _____ _____    ______ ____
ROOT
ATOM      1  C   LIG    1       22.940 -19.803   5.168  0.00  0.00    +0.147 A 
ATOM      2  N   LIG    1       24.273 -20.171   5.199  0.00  0.00    -0.318 N 
ATOM      3  C   LIG    1       24.369 -21.265   6.028  0.00  0.00    +0.200 A 
ATOM      4  N   LIG    1       23.222 -21.572   6.583  0.00  0.00    -0.243 NA
ATOM      5  C   LIG    1       22.337 -20.672   6.068  0.00  0.00    +0.145 A 
ENDROOT
BRANCH   1   6
ATOM      6  C   LIG    1       22.315 -18.772   4.390  0.00  0.00    +0.357 C 
ATOM      7  O   LIG    1       21.258 -18.866   3.794  0.00  0.00    -0.243 OA
BRANCH   6   8
ATOM      8  O   LIG    1       23.083 -17.638   4.440  0.00  0.00    -0.460 OA
BRANCH   8  10
ATOM      9  C   LIG    1       23.318 -15.231   4.452  0.00  0.00    +0.048 C 
ATOM     10  C   LIG    1       22.377 -16.406   4.630  0.00  0.00    +0.229 C 
ENDBRANCH   8  10
ENDBRANCH   6   8
ENDBRANCH   1   6
BRANCH   2  11
ATOM     11  C   LIG    1       25.401 -19.561   4.479  0.00  0.00    +0.116 C 
ATOM     12  C   LIG    1       25.491 -20.039   3.020  0.00  0.00    +0.036 C 
BRANCH  11  13
ATOM     13  C   LIG    1       26.733 -19.737   5.209  0.00  0.00    -0.025 A 
ATOM     14  C   LIG    1       27.848 -18.918   4.963  0.00  0.00    +0.006 A 
ATOM     15  C   LIG    1       29.031 -19.066   5.694  0.00  0.00    +0.000 A 
ATOM     16  C   LIG    1       29.126 -20.033   6.689  0.00  0.00    +0.000 A 
ATOM     17  C   LIG    1       28.038 -20.861   6.948  0.00  0.00    +0.000 A 
ATOM     18  C   LIG    1       26.852 -20.713   6.217  0.00  0.00    +0.006 A 
ENDBRANCH  11  13
ENDBRANCH   2  11
TORSDOF 5
ENDMDL
MODEL 8
REMARK VINA RESULT:      -2.8      2.657      6.063
REMARK  Name = *****
REMARK                            x       y       z     vdW  Elec       q    Type
REMARK                         _______ _______ _______ _____ _____    ______ ____
ROOT
ATOM      1  C   LIG    1       23.679 -18.527   3.937  0.00  0.00    +0.147 A 
ATOM      2  N   LIG    1       24.408 -17.352   3.918  0.00  0.00    -0.318 N 
ATOM      3  C   LIG    1       25.583 -17.619   3.253  0.00  0.00    +0.200 A 
ATOM      4  N   LIG    1       25.691 -18.882   2.919  0.00  0.00    -0.243 NA
ATOM      5  C   LIG    1       24.528 -19.453   3.345  0.00  0.00    +0.145 A 
ENDROOT
BRANCH   1   6
ATOM      6  C   LIG    1       22.355 -18.749   4.444  0.00  0.00    +0.357 C 
ATOM      7  O   LIG    1       21.316 -18.560   3.839  0.00  0.00    -0.243 OA
BRANCH   6   8
ATOM      8  O   LIG    1       22.434 -19.237   5.722  0.00  0.00    -0.460 OA
BRANCH   8  10
ATOM      9  C   LIG    1       23.600 -20.878   7.062  0.00  0.00    +0.048 C 
ATOM     10  C   LIG    1       22.729 -20.634   5.845  0.00  0.00    +0.229 C 
ENDBRANCH   8  10
ENDBRANCH   6   8
ENDBRANCH   1   6
BRANCH   2  11
ATOM     11  C   LIG    1       24.031 -16.039   4.461  0.00  0.00    +0.116 C 
ATOM     12  C   LIG    1       22.506 -15.841   4.507  0.00  0.00    +0.036 C 
BRANCH  11  13
ATOM     13  C   LIG    1       24.723 -14.880   3.743  0.00  0.00    -0.025 A 
ATOM     14  C   LIG    1       26.086 -14.903   3.401  0.00  0.00    +0.006 A 
ATOM     15  C   LIG    1       26.672 -13.852   2.687  0.00  0.00    +0.000 A 
ATOM     16  C   LIG    1       25.909 -12.757   2.297  0.00  0.00    +0.000 A 
ATOM     17  C   LIG    1       24.558 -12.707   2.629  0.00  0.00    +0.000 A 
ATOM     18  C   LIG    1       23.970 -13.758   3.342  0.00  0.00    +0.006 A 
ENDBRANCH  11  13
ENDBRANCH   2  11
TORSDOF 5
ENDMDL
MODEL 9
REMARK VINA RESULT:      -2.6      2.571      3.804
REMARK  Name = *****
REMARK                            x       y       z     vdW  Elec       q    Type
REMARK                         _______ _______ _______ _____ _____    ______ ____
ROOT
ATOM      1  C   LIG    1       25.176 -15.466   3.555  0.00  0.00    +0.147 A 
ATOM      2  N   LIG    1       24.744 -16.780   3.595  0.00  0.00    -0.318 N 
ATOM      3  C   LIG    1       25.858 -17.573   3.439  0.00  0.00    +0.200 A 
ATOM      4  N   LIG    1       26.944 -16.872   3.227  0.00  0.00    -0.243 NA
ATOM      5  C   LIG    1       26.534 -15.573   3.286  0.00  0.00    +0.145 A 
ENDROOT
BRANCH   1   6
ATOM      6  C   LIG    1       24.411 -14.268   3.748  0.00  0.00    +0.357 C 
ATOM      7  O   LIG    1       23.617 -13.790   2.958  0.00  0.00    -0.243 OA
BRANCH   6   8
ATOM      8  O   LIG    1       24.690 -13.746   4.983  0.00  0.00    -0.460 OA
BRANCH   8  10
ATOM      9  C   LIG    1       26.925 -13.303   5.793  0.00  0.00    +0.048 C 
ATOM     10  C   LIG    1       25.731 -12.763   5.031  0.00  0.00    +0.229 C 
ENDBRANCH   8  10
ENDBRANCH   6   8
ENDBRANCH   1   6
BRANCH   2  11
ATOM     11  C   LIG    1       23.376 -17.281   3.794  0.00  0.00    +0.116 C 
ATOM     12  C   LIG    1       22.586 -16.437   4.809  0.00  0.00    +0.036 C 
BRANCH  11  13
ATOM     13  C   LIG    1       23.337 -18.767   4.152  0.00  0.00    -0.025 A 
ATOM     14  C   LIG    1       24.100 -19.733   3.474  0.00  0.00    +0.006 A 
ATOM     15  C   LIG    1       24.089 -21.074   3.869  0.00  0.00    +0.000 A 
ATOM     16  C   LIG    1       23.317 -21.481   4.952  0.00  0.00    +0.000 A 
ATOM     17  C   LIG    1       22.547 -20.545   5.637  0.00  0.00    +0.000 A 
ATOM     18  C   LIG    1       22.558 -19.201   5.243  0.00  0.00    +0.006 A 
ENDBRANCH  11  13
ENDBRANCH   2  11
TORSDOF 5
ENDMDL
