MODEL 1
REMARK VINA RESULT:      -7.2      0.000      0.000
REMARK  Name = *****
REMARK                            x       y       z     vdW  Elec       q    Type
REMARK                         _______ _______ _______ _____ _____    ______ ____
ROOT
ATOM      1  C   LIG    1       23.849 -21.591   6.317  0.00  0.00    +0.140 C 
ATOM      2  C   LIG    1       24.430 -20.784   7.476  0.00  0.00    +0.239 C 
ATOM      3  O   LIG    1       23.694 -20.226   8.296  0.00  0.00    -0.274 OA
ATOM      4  N   LIG    1       25.810 -20.788   7.614  0.00  0.00    -0.228 N 
ATOM      5  C   LIG    1       26.379 -20.250   8.835  0.00  0.00    +0.143 C 
ATOM      6  C   LIG    1       26.682 -21.104   6.593  0.00  0.00    +0.315 C 
ATOM      7  O   LIG    1       27.904 -20.991   6.675  0.00  0.00    -0.252 OA
ATOM      8  N   LIG    1       26.129 -21.529   5.422  0.00  0.00    -0.239 N 
ATOM      9  H   LIG    1       26.773 -21.692   4.661  0.00  0.00    +0.159 HD
ATOM     10  C   LIG    1       24.806 -21.719   5.152  0.00  0.00    +0.237 C 
ATOM     11  O   LIG    1       24.458 -22.049   4.019  0.00  0.00    -0.274 OA
ENDROOT
BRANCH   1  12
ATOM     12  C   LIG    1       23.530 -23.019   6.889  0.00  0.00    +0.085 C 
ATOM     13  C   LIG    1       22.154 -23.585   6.520  0.00  0.00    +0.023 C 
BRANCH  12  14
ATOM     14  C   LIG    1       24.560 -24.012   6.508  0.00  0.00    -0.098 C 
ATOM     15  C   LIG    1       25.359 -24.872   6.245  0.00  0.00    -0.102 C 
BRANCH  15  16
ATOM     16  C   LIG    1       26.288 -25.979   5.978  0.00  0.00    +0.085 C 
ATOM     17  C   LIG    1       25.839 -26.807   4.786  0.00  0.00    +0.017 C 
ENDBRANCH  15  16
ENDBRANCH  12  14
ENDBRANCH   1  12
BRANCH   1  18
ATOM     18  C   LIG    1       22.547 -20.895   5.825  0.00  0.00    +0.053 C 
BRANCH  18  20
ATOM     19  C   LIG    1       22.136 -18.914   4.335  0.00  0.00    +0.004 C 
ATOM     20  C   LIG    1       22.716 -19.448   5.418  0.00  0.00    -0.033 C 
ENDBRANCH  18  20
ENDBRANCH   1  18
TORSDOF 5
ENDMDL
MODEL 2
REMARK VINA RESULT:      -6.8      1.962      4.907
REMARK  Name = *****
REMARK                            x       y       z     vdW  Elec       q    Type
REMARK                         _______ _______ _______ _____ _____    ______ ____
ROOT
ATOM      1  C   LIG    1       25.012 -21.535   6.076  0.00  0.00    +0.140 C 
ATOM      2  C   LIG    1       25.571 -22.702   6.887  0.00  0.00    +0.239 C 
ATOM      3  O   LIG    1       26.133 -22.514   7.970  0.00  0.00    -0.274 OA
ATOM      4  N   LIG    1       25.334 -23.978   6.397  0.00  0.00    -0.228 N 
ATOM      5  C   LIG    1       25.623 -25.109   7.258  0.00  0.00    +0.143 C 
ATOM      6  C   LIG    1       25.011 -24.247   5.083  0.00  0.00    +0.315 C 
ATOM      7  O   LIG    1       24.920 -25.382   4.618  0.00  0.00    -0.252 OA
ATOM      8  N   LIG    1       24.824 -23.174   4.264  0.00  0.00    -0.239 N 
ATOM      9  H   LIG    1       24.656 -23.384   3.291  0.00  0.00    +0.159 HD
ATOM     10  C   LIG    1       24.878 -21.855   4.603  0.00  0.00    +0.237 C 
ATOM     11  O   LIG    1       24.746 -20.997   3.730  0.00  0.00    -0.274 OA
ENDROOT
BRANCH   1  12
ATOM     12  C   LIG    1       23.593 -21.222   6.673  0.00  0.00    +0.085 C 
ATOM     13  C   LIG    1       23.577 -20.785   8.142  0.00  0.00    +0.023 C 
BRANCH  12  14
ATOM     14  C   LIG    1       22.868 -20.206   5.876  0.00  0.00    -0.098 C 
ATOM     15  C   LIG    1       22.346 -19.368   5.188  0.00  0.00    -0.102 C 
BRANCH  15  16
ATOM     16  C   LIG    1       21.788 -18.335   4.304  0.00  0.00    +0.085 C 
ATOM     17  C   LIG    1       22.284 -16.951   4.683  0.00  0.00    +0.017 C 
ENDBRANCH  15  16
ENDBRANCH  12  14
ENDBRANCH   1  12
BRANCH   1  18
ATOM     18  C   LIG    1       25.957 -20.311   6.242  0.00  0.00    +0.053 C 
BRANCH  18  20
ATOM     19  C   LIG    1       28.456 -20.113   6.421  0.00  0.00    +0.004 C 
ATOM     20  C   LIG    1       27.372 -20.532   5.754  0.00  0.00    -0.033 C 
ENDBRANCH  18  20
ENDBRANCH   1  18
TORSDOF 5
ENDMDL
MODEL 3
REMARK VINA RESULT:      -6.5      2.340      4.635
REMARK  Name = *****
REMARK                            x       y       z     vdW  Elec       q    Type
REMARK                         _______ _______ _______ _____ _____    ______ ____
ROOT
ATOM      1  C   LIG    1       25.046 -21.173   6.533  0.00  0.00    +0.140 C 
ATOM      2  C   LIG    1       25.412 -22.635   6.288  0.00  0.00    +0.239 C 
ATOM      3  O   LIG    1       26.541 -22.953   5.903  0.00  0.00    -0.274 OA
ATOM      4  N   LIG    1       24.453 -23.584   6.609  0.00  0.00    -0.228 N 
ATOM      5  C   LIG    1       24.849 -24.980   6.631  0.00  0.00    +0.143 C 
ATOM      6  C   LIG    1       23.108 -23.305   6.732  0.00  0.00    +0.315 C 
ATOM      7  O   LIG    1       22.241 -24.162   6.895  0.00  0.00    -0.252 OA
ATOM      8  N   LIG    1       22.740 -21.997   6.626  0.00  0.00    -0.239 N 
ATOM      9  H   LIG    1       21.748 -21.812   6.650  0.00  0.00    +0.159 HD
ATOM     10  C   LIG    1       23.556 -20.919   6.452  0.00  0.00    +0.237 C 
ATOM     11  O   LIG    1       23.064 -19.800   6.311  0.00  0.00    -0.274 OA
ENDROOT
BRANCH   1  12
ATOM     12  C   LIG    1       25.556 -20.826   7.978  0.00  0.00    +0.085 C 
ATOM     13  C   LIG    1       25.457 -21.961   9.002  0.00  0.00    +0.023 C 
BRANCH  12  14
ATOM     14  C   LIG    1       26.950 -20.326   7.969  0.00  0.00    -0.098 C 
ATOM     15  C   LIG    1       28.080 -19.922   7.882  0.00  0.00    -0.102 C 
BRANCH  15  16
ATOM     16  C   LIG    1       29.452 -19.433   7.686  0.00  0.00    +0.085 C 
ATOM     17  C   LIG    1       29.623 -18.790   6.320  0.00  0.00    +0.017 C 
ENDBRANCH  15  16
ENDBRANCH  12  14
ENDBRANCH   1  12
BRANCH   1  18
ATOM     18  C   LIG    1       25.766 -20.292   5.472  0.00  0.00    +0.053 C 
BRANCH  18  20
ATOM     19  C   LIG    1       24.844 -19.206   3.403  0.00  0.00    +0.004 C 
ATOM     20  C   LIG    1       25.136 -20.314   4.097  0.00  0.00    -0.033 C 
ENDBRANCH  18  20
ENDBRANCH   1  18
TORSDOF 5
ENDMDL
MODEL 4
REMARK VINA RESULT:      -6.5      1.732      4.869
REMARK  Name = *****
REMARK                            x       y       z     vdW  Elec       q    Type
REMARK                         _______ _______ _______ _____ _____    ______ ____
ROOT
ATOM      1  C   LIG    1       24.957 -21.984   5.746  0.00  0.00    +0.140 C 
ATOM      2  C   LIG    1       25.054 -21.095   4.508  0.00  0.00    +0.239 C 
ATOM      3  O   LIG    1       24.315 -21.274   3.536  0.00  0.00    -0.274 OA
ATOM      4  N   LIG    1       25.939 -20.029   4.569  0.00  0.00    -0.228 N 
ATOM      5  C   LIG    1       25.876 -19.023   3.525  0.00  0.00    +0.143 C 
ATOM      6  C   LIG    1       26.992 -19.956   5.457  0.00  0.00    +0.315 C 
ATOM      7  O   LIG    1       27.849 -19.074   5.434  0.00  0.00    -0.252 OA
ATOM      8  N   LIG    1       27.087 -20.953   6.381  0.00  0.00    -0.239 N 
ATOM      9  H   LIG    1       27.899 -20.926   6.981  0.00  0.00    +0.159 HD
ATOM     10  C   LIG    1       26.233 -22.001   6.558  0.00  0.00    +0.237 C 
ATOM     11  O   LIG    1       26.491 -22.859   7.402  0.00  0.00    -0.274 OA
ENDROOT
BRANCH   1  12
ATOM     12  C   LIG    1       23.790 -21.399   6.620  0.00  0.00    +0.085 C 
ATOM     13  C   LIG    1       24.202 -20.856   7.992  0.00  0.00    +0.023 C 
BRANCH  12  14
ATOM     14  C   LIG    1       23.040 -20.340   5.906  0.00  0.00    -0.098 C 
ATOM     15  C   LIG    1       22.464 -19.505   5.259  0.00  0.00    -0.102 C 
BRANCH  15  16
ATOM     16  C   LIG    1       21.802 -18.518   4.394  0.00  0.00    +0.085 C 
ATOM     17  C   LIG    1       22.308 -17.112   4.665  0.00  0.00    +0.017 C 
ENDBRANCH  15  16
ENDBRANCH  12  14
ENDBRANCH   1  12
BRANCH   1  18
ATOM     18  C   LIG    1       24.628 -23.436   5.295  0.00  0.00    +0.053 C 
BRANCH  18  20
ATOM     19  C   LIG    1       24.014 -25.617   6.381  0.00  0.00    +0.004 C 
ATOM     20  C   LIG    1       23.928 -24.281   6.336  0.00  0.00    -0.033 C 
ENDBRANCH  18  20
ENDBRANCH   1  18
TORSDOF 5
ENDMDL
MODEL 5
REMARK VINA RESULT:      -6.2      1.661      3.840
REMARK  Name = *****
REMARK                            x       y       z     vdW  Elec       q    Type
REMARK                         _______ _______ _______ _____ _____    ______ ____
ROOT
ATOM      1  C   LIG    1       24.625 -22.472   6.756  0.00  0.00    +0.140 C 
ATOM      2  C   LIG    1       24.486 -22.136   5.273  0.00  0.00    +0.239 C 
ATOM      3  O   LIG    1       25.081 -22.792   4.413  0.00  0.00    -0.274 OA
ATOM      4  N   LIG    1       23.592 -21.130   4.939  0.00  0.00    -0.228 N 
ATOM      5  C   LIG    1       23.244 -20.957   3.541  0.00  0.00    +0.143 C 
ATOM      6  C   LIG    1       23.150 -20.170   5.825  0.00  0.00    +0.315 C 
ATOM      7  O   LIG    1       22.455 -19.207   5.505  0.00  0.00    -0.252 OA
ATOM      8  N   LIG    1       23.553 -20.299   7.121  0.00  0.00    -0.239 N 
ATOM      9  H   LIG    1       23.280 -19.554   7.746  0.00  0.00    +0.159 HD
ATOM     10  C   LIG    1       24.313 -21.296   7.656  0.00  0.00    +0.237 C 
ATOM     11  O   LIG    1       24.647 -21.238   8.840  0.00  0.00    -0.274 OA
ENDROOT
BRANCH   1  12
ATOM     12  C   LIG    1       23.608 -23.633   7.044  0.00  0.00    +0.085 C 
ATOM     13  C   LIG    1       22.152 -23.345   6.660  0.00  0.00    +0.023 C 
BRANCH  12  14
ATOM     14  C   LIG    1       24.017 -24.902   6.400  0.00  0.00    -0.098 C 
ATOM     15  C   LIG    1       24.355 -25.966   5.950  0.00  0.00    -0.102 C 
BRANCH  15  16
ATOM     16  C   LIG    1       24.772 -27.297   5.486  0.00  0.00    +0.085 C 
ATOM     17  C   LIG    1       26.187 -27.276   4.935  0.00  0.00    +0.017 C 
ENDBRANCH  15  16
ENDBRANCH  12  14
ENDBRANCH   1  12
BRANCH   1  18
ATOM     18  C   LIG    1       26.083 -22.941   7.028  0.00  0.00    +0.053 C 
BRANCH  18  20
ATOM     19  C   LIG    1       27.987 -21.545   7.889  0.00  0.00    +0.004 C 
ATOM     20  C   LIG    1       27.132 -21.858   6.906  0.00  0.00    -0.033 C 
ENDBRANCH  18  20
ENDBRANCH   1  18
TORSDOF 5
ENDMDL
MODEL 6
REMARK VINA RESULT:      -6.2      2.283      4.702
REMARK  Name = *****
REMARK                            x       y       z     vdW  Elec       q    Type
REMARK                         _______ _______ _______ _____ _____    ______ ____
ROOT
ATOM      1  C   LIG    1       25.248 -21.535   6.515  0.00  0.00    +0.140 C 
ATOM      2  C   LIG    1       24.697 -22.594   5.562  0.00  0.00    +0.239 C 
ATOM      3  O   LIG    1       23.929 -22.287   4.645  0.00  0.00    -0.274 OA
ATOM      4  N   LIG    1       25.172 -23.887   5.718  0.00  0.00    -0.228 N 
ATOM      5  C   LIG    1       24.871 -24.859   4.683  0.00  0.00    +0.143 C 
ATOM      6  C   LIG    1       25.758 -24.355   6.875  0.00  0.00    +0.315 C 
ATOM      7  O   LIG    1       26.070 -25.530   7.061  0.00  0.00    -0.252 OA
ATOM      8  N   LIG    1       25.960 -23.447   7.872  0.00  0.00    -0.239 N 
ATOM      9  H   LIG    1       26.326 -23.814   8.738  0.00  0.00    +0.159 HD
ATOM     10  C   LIG    1       25.685 -22.112   7.844  0.00  0.00    +0.237 C 
ATOM     11  O   LIG    1       25.868 -21.432   8.853  0.00  0.00    -0.274 OA
ENDROOT
BRANCH   1  12
ATOM     12  C   LIG    1       26.487 -20.893   5.793  0.00  0.00    +0.085 C 
ATOM     13  C   LIG    1       26.159 -19.802   4.767  0.00  0.00    +0.023 C 
BRANCH  12  14
ATOM     14  C   LIG    1       27.469 -20.346   6.756  0.00  0.00    -0.098 C 
ATOM     15  C   LIG    1       28.320 -19.898   7.480  0.00  0.00    -0.102 C 
BRANCH  15  16
ATOM     16  C   LIG    1       29.416 -19.350   8.292  0.00  0.00    +0.085 C 
ATOM     17  C   LIG    1       30.660 -19.106   7.455  0.00  0.00    +0.017 C 
ENDBRANCH  15  16
ENDBRANCH  12  14
ENDBRANCH   1  12
BRANCH   1  18
ATOM     18  C   LIG    1       24.147 -20.467   6.768  0.00  0.00    +0.053 C 
BRANCH  18  20
ATOM     19  C   LIG    1       22.461 -19.447   5.209  0.00  0.00    +0.004 C 
ATOM     20  C   LIG    1       22.974 -20.526   5.814  0.00  0.00    -0.033 C 
ENDBRANCH  18  20
ENDBRANCH   1  18
TORSDOF 5
ENDMDL
MODEL 7
REMARK VINA RESULT:      -6.2      2.010      4.422
REMARK  Name = *****
REMARK                            x       y       z     vdW  Elec       q    Type
REMARK                         _______ _______ _______ _____ _____    ______ ____
ROOT
ATOM      1  C   LIG    1       24.424 -21.324   6.687  0.00  0.00    +0.140 C 
ATOM      2  C   LIG    1       23.484 -20.335   6.001  0.00  0.00    +0.239 C 
ATOM      3  O   LIG    1       22.477 -19.911   6.575  0.00  0.00    -0.274 OA
ATOM      4  N   LIG    1       23.867 -19.869   4.752  0.00  0.00    -0.228 N 
ATOM      5  C   LIG    1       23.140 -18.748   4.186  0.00  0.00    +0.143 C 
ATOM      6  C   LIG    1       24.774 -20.513   3.938  0.00  0.00    +0.315 C 
ATOM      7  O   LIG    1       25.024 -20.171   2.783  0.00  0.00    -0.252 OA
ATOM      8  N   LIG    1       25.388 -21.615   4.454  0.00  0.00    -0.239 N 
ATOM      9  H   LIG    1       25.998 -22.117   3.825  0.00  0.00    +0.159 HD
ATOM     10  C   LIG    1       25.241 -22.135   5.705  0.00  0.00    +0.237 C 
ATOM     11  O   LIG    1       25.823 -23.178   6.003  0.00  0.00    -0.274 OA
ENDROOT
BRANCH   1  12
ATOM     12  C   LIG    1       25.387 -20.468   7.586  0.00  0.00    +0.085 C 
ATOM     13  C   LIG    1       25.580 -20.979   9.018  0.00  0.00    +0.023 C 
BRANCH  12  14
ATOM     14  C   LIG    1       26.721 -20.301   6.967  0.00  0.00    -0.098 C 
ATOM     15  C   LIG    1       27.836 -20.153   6.537  0.00  0.00    -0.102 C 
BRANCH  15  16
ATOM     16  C   LIG    1       29.225 -19.959   6.098  0.00  0.00    +0.085 C 
ATOM     17  C   LIG    1       29.511 -18.501   5.786  0.00  0.00    +0.017 C 
ENDBRANCH  15  16
ENDBRANCH  12  14
ENDBRANCH   1  12
BRANCH   1  18
ATOM     18  C   LIG    1       23.578 -22.294   7.560  0.00  0.00    +0.053 C 
BRANCH  18  20
ATOM     19  C   LIG    1       23.124 -24.576   6.610  0.00  0.00    +0.004 C 
ATOM     20  C   LIG    1       22.758 -23.298   6.781  0.00  0.00    -0.033 C 
ENDBRANCH  18  20
ENDBRANCH   1  18
TORSDOF 5
ENDMDL
MODEL 8
REMARK VINA RESULT:      -6.0      1.760      2.232
REMARK  Name = *****
REMARK                            x       y       z     vdW  Elec       q    Type
REMARK                         _______ _______ _______ _____ _____    ______ ____
ROOT
ATOM      1  C   LIG    1       25.757 -21.360   6.872  0.00  0.00    +0.140 C 
ATOM      2  C   LIG    1       26.588 -20.445   7.769  0.00  0.00    +0.239 C 
ATOM      3  O   LIG    1       26.285 -20.268   8.953  0.00  0.00    -0.274 OA
ATOM      4  N   LIG    1       27.741 -19.905   7.219  0.00  0.00    -0.228 N 
ATOM      5  C   LIG    1       28.680 -19.245   8.106  0.00  0.00    +0.143 C 
ATOM      6  C   LIG    1       27.966 -19.798   5.863  0.00  0.00    +0.315 C 
ATOM      7  O   LIG    1       28.929 -19.211   5.371  0.00  0.00    -0.252 OA
ATOM      8  N   LIG    1       27.032 -20.351   5.039  0.00  0.00    -0.239 N 
ATOM      9  H   LIG    1       27.173 -20.208   4.050  0.00  0.00    +0.159 HD
ATOM     10  C   LIG    1       25.913 -21.039   5.402  0.00  0.00    +0.237 C 
ATOM     11  O   LIG    1       25.129 -21.427   4.535  0.00  0.00    -0.274 OA
ENDROOT
BRANCH   1  12
ATOM     12  C   LIG    1       26.263 -22.822   7.144  0.00  0.00    +0.085 C 
ATOM     13  C   LIG    1       26.397 -23.211   8.620  0.00  0.00    +0.023 C 
BRANCH  12  14
ATOM     14  C   LIG    1       25.419 -23.836   6.470  0.00  0.00    -0.098 C 
ATOM     15  C   LIG    1       24.754 -24.711   5.979  0.00  0.00    -0.102 C 
BRANCH  15  16
ATOM     16  C   LIG    1       23.970 -25.835   5.448  0.00  0.00    +0.085 C 
ATOM     17  C   LIG    1       24.428 -27.159   6.033  0.00  0.00    +0.017 C 
ENDBRANCH  15  16
ENDBRANCH  12  14
ENDBRANCH   1  12
BRANCH   1  18
ATOM     18  C   LIG    1       24.258 -21.218   7.263  0.00  0.00    +0.053 C 
BRANCH  18  20
ATOM     19  C   LIG    1       22.518 -20.323   5.687  0.00  0.00    +0.004 C 
ATOM     20  C   LIG    1       23.519 -20.107   6.551  0.00  0.00    -0.033 C 
ENDBRANCH  18  20
ENDBRANCH   1  18
TORSDOF 5
ENDMDL
MODEL 9
REMARK VINA RESULT:      -5.9      2.003      4.583
REMARK  Name = *****
REMARK                            x       y       z     vdW  Elec       q    Type
REMARK                         _______ _______ _______ _____ _____    ______ ____
ROOT
ATOM      1  C   LIG    1       26.884 -20.460   7.153  0.00  0.00    +0.140 C 
ATOM      2  C   LIG    1       26.274 -20.191   5.779  0.00  0.00    +0.239 C 
ATOM      3  O   LIG    1       26.953 -19.722   4.861  0.00  0.00    -0.274 OA
ATOM      4  N   LIG    1       24.958 -20.584   5.590  0.00  0.00    -0.228 N 
ATOM      5  C   LIG    1       24.427 -20.579   4.239  0.00  0.00    +0.143 C 
ATOM      6  C   LIG    1       24.068 -20.808   6.619  0.00  0.00    +0.315 C 
ATOM      7  O   LIG    1       22.870 -21.038   6.454  0.00  0.00    -0.252 OA
ATOM      8  N   LIG    1       24.562 -20.728   7.887  0.00  0.00    -0.239 N 
ATOM      9  H   LIG    1       23.888 -20.826   8.632  0.00  0.00    +0.159 HD
ATOM     10  C   LIG    1       25.852 -20.491   8.258  0.00  0.00    +0.237 C 
ATOM     11  O   LIG    1       26.131 -20.386   9.453  0.00  0.00    -0.274 OA
ENDROOT
BRANCH   1  12
ATOM     12  C   LIG    1       27.587 -21.862   7.057  0.00  0.00    +0.085 C 
ATOM     13  C   LIG    1       28.629 -22.153   8.143  0.00  0.00    +0.023 C 
BRANCH  12  14
ATOM     14  C   LIG    1       26.609 -22.973   7.039  0.00  0.00    -0.098 C 
ATOM     15  C   LIG    1       25.848 -23.903   6.958  0.00  0.00    -0.102 C 
BRANCH  15  16
ATOM     16  C   LIG    1       24.964 -25.063   6.783  0.00  0.00    +0.085 C 
ATOM     17  C   LIG    1       23.522 -24.637   6.567  0.00  0.00    +0.017 C 
ENDBRANCH  15  16
ENDBRANCH  12  14
ENDBRANCH   1  12
BRANCH   1  18
ATOM     18  C   LIG    1       27.925 -19.347   7.466  0.00  0.00    +0.053 C 
BRANCH  18  20
ATOM     19  C   LIG    1       30.381 -19.102   6.997  0.00  0.00    +0.004 C 
ATOM     20  C   LIG    1       29.136 -19.337   6.560  0.00  0.00    -0.033 C 
ENDBRANCH  18  20
ENDBRANCH   1  18
TORSDOF 5
ENDMDL
