MODEL 1
REMARK VINA RESULT:      -5.5      0.000      0.000
REMARK  Name = *****
REMARK                            x       y       z     vdW  Elec       q    Type
REMARK                         _______ _______ _______ _____ _____    ______ ____
ROOT
ATOM      1  C   LIG    1       21.289 -18.570   4.034  0.00  0.00    +0.044 C 
ATOM      2  C   LIG    1       22.605 -19.165   4.434  0.00  0.00    -0.047 A 
ATOM      3  C   LIG    1       23.761 -18.887   3.699  0.00  0.00    +0.049 A 
ATOM      4  C   LIG    1       25.000 -19.411   4.081  0.00  0.00    +0.120 A 
ATOM      5  C   LIG    1       25.127 -20.223   5.218  0.00  0.00    -0.003 A 
ATOM      6  C   LIG    1       23.954 -20.482   5.956  0.00  0.00    +0.008 A 
ATOM      7  C   LIG    1       22.715 -19.958   5.576  0.00  0.00    +0.004 A 
ENDROOT
BRANCH   5   8
ATOM      8  C   LIG    1       26.419 -20.845   5.724  0.00  0.00    +0.016 C 
ATOM      9  C   LIG    1       26.246 -21.572   7.060  0.00  0.00    +0.012 C 
ATOM     10  C   LIG    1       27.583 -19.852   5.754  0.00  0.00    +0.012 C 
ENDBRANCH   5   8
BRANCH   4  11
ATOM     11  O   LIG    1       26.038 -19.061   3.266  0.00  0.00    -0.506 OA
ATOM     12  H   LIG    1       25.756 -18.359   2.666  0.00  0.00    +0.292 HD
ENDBRANCH   4  11
TORSDOF 2
ENDMDL
MODEL 2
REMARK VINA RESULT:      -5.0      1.756      4.558
REMARK  Name = *****
REMARK                            x       y       z     vdW  Elec       q    Type
REMARK                         _______ _______ _______ _____ _____    ______ ____
ROOT
ATOM      1  C   LIG    1       28.321 -20.095   6.121  0.00  0.00    +0.044 C 
ATOM      2  C   LIG    1       26.895 -20.102   5.661  0.00  0.00    -0.047 A 
ATOM      3  C   LIG    1       25.874 -20.507   6.524  0.00  0.00    +0.049 A 
ATOM      4  C   LIG    1       24.536 -20.487   6.116  0.00  0.00    +0.120 A 
ATOM      5  C   LIG    1       24.174 -20.051   4.833  0.00  0.00    -0.003 A 
ATOM      6  C   LIG    1       25.214 -19.632   3.980  0.00  0.00    +0.008 A 
ATOM      7  C   LIG    1       26.552 -19.651   4.386  0.00  0.00    +0.004 A 
ENDROOT
BRANCH   5   8
ATOM      8  C   LIG    1       22.756 -19.988   4.285  0.00  0.00    +0.016 C 
ATOM      9  C   LIG    1       22.108 -18.614   4.470  0.00  0.00    +0.012 C 
ATOM     10  C   LIG    1       21.868 -21.121   4.807  0.00  0.00    +0.012 C 
ENDBRANCH   5   8
BRANCH   4  11
ATOM     11  O   LIG    1       23.650 -20.916   7.062  0.00  0.00    -0.506 OA
ATOM     12  H   LIG    1       22.748 -20.789   6.742  0.00  0.00    +0.292 HD
ENDBRANCH   4  11
TORSDOF 2
ENDMDL
MODEL 3
REMARK VINA RESULT:      -5.0      1.493      2.077
REMARK  Name = *****
REMARK                            x       y       z     vdW  Elec       q    Type
REMARK                         _______ _______ _______ _____ _____    ______ ____
ROOT
ATOM      1  C   LIG    1       21.451 -18.473   3.720  0.00  0.00    +0.044 C 
ATOM      2  C   LIG    1       22.717 -19.073   4.252  0.00  0.00    -0.047 A 
ATOM      3  C   LIG    1       22.694 -19.882   5.391  0.00  0.00    +0.049 A 
ATOM      4  C   LIG    1       23.864 -20.473   5.878  0.00  0.00    +0.120 A 
ATOM      5  C   LIG    1       25.096 -20.283   5.237  0.00  0.00    -0.003 A 
ATOM      6  C   LIG    1       25.101 -19.477   4.081  0.00  0.00    +0.008 A 
ATOM      7  C   LIG    1       23.931 -18.885   3.592  0.00  0.00    +0.004 A 
ENDROOT
BRANCH   5   8
ATOM      8  C   LIG    1       26.427 -20.874   5.677  0.00  0.00    +0.016 C 
ATOM      9  C   LIG    1       26.359 -21.524   7.062  0.00  0.00    +0.012 C 
ATOM     10  C   LIG    1       27.585 -19.880   5.562  0.00  0.00    +0.012 C 
ENDBRANCH   5   8
BRANCH   4  11
ATOM     11  O   LIG    1       23.690 -21.230   7.001  0.00  0.00    -0.506 OA
ATOM     12  H   LIG    1       23.396 -20.667   7.729  0.00  0.00    +0.292 HD
ENDBRANCH   4  11
TORSDOF 2
ENDMDL
MODEL 4
REMARK VINA RESULT:      -4.8      1.319      2.071
REMARK  Name = *****
REMARK                            x       y       z     vdW  Elec       q    Type
REMARK                         _______ _______ _______ _____ _____    ______ ____
ROOT
ATOM      1  C   LIG    1       22.466 -20.498   5.821  0.00  0.00    +0.044 C 
ATOM      2  C   LIG    1       23.958 -20.401   5.721  0.00  0.00    -0.047 A 
ATOM      3  C   LIG    1       24.561 -19.948   4.545  0.00  0.00    +0.049 A 
ATOM      4  C   LIG    1       25.951 -19.823   4.451  0.00  0.00    +0.120 A 
ATOM      5  C   LIG    1       26.785 -20.137   5.534  0.00  0.00    -0.003 A 
ATOM      6  C   LIG    1       26.160 -20.578   6.718  0.00  0.00    +0.008 A 
ATOM      7  C   LIG    1       24.771 -20.704   6.814  0.00  0.00    +0.004 A 
ENDROOT
BRANCH   5   8
ATOM      8  C   LIG    1       28.302 -20.039   5.542  0.00  0.00    +0.016 C 
ATOM      9  C   LIG    1       28.943 -20.840   6.679  0.00  0.00    +0.012 C 
ATOM     10  C   LIG    1       28.804 -18.594   5.500  0.00  0.00    +0.012 C 
ENDBRANCH   5   8
BRANCH   4  11
ATOM     11  O   LIG    1       26.398 -19.376   3.240  0.00  0.00    -0.506 OA
ATOM     12  H   LIG    1       26.104 -18.466   3.102  0.00  0.00    +0.292 HD
ENDBRANCH   4  11
TORSDOF 2
ENDMDL
MODEL 5
REMARK VINA RESULT:      -4.7      1.750      3.414
REMARK  Name = *****
REMARK                            x       y       z     vdW  Elec       q    Type
REMARK                         _______ _______ _______ _____ _____    ______ ____
ROOT
ATOM      1  C   LIG    1       26.097 -17.180   3.096  0.00  0.00    +0.044 C 
ATOM      2  C   LIG    1       25.342 -18.324   3.700  0.00  0.00    -0.047 A 
ATOM      3  C   LIG    1       26.023 -19.366   4.335  0.00  0.00    +0.049 A 
ATOM      4  C   LIG    1       25.328 -20.424   4.930  0.00  0.00    +0.120 A 
ATOM      5  C   LIG    1       23.926 -20.470   4.918  0.00  0.00    -0.003 A 
ATOM      6  C   LIG    1       23.254 -19.405   4.287  0.00  0.00    +0.008 A 
ATOM      7  C   LIG    1       23.947 -18.346   3.692  0.00  0.00    +0.004 A 
ENDROOT
BRANCH   5   8
ATOM      8  C   LIG    1       23.070 -21.568   5.532  0.00  0.00    +0.016 C 
ATOM      9  C   LIG    1       21.636 -21.571   4.997  0.00  0.00    +0.012 C 
ATOM     10  C   LIG    1       23.116 -21.571   7.062  0.00  0.00    +0.012 C 
ENDBRANCH   5   8
BRANCH   4  11
ATOM     11  O   LIG    1       26.125 -21.372   5.505  0.00  0.00    -0.506 OA
ATOM     12  H   LIG    1       26.657 -21.804   4.825  0.00  0.00    +0.292 HD
ENDBRANCH   4  11
TORSDOF 2
ENDMDL
MODEL 6
REMARK VINA RESULT:      -4.7      5.002      5.779
REMARK  Name = *****
REMARK                            x       y       z     vdW  Elec       q    Type
REMARK                         _______ _______ _______ _____ _____    ______ ____
ROOT
ATOM      1  C   LIG    1       23.576 -11.466   3.501  0.00  0.00    +0.044 C 
ATOM      2  C   LIG    1       24.297 -12.777   3.412  0.00  0.00    -0.047 A 
ATOM      3  C   LIG    1       25.467 -12.891   2.657  0.00  0.00    +0.049 A 
ATOM      4  C   LIG    1       26.166 -14.101   2.593  0.00  0.00    +0.120 A 
ATOM      5  C   LIG    1       25.724 -15.235   3.289  0.00  0.00    -0.003 A 
ATOM      6  C   LIG    1       24.551 -15.099   4.058  0.00  0.00    +0.008 A 
ATOM      7  C   LIG    1       23.850 -13.890   4.124  0.00  0.00    +0.004 A 
ENDROOT
BRANCH   5   8
ATOM      8  C   LIG    1       26.403 -16.596   3.290  0.00  0.00    +0.016 C 
ATOM      9  C   LIG    1       25.423 -17.748   3.530  0.00  0.00    +0.012 C 
ATOM     10  C   LIG    1       27.608 -16.657   4.232  0.00  0.00    +0.012 C 
ENDBRANCH   5   8
BRANCH   4  11
ATOM     11  O   LIG    1       27.286 -14.066   1.812  0.00  0.00    -0.506 OA
ATOM     12  H   LIG    1       27.698 -13.194   1.875  0.00  0.00    +0.292 HD
ENDBRANCH   4  11
TORSDOF 2
ENDMDL
MODEL 7
REMARK VINA RESULT:      -4.2      5.505      7.040
REMARK  Name = *****
REMARK                            x       y       z     vdW  Elec       q    Type
REMARK                         _______ _______ _______ _____ _____    ______ ____
ROOT
ATOM      1  C   LIG    1       26.100 -17.591   3.310  0.00  0.00    +0.044 C 
ATOM      2  C   LIG    1       25.749 -16.141   3.441  0.00  0.00    -0.047 A 
ATOM      3  C   LIG    1       26.693 -15.154   3.145  0.00  0.00    +0.049 A 
ATOM      4  C   LIG    1       26.366 -13.797   3.233  0.00  0.00    +0.120 A 
ATOM      5  C   LIG    1       25.081 -13.381   3.610  0.00  0.00    -0.003 A 
ATOM      6  C   LIG    1       24.137 -14.388   3.890  0.00  0.00    +0.008 A 
ATOM      7  C   LIG    1       24.461 -15.746   3.803  0.00  0.00    +0.004 A 
ENDROOT
BRANCH   5   8
ATOM      8  C   LIG    1       24.618 -11.937   3.738  0.00  0.00    +0.016 C 
ATOM      9  C   LIG    1       23.847 -11.673   5.034  0.00  0.00    +0.012 C 
ATOM     10  C   LIG    1       23.857 -11.447   2.504  0.00  0.00    +0.012 C 
ENDBRANCH   5   8
BRANCH   4  11
ATOM     11  O   LIG    1       27.390 -12.948   2.922  0.00  0.00    -0.506 OA
ATOM     12  H   LIG    1       27.032 -12.131   2.551  0.00  0.00    +0.292 HD
ENDBRANCH   4  11
TORSDOF 2
ENDMDL
MODEL 8
REMARK VINA RESULT:      -4.0      1.783      3.083
REMARK  Name = *****
REMARK                            x       y       z     vdW  Elec       q    Type
REMARK                         _______ _______ _______ _____ _____    ______ ____
ROOT
ATOM      1  C   LIG    1       21.926 -21.184   5.039  0.00  0.00    +0.044 C 
ATOM      2  C   LIG    1       23.007 -20.232   4.629  0.00  0.00    -0.047 A 
ATOM      3  C   LIG    1       24.343 -20.643   4.608  0.00  0.00    +0.049 A 
ATOM      4  C   LIG    1       25.358 -19.773   4.197  0.00  0.00    +0.120 A 
ATOM      5  C   LIG    1       25.070 -18.464   3.783  0.00  0.00    -0.003 A 
ATOM      6  C   LIG    1       23.717 -18.070   3.796  0.00  0.00    +0.008 A 
ATOM      7  C   LIG    1       22.701 -18.938   4.206  0.00  0.00    +0.004 A 
ENDROOT
BRANCH   5   8
ATOM      8  C   LIG    1       26.090 -17.437   3.318  0.00  0.00    +0.016 C 
ATOM      9  C   LIG    1       27.421 -17.538   4.069  0.00  0.00    +0.012 C 
ATOM     10  C   LIG    1       25.536 -16.010   3.315  0.00  0.00    +0.012 C 
ENDBRANCH   5   8
BRANCH   4  11
ATOM     11  O   LIG    1       26.612 -20.310   4.235  0.00  0.00    -0.506 OA
ATOM     12  H   LIG    1       27.247 -19.633   4.504  0.00  0.00    +0.292 HD
ENDBRANCH   4  11
TORSDOF 2
ENDMDL
MODEL 9
REMARK VINA RESULT:      -3.8      1.900      2.887
REMARK  Name = *****
REMARK                            x       y       z     vdW  Elec       q    Type
REMARK                         _______ _______ _______ _____ _____    ______ ____
ROOT
ATOM      1  C   LIG    1       22.630 -20.850   4.905  0.00  0.00    +0.044 C 
ATOM      2  C   LIG    1       24.085 -20.514   5.028  0.00  0.00    -0.047 A 
ATOM      3  C   LIG    1       24.882 -21.155   5.980  0.00  0.00    +0.049 A 
ATOM      4  C   LIG    1       26.248 -20.873   6.082  0.00  0.00    +0.120 A 
ATOM      5  C   LIG    1       26.866 -19.949   5.228  0.00  0.00    -0.003 A 
ATOM      6  C   LIG    1       26.052 -19.322   4.263  0.00  0.00    +0.008 A 
ATOM      7  C   LIG    1       24.686 -19.603   4.159  0.00  0.00    +0.004 A 
ENDROOT
BRANCH   5   8
ATOM      8  C   LIG    1       28.338 -19.567   5.250  0.00  0.00    +0.016 C 
ATOM      9  C   LIG    1       29.023 -19.916   6.574  0.00  0.00    +0.012 C 
ATOM     10  C   LIG    1       28.579 -18.111   4.841  0.00  0.00    +0.012 C 
ENDBRANCH   5   8
BRANCH   4  11
ATOM     11  O   LIG    1       26.897 -21.569   7.062  0.00  0.00    -0.506 OA
ATOM     12  H   LIG    1       26.616 -21.247   7.928  0.00  0.00    +0.292 HD
ENDBRANCH   4  11
TORSDOF 2
ENDMDL
