MODEL 1
REMARK VINA RESULT:       0.7      0.000      0.000
REMARK  Name = *****
REMARK                            x       y       z     vdW  Elec       q    Type
REMARK                         _______ _______ _______ _____ _____    ______ ____
ROOT
ATOM      1  C   LIG    1       26.912 -18.983   4.559  0.00  0.00    +0.122 C 
ENDROOT
BRANCH   1   2
ATOM      2  C   LIG    1       25.683 -19.948   4.749  0.00  0.00    +0.172 C 
ATOM      3  C   LIG    1       25.077 -20.416   3.409  0.00  0.00    +0.176 C 
ATOM      4  C   LIG    1       23.828 -21.279   3.626  0.00  0.00    +0.177 C 
ATOM      5  C   LIG    1       22.815 -20.543   4.503  0.00  0.00    +0.184 C 
ATOM      6  C   LIG    1       23.485 -20.060   5.808  0.00  0.00    +0.207 C 
ATOM      7  O   LIG    1       24.647 -19.256   5.500  0.00  0.00    -0.356 OA
BRANCH   3   8
ATOM      8  O   LIG    1       24.698 -19.285   2.600  0.00  0.00    -0.387 OA
ATOM      9  H   LIG    1       24.527 -18.529   3.198  0.00  0.00    +0.210 HD
ENDBRANCH   3   8
BRANCH   4  10
ATOM     10  O   LIG    1       23.206 -21.571   2.361  0.00  0.00    -0.387 OA
ATOM     11  H   LIG    1       22.635 -22.351   2.514  0.00  0.00    +0.210 HD
ENDBRANCH   4  10
BRANCH   5  12
ATOM     12  O   LIG    1       21.649 -21.347   4.704  0.00  0.00    -0.386 OA
ATOM     13  H   LIG    1       20.904 -20.714   4.777  0.00  0.00    +0.210 HD
ENDBRANCH   5  12
BRANCH   6  14
ATOM     14  S   LIG    1       23.871 -21.413   6.990  0.00  0.00    -0.131 S 
ATOM     15  C   LIG    1       25.667 -21.221   7.061  0.00  0.00    +0.087 C 
ENDBRANCH   6  14
ENDBRANCH   1   2
BRANCH   1  17
ATOM     16  C   LIG    1       26.303 -16.801   3.464  0.00  0.00    +0.231 C 
ATOM     17  N   LIG    1       26.480 -17.574   4.608  0.00  0.00    -0.307 N 
ATOM     18  H   LIG    1       26.561 -17.069   5.485  0.00  0.00    +0.149 HD
ATOM     19  O   LIG    1       26.471 -17.257   2.327  0.00  0.00    -0.274 OA
BRANCH  16  24
ATOM     20  C   LIG    1       26.186 -13.157   2.685  0.00  0.00    +0.005 C 
ATOM     21  C   LIG    1       26.539 -13.149   4.171  0.00  0.00    +0.088 C 
ATOM     22  N   LIG    1       26.893 -14.542   4.499  0.00  0.00    -0.294 NA
ATOM     23  C   LIG    1       28.282 -14.800   4.111  0.00  0.00    +0.105 C 
ATOM     24  C   LIG    1       25.887 -15.344   3.736  0.00  0.00    +0.143 C 
ATOM     25  C   LIG    1       25.538 -14.529   2.482  0.00  0.00    +0.033 C 
BRANCH  20  26
ATOM     26  C   LIG    1       25.299 -11.981   2.258  0.00  0.00    +0.004 C 
BRANCH  26  28
ATOM     27  C   LIG    1       23.551 -11.720   4.073  0.00  0.00    +0.004 C 
ATOM     28  C   LIG    1       23.831 -12.183   2.651  0.00  0.00    -0.003 C 
ENDBRANCH  26  28
ENDBRANCH  20  26
ENDBRANCH  16  24
ENDBRANCH   1  17
BRANCH   1  29
ATOM     29  C   LIG    1       28.058 -19.271   5.573  0.00  0.00    +0.100 C 
ATOM     30  C   LIG    1       28.546 -20.714   5.582  0.00  0.00    +0.026 C 
ATOM     31 CL   LIG    1       29.457 -18.177   5.287  0.00  0.00    -0.120 Cl
ENDBRANCH   1  29
TORSDOF 10
ENDMDL
MODEL 2
REMARK VINA RESULT:       2.3      1.362      2.185
REMARK  Name = *****
REMARK                            x       y       z     vdW  Elec       q    Type
REMARK                         _______ _______ _______ _____ _____    ______ ____
ROOT
ATOM      1  C   LIG    1       27.367 -19.241   4.450  0.00  0.00    +0.122 C 
ENDROOT
BRANCH   1   2
ATOM      2  C   LIG    1       25.986 -19.947   4.723  0.00  0.00    +0.172 C 
ATOM      3  C   LIG    1       25.358 -20.546   3.447  0.00  0.00    +0.176 C 
ATOM      4  C   LIG    1       23.974 -21.145   3.729  0.00  0.00    +0.177 C 
ATOM      5  C   LIG    1       23.069 -20.110   4.399  0.00  0.00    +0.184 C 
ATOM      6  C   LIG    1       23.765 -19.513   5.641  0.00  0.00    +0.207 C 
ATOM      7  O   LIG    1       25.057 -18.973   5.275  0.00  0.00    -0.356 OA
BRANCH   3   8
ATOM      8  O   LIG    1       25.204 -19.534   2.433  0.00  0.00    -0.387 OA
ATOM      9  H   LIG    1       24.613 -18.839   2.786  0.00  0.00    +0.210 HD
ENDBRANCH   3   8
BRANCH   4  10
ATOM     10  O   LIG    1       23.357 -21.558   2.496  0.00  0.00    -0.387 OA
ATOM     11  H   LIG    1       24.063 -21.988   1.971  0.00  0.00    +0.210 HD
ENDBRANCH   4  10
BRANCH   5  12
ATOM     12  O   LIG    1       21.779 -20.668   4.660  0.00  0.00    -0.386 OA
ATOM     13  H   LIG    1       21.656 -20.601   5.630  0.00  0.00    +0.210 HD
ENDBRANCH   5  12
BRANCH   6  14
ATOM     14  S   LIG    1       23.876 -20.673   7.062  0.00  0.00    -0.131 S 
ATOM     15  C   LIG    1       25.368 -21.571   6.577  0.00  0.00    +0.087 C 
ENDBRANCH   6  14
ENDBRANCH   1   2
BRANCH   1  17
ATOM     16  C   LIG    1       26.594 -17.140   3.299  0.00  0.00    +0.231 C 
ATOM     17  N   LIG    1       27.198 -17.778   4.379  0.00  0.00    -0.307 N 
ATOM     18  H   LIG    1       27.757 -17.192   4.993  0.00  0.00    +0.149 HD
ATOM     19  O   LIG    1       26.133 -17.767   2.337  0.00  0.00    -0.274 OA
BRANCH  16  24
ATOM     20  C   LIG    1       26.407 -13.922   5.170  0.00  0.00    +0.005 C 
ATOM     21  C   LIG    1       25.384 -13.698   4.059  0.00  0.00    +0.088 C 
ATOM     22  N   LIG    1       25.177 -15.021   3.443  0.00  0.00    -0.294 NA
ATOM     23  C   LIG    1       24.223 -15.792   4.245  0.00  0.00    +0.105 C 
ATOM     24  C   LIG    1       26.553 -15.606   3.404  0.00  0.00    +0.143 C 
ATOM     25  C   LIG    1       27.310 -15.021   4.606  0.00  0.00    +0.033 C 
BRANCH  20  26
ATOM     26  C   LIG    1       27.159 -12.648   5.579  0.00  0.00    +0.004 C 
BRANCH  26  28
ATOM     27  C   LIG    1       28.614 -12.169   3.562  0.00  0.00    +0.004 C 
ATOM     28  C   LIG    1       28.585 -12.606   5.019  0.00  0.00    -0.003 C 
ENDBRANCH  26  28
ENDBRANCH  20  26
ENDBRANCH  16  24
ENDBRANCH   1  17
BRANCH   1  29
ATOM     29  C   LIG    1       28.459 -19.647   5.481  0.00  0.00    +0.100 C 
ATOM     30  C   LIG    1       29.460 -18.546   5.809  0.00  0.00    +0.026 C 
ATOM     31 CL   LIG    1       27.713 -20.239   7.007  0.00  0.00    -0.120 Cl
ENDBRANCH   1  29
TORSDOF 10
ENDMDL
MODEL 3
REMARK VINA RESULT:       2.7      3.443      7.692
REMARK  Name = *****
REMARK                            x       y       z     vdW  Elec       q    Type
REMARK                         _______ _______ _______ _____ _____    ______ ____
ROOT
ATOM      1  C   LIG    1       24.963 -15.919   3.370  0.00  0.00    +0.122 C 
ENDROOT
BRANCH   1   2
ATOM      2  C   LIG    1       25.785 -14.605   3.645  0.00  0.00    +0.172 C 
ATOM      3  C   LIG    1       27.279 -14.746   3.284  0.00  0.00    +0.176 C 
ATOM      4  C   LIG    1       28.069 -13.483   3.648  0.00  0.00    +0.177 C 
ATOM      5  C   LIG    1       27.852 -13.121   5.117  0.00  0.00    +0.184 C 
ATOM      6  C   LIG    1       26.342 -13.036   5.432  0.00  0.00    +0.207 C 
ATOM      7  O   LIG    1       25.687 -14.270   5.057  0.00  0.00    -0.356 OA
BRANCH   3   8
ATOM      8  O   LIG    1       27.869 -15.856   3.990  0.00  0.00    -0.387 OA
ATOM      9  H   LIG    1       27.163 -16.297   4.505  0.00  0.00    +0.210 HD
ENDBRANCH   3   8
BRANCH   4  10
ATOM     10  O   LIG    1       29.475 -13.705   3.437  0.00  0.00    -0.387 OA
ATOM     11  H   LIG    1       29.939 -13.064   4.014  0.00  0.00    +0.210 HD
ENDBRANCH   4  10
BRANCH   5  12
ATOM     12  O   LIG    1       28.590 -11.944   5.457  0.00  0.00    -0.386 OA
ATOM     13  H   LIG    1       29.534 -12.189   5.356  0.00  0.00    +0.210 HD
ENDBRANCH   5  12
BRANCH   6  14
ATOM     14  S   LIG    1       25.513 -11.564   4.709  0.00  0.00    -0.131 S 
ATOM     15  C   LIG    1       23.926 -11.686   5.564  0.00  0.00    +0.087 C 
ENDBRANCH   6  14
ENDBRANCH   1   2
BRANCH   1  17
ATOM     16  C   LIG    1       25.389 -18.296   4.079  0.00  0.00    +0.231 C 
ATOM     17  N   LIG    1       25.266 -16.944   4.386  0.00  0.00    -0.307 N 
ATOM     18  H   LIG    1       25.127 -16.715   5.366  0.00  0.00    +0.149 HD
ATOM     19  O   LIG    1       25.280 -18.722   2.923  0.00  0.00    -0.274 OA
BRANCH  16  24
ATOM     20  C   LIG    1       27.116 -21.099   5.828  0.00  0.00    +0.005 C 
ATOM     21  C   LIG    1       25.656 -21.351   6.198  0.00  0.00    +0.088 C 
ATOM     22  N   LIG    1       24.869 -20.467   5.318  0.00  0.00    -0.294 NA
ATOM     23  C   LIG    1       24.706 -21.100   4.006  0.00  0.00    +0.105 C 
ATOM     24  C   LIG    1       25.669 -19.203   5.290  0.00  0.00    +0.143 C 
ATOM     25  C   LIG    1       27.139 -19.613   5.464  0.00  0.00    +0.033 C 
BRANCH  20  26
ATOM     26  C   LIG    1       28.105 -21.484   6.935  0.00  0.00    +0.004 C 
BRANCH  26  28
ATOM     27  C   LIG    1       29.433 -19.331   7.059  0.00  0.00    +0.004 C 
ATOM     28  C   LIG    1       29.475 -20.820   6.752  0.00  0.00    -0.003 C 
ENDBRANCH  26  28
ENDBRANCH  20  26
ENDBRANCH  16  24
ENDBRANCH   1  17
BRANCH   1  29
ATOM     29  C   LIG    1       23.434 -15.654   3.255  0.00  0.00    +0.100 C 
ATOM     30  C   LIG    1       22.621 -16.108   4.461  0.00  0.00    +0.026 C 
ATOM     31 CL   LIG    1       23.106 -13.913   2.944  0.00  0.00    -0.120 Cl
ENDBRANCH   1  29
TORSDOF 10
ENDMDL
MODEL 4
REMARK VINA RESULT:       3.4      3.414      7.650
REMARK  Name = *****
REMARK                            x       y       z     vdW  Elec       q    Type
REMARK                         _______ _______ _______ _____ _____    ______ ____
ROOT
ATOM      1  C   LIG    1       24.008 -16.547   3.723  0.00  0.00    +0.122 C 
ENDROOT
BRANCH   1   2
ATOM      2  C   LIG    1       24.753 -15.160   3.711  0.00  0.00    +0.172 C 
ATOM      3  C   LIG    1       23.820 -13.983   3.354  0.00  0.00    +0.176 C 
ATOM      4  C   LIG    1       24.592 -12.661   3.261  0.00  0.00    +0.177 C 
ATOM      5  C   LIG    1       25.767 -12.794   2.291  0.00  0.00    +0.184 C 
ATOM      6  C   LIG    1       26.639 -14.011   2.669  0.00  0.00    +0.207 C 
ATOM      7  O   LIG    1       25.825 -15.205   2.729  0.00  0.00    -0.356 OA
BRANCH   3   8
ATOM      8  O   LIG    1       23.178 -14.210   2.084  0.00  0.00    -0.387 OA
ATOM      9  H   LIG    1       22.260 -13.878   2.146  0.00  0.00    +0.210 HD
ENDBRANCH   3   8
BRANCH   4  10
ATOM     10  O   LIG    1       23.724 -11.618   2.782  0.00  0.00    -0.387 OA
ATOM     11  H   LIG    1       23.502 -11.071   3.564  0.00  0.00    +0.210 HD
ENDBRANCH   4  10
BRANCH   5  12
ATOM     12  O   LIG    1       26.485 -11.561   2.203  0.00  0.00    -0.386 OA
ATOM     13  H   LIG    1       26.110 -11.095   1.426  0.00  0.00    +0.210 HD
ENDBRANCH   5  12
BRANCH   6  14
ATOM     14  S   LIG    1       27.631 -13.770   4.197  0.00  0.00    -0.131 S 
ATOM     15  C   LIG    1       29.046 -12.903   3.481  0.00  0.00    +0.087 C 
ENDBRANCH   6  14
ENDBRANCH   1   2
BRANCH   1  17
ATOM     16  C   LIG    1       24.990 -18.744   4.459  0.00  0.00    +0.231 C 
ATOM     17  N   LIG    1       24.590 -17.441   4.741  0.00  0.00    -0.307 N 
ATOM     18  H   LIG    1       24.463 -17.210   5.722  0.00  0.00    +0.149 HD
ATOM     19  O   LIG    1       24.908 -19.228   3.324  0.00  0.00    -0.274 OA
BRANCH  16  24
ATOM     20  C   LIG    1       27.154 -21.305   6.090  0.00  0.00    +0.005 C 
ATOM     21  C   LIG    1       25.802 -21.571   6.748  0.00  0.00    +0.088 C 
ATOM     22  N   LIG    1       24.821 -20.804   5.958  0.00  0.00    -0.294 NA
ATOM     23  C   LIG    1       24.453 -21.565   4.761  0.00  0.00    +0.105 C 
ATOM     24  C   LIG    1       25.535 -19.521   5.670  0.00  0.00    +0.143 C 
ATOM     25  C   LIG    1       27.031 -19.860   5.599  0.00  0.00    +0.033 C 
BRANCH  20  26
ATOM     26  C   LIG    1       28.349 -21.546   7.020  0.00  0.00    +0.004 C 
BRANCH  26  28
ATOM     27  C   LIG    1       28.985 -19.096   6.953  0.00  0.00    +0.004 C 
ATOM     28  C   LIG    1       29.474 -20.528   6.803  0.00  0.00    -0.003 C 
ENDBRANCH  26  28
ENDBRANCH  20  26
ENDBRANCH  16  24
ENDBRANCH   1  17
BRANCH   1  29
ATOM     29  C   LIG    1       22.469 -16.396   3.898  0.00  0.00    +0.100 C 
ATOM     30  C   LIG    1       21.695 -17.706   3.836  0.00  0.00    +0.026 C 
ATOM     31 CL   LIG    1       22.078 -15.553   5.438  0.00  0.00    -0.120 Cl
ENDBRANCH   1  29
TORSDOF 10
ENDMDL
