MODEL 1
REMARK VINA RESULT:      19.5      0.000      0.000
REMARK  Name = *****
REMARK                            x       y       z     vdW  Elec       q    Type
REMARK                         _______ _______ _______ _____ _____    ______ ____
ROOT
ATOM      1  C   LIG    1       24.038 -14.852   4.123  0.00  0.00    +0.183 C 
ATOM      2  C   LIG    1       23.555 -16.290   3.599  0.00  0.00    +0.021 C 
ATOM      3  C   LIG    1       22.213 -16.144   2.772  0.00  0.00    +0.016 C 
ATOM      4  C   LIG    1       23.170 -17.055   4.900  0.00  0.00    +0.003 C 
ATOM      5  C   LIG    1       24.200 -18.093   5.399  0.00  0.00    -0.000 C 
ATOM      6  C   LIG    1       24.595 -19.081   4.281  0.00  0.00    +0.035 C 
ATOM      7  C   LIG    1       25.219 -18.317   3.093  0.00  0.00    +0.120 C 
ATOM      8  C   LIG    1       23.512 -20.165   3.892  0.00  0.00    +0.013 C 
ATOM      9  C   LIG    1       24.289 -21.397   3.343  0.00  0.00    +0.020 C 
ATOM     10  C   LIG    1       22.646 -20.632   5.093  0.00  0.00    -0.056 C 
ATOM     11  C   LIG    1       21.543 -21.375   4.824  0.00  0.00    +0.051 C 
ATOM     12  C   LIG    1       20.602 -20.553   3.977  0.00  0.00    +0.179 C 
ATOM     13  O   LIG    1       19.397 -20.523   4.173  0.00  0.00    -0.288 OA
ATOM     14  C   LIG    1       21.231 -19.855   2.825  0.00  0.00    +0.047 C 
ATOM     15  C   LIG    1       22.531 -19.773   6.337  0.00  0.00    +0.032 C 
ATOM     16  C   LIG    1       22.567 -19.719   2.774  0.00  0.00    -0.012 C 
ATOM     17  C   LIG    1       23.739 -18.901   6.623  0.00  0.00    +0.008 C 
ATOM     18  C   LIG    1       22.797 -15.954   5.914  0.00  0.00    +0.009 C 
ATOM     19  C   LIG    1       24.541 -17.013   2.643  0.00  0.00    +0.043 C 
ATOM     20  C   LIG    1       22.970 -14.608   5.208  0.00  0.00    +0.057 C 
ENDROOT
BRANCH   1  21
ATOM     21  C   LIG    1       25.469 -14.765   4.751  0.00  0.00    +0.214 C 
ATOM     22  O   LIG    1       26.414 -15.396   4.271  0.00  0.00    -0.289 OA
BRANCH  21  23
ATOM     23  C   LIG    1       25.706 -13.710   5.866  0.00  0.00    +0.310 C 
BRANCH  23  24
ATOM     24  O   LIG    1       26.484 -12.594   5.471  0.00  0.00    -0.457 OA
BRANCH  24  25
ATOM     25  C   LIG    1       27.807 -12.840   5.642  0.00  0.00    +0.307 C 
ATOM     26  O   LIG    1       28.266 -13.503   6.562  0.00  0.00    -0.251 OA
BRANCH  25  27
ATOM     27  C   LIG    1       28.588 -12.270   4.496  0.00  0.00    +0.117 C 
ATOM     28  C   LIG    1       28.916 -13.325   3.474  0.00  0.00    +0.015 C 
ENDBRANCH  25  27
ENDBRANCH  24  25
ENDBRANCH  23  24
ENDBRANCH  21  23
ENDBRANCH   1  21
BRANCH   7  29
ATOM     29  O   LIG    1       26.569 -17.994   3.432  0.00  0.00    -0.391 OA
ATOM     30  H   LIG    1       26.654 -17.026   3.444  0.00  0.00    +0.210 HD
ENDBRANCH   7  29
BRANCH   1  31
ATOM     31  O   LIG    1       23.826 -13.876   3.068  0.00  0.00    -0.419 OA
BRANCH  31  32
ATOM     32  C   LIG    1       24.911 -13.346   2.417  0.00  0.00    +0.511 C 
ATOM     33  O   LIG    1       25.848 -13.942   1.948  0.00  0.00    -0.203 OA
BRANCH  32  34
ATOM     34  O   LIG    1       24.815 -11.995   2.575  0.00  0.00    -0.434 OA
BRANCH  34  36
ATOM     35  C   LIG    1       23.655 -11.451   4.649  0.00  0.00    +0.048 C 
ATOM     36  C   LIG    1       23.572 -11.519   3.137  0.00  0.00    +0.232 C 
ENDBRANCH  34  36
ENDBRANCH  32  34
ENDBRANCH  31  32
ENDBRANCH   1  31
TORSDOF 10
ENDMDL
MODEL 2
REMARK VINA RESULT:      20.8      1.807      3.377
REMARK  Name = *****
REMARK                            x       y       z     vdW  Elec       q    Type
REMARK                         _______ _______ _______ _____ _____    ______ ____
ROOT
ATOM      1  C   LIG    1       25.963 -14.098   4.244  0.00  0.00    +0.183 C 
ATOM      2  C   LIG    1       24.884 -15.179   4.734  0.00  0.00    +0.021 C 
ATOM      3  C   LIG    1       24.952 -15.339   6.307  0.00  0.00    +0.016 C 
ATOM      4  C   LIG    1       25.405 -16.525   4.148  0.00  0.00    +0.003 C 
ATOM      5  C   LIG    1       24.670 -17.039   2.890  0.00  0.00    -0.000 C 
ATOM      6  C   LIG    1       23.143 -17.094   3.109  0.00  0.00    +0.035 C 
ATOM      7  C   LIG    1       22.603 -15.685   3.440  0.00  0.00    +0.120 C 
ATOM      8  C   LIG    1       22.613 -18.256   4.041  0.00  0.00    +0.013 C 
ATOM      9  C   LIG    1       21.158 -18.567   3.584  0.00  0.00    +0.020 C 
ATOM     10  C   LIG    1       23.446 -19.562   3.937  0.00  0.00    -0.056 C 
ATOM     11  C   LIG    1       23.221 -20.529   4.860  0.00  0.00    +0.051 C 
ATOM     12  C   LIG    1       23.553 -19.978   6.226  0.00  0.00    +0.179 C 
ATOM     13  O   LIG    1       24.170 -20.620   7.062  0.00  0.00    -0.288 OA
ATOM     14  C   LIG    1       22.992 -18.633   6.521  0.00  0.00    +0.047 C 
ATOM     15  C   LIG    1       24.864 -19.526   3.402  0.00  0.00    +0.032 C 
ATOM     16  C   LIG    1       22.525 -17.869   5.520  0.00  0.00    -0.012 C 
ATOM     17  C   LIG    1       25.142 -18.418   2.404  0.00  0.00    +0.008 C 
ATOM     18  C   LIG    1       26.927 -16.327   3.990  0.00  0.00    +0.009 C 
ATOM     19  C   LIG    1       23.404 -14.823   4.428  0.00  0.00    +0.043 C 
ATOM     20  C   LIG    1       27.254 -14.911   4.469  0.00  0.00    +0.057 C 
ENDROOT
BRANCH   1  21
ATOM     21  C   LIG    1       25.878 -13.630   2.753  0.00  0.00    +0.214 C 
ATOM     22  O   LIG    1       24.845 -13.777   2.098  0.00  0.00    -0.289 OA
BRANCH  21  23
ATOM     23  C   LIG    1       27.061 -12.794   2.189  0.00  0.00    +0.310 C 
BRANCH  23  24
ATOM     24  O   LIG    1       27.729 -11.991   3.145  0.00  0.00    -0.457 OA
BRANCH  24  25
ATOM     25  C   LIG    1       28.912 -12.548   3.505  0.00  0.00    +0.307 C 
ATOM     26  O   LIG    1       29.473 -13.432   2.872  0.00  0.00    -0.251 OA
BRANCH  25  27
ATOM     27  C   LIG    1       29.459 -11.855   4.718  0.00  0.00    +0.117 C 
ATOM     28  C   LIG    1       28.709 -12.247   5.962  0.00  0.00    +0.015 C 
ENDBRANCH  25  27
ENDBRANCH  24  25
ENDBRANCH  23  24
ENDBRANCH  21  23
ENDBRANCH   1  21
BRANCH   7  29
ATOM     29  O   LIG    1       22.510 -14.948   2.219  0.00  0.00    -0.391 OA
ATOM     30  H   LIG    1       22.176 -14.060   2.428  0.00  0.00    +0.210 HD
ENDBRANCH   7  29
BRANCH   1  31
ATOM     31  O   LIG    1       25.973 -12.989   5.183  0.00  0.00    -0.419 OA
BRANCH  31  32
ATOM     32  C   LIG    1       24.914 -12.117   5.201  0.00  0.00    +0.511 C 
ATOM     33  O   LIG    1       24.094 -11.977   6.073  0.00  0.00    -0.203 OA
BRANCH  32  34
ATOM     34  O   LIG    1       24.858 -11.575   3.951  0.00  0.00    -0.434 OA
BRANCH  34  36
ATOM     35  C   LIG    1       23.611 -11.448   1.860  0.00  0.00    +0.048 C 
ATOM     36  C   LIG    1       23.537 -11.471   3.373  0.00  0.00    +0.232 C 
ENDBRANCH  34  36
ENDBRANCH  32  34
ENDBRANCH  31  32
ENDBRANCH   1  31
TORSDOF 10
ENDMDL
MODEL 3
REMARK VINA RESULT:      22.4      2.547      6.760
REMARK  Name = *****
REMARK                            x       y       z     vdW  Elec       q    Type
REMARK                         _______ _______ _______ _____ _____    ______ ____
ROOT
ATOM      1  C   LIG    1       25.416 -18.589   3.775  0.00  0.00    +0.183 C 
ATOM      2  C   LIG    1       24.847 -17.130   3.424  0.00  0.00    +0.021 C 
ATOM      3  C   LIG    1       25.054 -16.823   1.885  0.00  0.00    +0.016 C 
ATOM      4  C   LIG    1       25.803 -16.161   4.181  0.00  0.00    +0.003 C 
ATOM      5  C   LIG    1       25.249 -15.559   5.492  0.00  0.00    -0.000 C 
ATOM      6  C   LIG    1       23.867 -14.905   5.275  0.00  0.00    +0.035 C 
ATOM      7  C   LIG    1       22.857 -15.956   4.763  0.00  0.00    +0.120 C 
ATOM      8  C   LIG    1       23.861 -13.528   4.498  0.00  0.00    +0.013 C 
ATOM      9  C   LIG    1       22.607 -12.746   4.986  0.00  0.00    +0.020 C 
ATOM     10  C   LIG    1       25.116 -12.656   4.775  0.00  0.00    -0.056 C 
ATOM     11  C   LIG    1       25.319 -11.574   3.983  0.00  0.00    +0.051 C 
ATOM     12  C   LIG    1       25.492 -12.044   2.558  0.00  0.00    +0.179 C 
ATOM     13  O   LIG    1       26.348 -11.590   1.816  0.00  0.00    -0.288 OA
ATOM     14  C   LIG    1       24.484 -13.032   2.090  0.00  0.00    +0.047 C 
ATOM     15  C   LIG    1       26.387 -13.288   5.306  0.00  0.00    +0.032 C 
ATOM     16  C   LIG    1       23.713 -13.676   2.982  0.00  0.00    -0.012 C 
ATOM     17  C   LIG    1       26.177 -14.528   6.154  0.00  0.00    +0.008 C 
ATOM     18  C   LIG    1       27.129 -16.937   4.319  0.00  0.00    +0.009 C 
ATOM     19  C   LIG    1       23.328 -16.933   3.675  0.00  0.00    +0.043 C 
ATOM     20  C   LIG    1       26.927 -18.304   3.663  0.00  0.00    +0.057 C 
ENDROOT
BRANCH   1  21
ATOM     21  C   LIG    1       25.083 -19.163   5.192  0.00  0.00    +0.214 C 
ATOM     22  O   LIG    1       24.099 -18.771   5.822  0.00  0.00    -0.289 OA
BRANCH  21  23
ATOM     23  C   LIG    1       25.911 -20.379   5.693  0.00  0.00    +0.310 C 
BRANCH  23  24
ATOM     24  O   LIG    1       26.631 -20.154   6.891  0.00  0.00    -0.457 OA
BRANCH  24  25
ATOM     25  C   LIG    1       27.962 -20.332   6.698  0.00  0.00    +0.307 C 
ATOM     26  O   LIG    1       28.454 -21.345   6.220  0.00  0.00    -0.251 OA
BRANCH  25  27
ATOM     27  C   LIG    1       28.706 -19.081   7.060  0.00  0.00    +0.117 C 
ATOM     28  C   LIG    1       29.475 -18.539   5.885  0.00  0.00    +0.015 C 
ENDBRANCH  25  27
ENDBRANCH  24  25
ENDBRANCH  23  24
ENDBRANCH  21  23
ENDBRANCH   1  21
BRANCH   7  29
ATOM     29  O   LIG    1       22.431 -16.741   5.877  0.00  0.00    -0.391 OA
ATOM     30  H   LIG    1       21.796 -17.403   5.555  0.00  0.00    +0.210 HD
ENDBRANCH   7  29
BRANCH   1  31
ATOM     31  O   LIG    1       25.059 -19.500   2.701  0.00  0.00    -0.419 OA
BRANCH  31  32
ATOM     32  C   LIG    1       23.962 -20.310   2.846  0.00  0.00    +0.511 C 
ATOM     33  O   LIG    1       23.569 -21.158   2.084  0.00  0.00    -0.203 OA
BRANCH  32  34
ATOM     34  O   LIG    1       23.290 -19.834   3.934  0.00  0.00    -0.434 OA
BRANCH  34  36
ATOM     35  C   LIG    1       21.434 -20.970   5.031  0.00  0.00    +0.048 C 
ATOM     36  C   LIG    1       21.858 -20.032   3.920  0.00  0.00    +0.232 C 
ENDBRANCH  34  36
ENDBRANCH  32  34
ENDBRANCH  31  32
ENDBRANCH   1  31
TORSDOF 10
ENDMDL
