MODEL 1
REMARK VINA RESULT:      -4.2      0.000      0.000
REMARK  Name = *****
REMARK                            x       y       z     vdW  Elec       q    Type
REMARK                         _______ _______ _______ _____ _____    ______ ____
ROOT
ATOM      1  O   LIG    1       25.186 -17.616   2.930  0.00  0.00    -0.270 OA
ATOM      2  C   LIG    1       26.110 -17.896   3.690  0.00  0.00    +0.247 C 
ATOM      3  N   LIG    1       27.233 -17.062   3.876  0.00  0.00    -0.292 N 
ATOM      4  C   LIG    1       28.049 -17.290   5.069  0.00  0.00    +0.116 C 
ATOM      5  C   LIG    1       28.395 -18.772   5.236  0.00  0.00    +0.037 C 
ATOM      6  C   LIG    1       29.261 -19.010   6.477  0.00  0.00    +0.010 C 
ATOM      7  C   LIG    1       29.475 -20.508   6.676  0.00  0.00    +0.005 C 
ATOM      8  C   LIG    1       28.145 -21.219   6.929  0.00  0.00    +0.035 C 
ATOM      9  C   LIG    1       27.032 -20.774   6.011  0.00  0.00    -0.043 A 
ATOM     10  C   LIG    1       25.848 -21.522   5.963  0.00  0.00    +0.004 A 
ATOM     11  C   LIG    1       24.777 -21.109   5.172  0.00  0.00    +0.001 A 
ATOM     12  C   LIG    1       24.872 -19.932   4.430  0.00  0.00    +0.013 A 
ATOM     13  C   LIG    1       27.126 -19.585   5.262  0.00  0.00    -0.028 A 
ATOM     14  C   LIG    1       26.042 -19.164   4.476  0.00  0.00    +0.041 A 
ENDROOT
BRANCH   3  15
ATOM     15  C   LIG    1       27.153 -15.717   3.258  0.00  0.00    +0.093 C 
ATOM     16  C   LIG    1       25.736 -15.100   3.106  0.00  0.00    +0.013 C 
ATOM     17  C   LIG    1       25.235 -14.616   4.479  0.00  0.00    +0.021 C 
ATOM     18  C   LIG    1       26.166 -13.519   5.016  0.00  0.00    +0.085 C 
ATOM     19  N   LIG    1       27.348 -13.340   4.150  0.00  0.00    -0.300 NA
ATOM     20  C   LIG    1       26.907 -12.892   2.814  0.00  0.00    +0.085 C 
ATOM     21  C   LIG    1       25.871 -13.853   2.210  0.00  0.00    +0.021 C 
ATOM     22  C   LIG    1       28.027 -14.658   4.014  0.00  0.00    +0.107 C 
ENDBRANCH   3  15
TORSDOF 1
ENDMDL
MODEL 2
REMARK VINA RESULT:      -3.2      2.540      6.724
REMARK  Name = *****
REMARK                            x       y       z     vdW  Elec       q    Type
REMARK                         _______ _______ _______ _____ _____    ______ ____
ROOT
ATOM      1  O   LIG    1       26.219 -18.144   2.997  0.00  0.00    -0.270 OA
ATOM      2  C   LIG    1       25.493 -17.238   3.397  0.00  0.00    +0.247 C 
ATOM      3  N   LIG    1       24.119 -17.416   3.668  0.00  0.00    -0.292 N 
ATOM      4  C   LIG    1       23.461 -16.408   4.501  0.00  0.00    +0.116 C 
ATOM      5  C   LIG    1       23.777 -14.990   4.016  0.00  0.00    +0.037 C 
ATOM      6  C   LIG    1       23.078 -13.934   4.879  0.00  0.00    +0.010 C 
ATOM      7  C   LIG    1       23.519 -12.540   4.443  0.00  0.00    +0.005 C 
ATOM      8  C   LIG    1       25.021 -12.352   4.656  0.00  0.00    +0.035 C 
ATOM      9  C   LIG    1       25.851 -13.533   4.213  0.00  0.00    -0.043 A 
ATOM     10  C   LIG    1       27.242 -13.389   4.112  0.00  0.00    +0.004 A 
ATOM     11  C   LIG    1       28.046 -14.474   3.762  0.00  0.00    +0.001 A 
ATOM     12  C   LIG    1       27.469 -15.720   3.525  0.00  0.00    +0.013 A 
ATOM     13  C   LIG    1       25.271 -14.793   3.974  0.00  0.00    -0.028 A 
ATOM     14  C   LIG    1       26.084 -15.887   3.634  0.00  0.00    +0.041 A 
ENDROOT
BRANCH   3  15
ATOM     15  C   LIG    1       23.627 -18.815   3.641  0.00  0.00    +0.093 C 
ATOM     16  C   LIG    1       24.657 -19.924   3.985  0.00  0.00    +0.013 C 
ATOM     17  C   LIG    1       24.917 -19.933   5.503  0.00  0.00    +0.021 C 
ATOM     18  C   LIG    1       23.616 -20.255   6.252  0.00  0.00    +0.085 C 
ATOM     19  N   LIG    1       22.463 -20.319   5.333  0.00  0.00    -0.300 NA
ATOM     20  C   LIG    1       22.670 -21.419   4.371  0.00  0.00    +0.085 C 
ATOM     21  C   LIG    1       24.009 -21.278   3.631  0.00  0.00    +0.021 C 
ATOM     22  C   LIG    1       22.395 -19.034   4.584  0.00  0.00    +0.107 C 
ENDBRANCH   3  15
TORSDOF 1
ENDMDL
MODEL 3
REMARK VINA RESULT:      -2.8      2.376      6.473
REMARK  Name = *****
REMARK                            x       y       z     vdW  Elec       q    Type
REMARK                         _______ _______ _______ _____ _____    ______ ____
ROOT
ATOM      1  O   LIG    1       22.335 -16.553   4.286  0.00  0.00    -0.270 OA
ATOM      2  C   LIG    1       23.531 -16.363   4.083  0.00  0.00    +0.247 C 
ATOM      3  N   LIG    1       24.466 -17.413   3.960  0.00  0.00    -0.292 N 
ATOM      4  C   LIG    1       25.751 -17.099   3.333  0.00  0.00    +0.116 C 
ATOM      5  C   LIG    1       26.374 -15.837   3.936  0.00  0.00    +0.037 C 
ATOM      6  C   LIG    1       27.725 -15.515   3.290  0.00  0.00    +0.010 C 
ATOM      7  C   LIG    1       28.249 -14.186   3.828  0.00  0.00    +0.005 C 
ATOM      8  C   LIG    1       27.306 -13.041   3.459  0.00  0.00    +0.035 C 
ATOM      9  C   LIG    1       25.845 -13.365   3.661  0.00  0.00    -0.043 A 
ATOM     10  C   LIG    1       24.903 -12.329   3.611  0.00  0.00    +0.004 A 
ATOM     11  C   LIG    1       23.541 -12.599   3.735  0.00  0.00    +0.001 A 
ATOM     12  C   LIG    1       23.103 -13.913   3.895  0.00  0.00    +0.013 A 
ATOM     13  C   LIG    1       25.401 -14.692   3.821  0.00  0.00    -0.028 A 
ATOM     14  C   LIG    1       24.028 -14.962   3.933  0.00  0.00    +0.041 A 
ENDROOT
BRANCH   3  15
ATOM     15  C   LIG    1       23.901 -18.782   3.885  0.00  0.00    +0.093 C 
ATOM     16  C   LIG    1       24.916 -19.949   3.742  0.00  0.00    +0.013 C 
ATOM     17  C   LIG    1       25.613 -20.195   5.093  0.00  0.00    +0.021 C 
ATOM     18  C   LIG    1       24.574 -20.607   6.146  0.00  0.00    +0.085 C 
ATOM     19  N   LIG    1       23.199 -20.509   5.619  0.00  0.00    -0.300 NA
ATOM     20  C   LIG    1       23.043 -21.451   4.494  0.00  0.00    +0.085 C 
ATOM     21  C   LIG    1       24.109 -21.221   3.412  0.00  0.00    +0.021 C 
ATOM     22  C   LIG    1       22.992 -19.122   5.116  0.00  0.00    +0.107 C 
ENDBRANCH   3  15
TORSDOF 1
ENDMDL
MODEL 4
REMARK VINA RESULT:      -1.8      1.182      2.826
REMARK  Name = *****
REMARK                            x       y       z     vdW  Elec       q    Type
REMARK                         _______ _______ _______ _____ _____    ______ ____
ROOT
ATOM      1  O   LIG    1       28.505 -17.006   4.945  0.00  0.00    -0.270 OA
ATOM      2  C   LIG    1       27.438 -17.534   4.641  0.00  0.00    +0.247 C 
ATOM      3  N   LIG    1       26.454 -16.886   3.864  0.00  0.00    -0.292 N 
ATOM      4  C   LIG    1       25.430 -17.724   3.239  0.00  0.00    +0.116 C 
ATOM      5  C   LIG    1       24.821 -18.706   4.243  0.00  0.00    +0.037 C 
ATOM      6  C   LIG    1       23.740 -19.575   3.593  0.00  0.00    +0.010 C 
ATOM      7  C   LIG    1       23.252 -20.621   4.591  0.00  0.00    +0.005 C 
ATOM      8  C   LIG    1       24.387 -21.564   4.992  0.00  0.00    +0.035 C 
ATOM      9  C   LIG    1       25.690 -20.859   5.279  0.00  0.00    -0.043 A 
ATOM     10  C   LIG    1       26.726 -21.569   5.902  0.00  0.00    +0.004 A 
ATOM     11  C   LIG    1       27.964 -20.968   6.130  0.00  0.00    +0.001 A 
ATOM     12  C   LIG    1       28.185 -19.653   5.723  0.00  0.00    +0.013 A 
ATOM     13  C   LIG    1       25.917 -19.531   4.868  0.00  0.00    -0.028 A 
ATOM     14  C   LIG    1       27.168 -18.933   5.087  0.00  0.00    +0.041 A 
ENDROOT
BRANCH   3  15
ATOM     15  C   LIG    1       26.853 -15.595   3.252  0.00  0.00    +0.093 C 
ATOM     16  C   LIG    1       25.725 -14.554   3.019  0.00  0.00    +0.013 C 
ATOM     17  C   LIG    1       25.327 -13.916   4.363  0.00  0.00    +0.021 C 
ATOM     18  C   LIG    1       26.530 -13.173   4.963  0.00  0.00    +0.085 C 
ATOM     19  N   LIG    1       27.756 -13.399   4.172  0.00  0.00    -0.300 NA
ATOM     20  C   LIG    1       27.565 -12.850   2.816  0.00  0.00    +0.085 C 
ATOM     21  C   LIG    1       26.312 -13.429   2.142  0.00  0.00    +0.021 C 
ATOM     22  C   LIG    1       27.977 -14.868   4.069  0.00  0.00    +0.107 C 
ENDBRANCH   3  15
TORSDOF 1
ENDMDL
