MODEL 1
REMARK VINA RESULT:       4.2      0.000      0.000
REMARK  Name = *****
REMARK                            x       y       z     vdW  Elec       q    Type
REMARK                         _______ _______ _______ _____ _____    ______ ____
ROOT
ATOM      1  C   LIG    1       25.519 -13.172   4.057  0.00  0.00    +0.132 C 
ATOM      2  C   LIG    1       24.933 -14.579   4.509  0.00  0.00    +0.011 C 
ATOM      3  C   LIG    1       25.302 -14.784   6.010  0.00  0.00    +0.015 C 
ATOM      4  C   LIG    1       25.760 -15.588   3.658  0.00  0.00    +0.002 C 
ATOM      5  C   LIG    1       25.091 -16.779   2.950  0.00  0.00    -0.003 C 
ATOM      6  C   LIG    1       23.689 -17.194   3.498  0.00  0.00    -0.000 C 
ATOM      7  C   LIG    1       22.868 -15.889   3.514  0.00  0.00    +0.005 C 
ATOM      8  C   LIG    1       23.744 -18.116   4.786  0.00  0.00    +0.018 C 
ATOM      9  C   LIG    1       24.896 -19.079   4.595  0.00  0.00    -0.070 C 
ATOM     10  C   LIG    1       24.679 -20.345   4.205  0.00  0.00    -0.027 C 
ATOM     11  C   LIG    1       24.015 -21.114   5.286  0.00  0.00    +0.027 C 
ATOM     12  C   LIG    1       22.658 -20.471   5.574  0.00  0.00    +0.005 C 
ATOM     13  C   LIG    1       26.239 -18.516   4.334  0.00  0.00    +0.031 C 
ATOM     14  C   LIG    1       22.463 -18.960   5.151  0.00  0.00    +0.008 C 
ATOM     15  C   LIG    1       26.121 -17.923   2.942  0.00  0.00    +0.008 C 
ATOM     16  C   LIG    1       26.584 -14.780   2.643  0.00  0.00    +0.008 C 
ATOM     17  C   LIG    1       23.387 -14.789   4.445  0.00  0.00    +0.011 C 
ATOM     18  C   LIG    1       26.867 -13.507   3.395  0.00  0.00    +0.049 C 
ENDROOT
BRANCH   1  20
ATOM     19  C   LIG    1       23.980 -11.662   2.478  0.00  0.00    +0.007 C 
ATOM     20  C   LIG    1       24.633 -12.424   3.165  0.00  0.00    -0.070 C 
ENDBRANCH   1  20
BRANCH   1  21
ATOM     21  O   LIG    1       25.806 -12.315   5.160  0.00  0.00    -0.376 OA
ATOM     22  H   LIG    1       24.948 -12.025   5.516  0.00  0.00    +0.211 HD
ENDBRANCH   1  21
TORSDOF 2
ENDMDL
MODEL 2
REMARK VINA RESULT:       6.4      2.237      6.028
REMARK  Name = *****
REMARK                            x       y       z     vdW  Elec       q    Type
REMARK                         _______ _______ _______ _____ _____    ______ ____
ROOT
ATOM      1  C   LIG    1       23.085 -19.319   4.211  0.00  0.00    +0.132 C 
ATOM      2  C   LIG    1       23.079 -17.760   3.898  0.00  0.00    +0.011 C 
ATOM      3  C   LIG    1       22.306 -17.550   2.560  0.00  0.00    +0.015 C 
ATOM      4  C   LIG    1       24.585 -17.451   3.648  0.00  0.00    +0.002 C 
ATOM      5  C   LIG    1       25.260 -16.206   4.249  0.00  0.00    -0.003 C 
ATOM      6  C   LIG    1       24.296 -15.059   4.693  0.00  0.00    -0.000 C 
ATOM      7  C   LIG    1       23.253 -15.747   5.597  0.00  0.00    +0.005 C 
ATOM      8  C   LIG    1       23.826 -14.113   3.511  0.00  0.00    +0.018 C 
ATOM      9  C   LIG    1       25.019 -13.911   2.602  0.00  0.00    -0.070 C 
ATOM     10  C   LIG    1       25.747 -12.785   2.661  0.00  0.00    -0.027 C 
ATOM     11  C   LIG    1       24.966 -11.634   2.146  0.00  0.00    +0.027 C 
ATOM     12  C   LIG    1       23.735 -11.447   3.036  0.00  0.00    +0.005 C 
ATOM     13  C   LIG    1       25.680 -15.110   2.042  0.00  0.00    +0.031 C 
ATOM     14  C   LIG    1       23.252 -12.693   3.881  0.00  0.00    +0.008 C 
ATOM     15  C   LIG    1       26.338 -15.760   3.245  0.00  0.00    +0.008 C 
ATOM     16  C   LIG    1       25.389 -18.705   4.022  0.00  0.00    +0.008 C 
ATOM     17  C   LIG    1       22.380 -16.806   4.917  0.00  0.00    +0.011 C 
ATOM     18  C   LIG    1       24.437 -19.818   3.671  0.00  0.00    +0.049 C 
ENDROOT
BRANCH   1  20
ATOM     19  C   LIG    1       22.863 -20.025   6.779  0.00  0.00    +0.007 C 
ATOM     20  C   LIG    1       22.902 -19.636   5.628  0.00  0.00    -0.070 C 
ENDBRANCH   1  20
BRANCH   1  21
ATOM     21  O   LIG    1       22.073 -20.028   3.500  0.00  0.00    -0.376 OA
ATOM     22  H   LIG    1       22.083 -20.940   3.839  0.00  0.00    +0.211 HD
ENDBRANCH   1  21
TORSDOF 2
ENDMDL
MODEL 3
REMARK VINA RESULT:       6.9      2.296      6.237
REMARK  Name = *****
REMARK                            x       y       z     vdW  Elec       q    Type
REMARK                         _______ _______ _______ _____ _____    ______ ____
ROOT
ATOM      1  C   LIG    1       23.500 -20.373   4.573  0.00  0.00    +0.132 C 
ATOM      2  C   LIG    1       24.437 -19.090   4.626  0.00  0.00    +0.011 C 
ATOM      3  C   LIG    1       25.042 -19.005   6.061  0.00  0.00    +0.015 C 
ATOM      4  C   LIG    1       23.427 -17.917   4.449  0.00  0.00    +0.002 C 
ATOM      5  C   LIG    1       23.726 -16.734   3.511  0.00  0.00    -0.003 C 
ATOM      6  C   LIG    1       25.229 -16.527   3.137  0.00  0.00    -0.000 C 
ATOM      7  C   LIG    1       25.705 -17.905   2.637  0.00  0.00    +0.005 C 
ATOM      8  C   LIG    1       26.066 -15.744   4.232  0.00  0.00    +0.018 C 
ATOM      9  C   LIG    1       25.172 -14.652   4.779  0.00  0.00    -0.070 C 
ATOM     10  C   LIG    1       25.304 -13.382   4.366  0.00  0.00    -0.027 C 
ATOM     11  C   LIG    1       26.576 -12.803   4.865  0.00  0.00    +0.027 C 
ATOM     12  C   LIG    1       27.737 -13.610   4.284  0.00  0.00    +0.005 C 
ATOM     13  C   LIG    1       23.863 -15.042   5.345  0.00  0.00    +0.031 C 
ATOM     14  C   LIG    1       27.427 -15.080   3.792  0.00  0.00    +0.008 C 
ATOM     15  C   LIG    1       23.063 -15.495   4.138  0.00  0.00    +0.008 C 
ATOM     16  C   LIG    1       22.061 -18.524   4.096  0.00  0.00    +0.008 C 
ATOM     17  C   LIG    1       25.669 -19.037   3.668  0.00  0.00    +0.011 C 
ATOM     18  C   LIG    1       22.085 -19.832   4.841  0.00  0.00    +0.049 C 
ENDROOT
BRANCH   1  20
ATOM     19  C   LIG    1       23.663 -21.571   2.190  0.00  0.00    +0.007 C 
ATOM     20  C   LIG    1       23.584 -21.112   3.313  0.00  0.00    -0.070 C 
ENDBRANCH   1  20
BRANCH   1  21
ATOM     21  O   LIG    1       23.786 -21.306   5.613  0.00  0.00    -0.376 OA
ATOM     22  H   LIG    1       24.387 -20.856   6.231  0.00  0.00    +0.211 HD
ENDBRANCH   1  21
TORSDOF 2
ENDMDL
