MODEL 1
REMARK VINA RESULT:       0.6      0.000      0.000
REMARK  Name = *****
REMARK                            x       y       z     vdW  Elec       q    Type
REMARK                         _______ _______ _______ _____ _____    ______ ____
ROOT
ATOM      1  N   LIG    1       26.274 -17.117   3.347  0.00  0.00    -0.297 N 
ATOM      2  C   LIG    1       25.919 -15.720   3.195  0.00  0.00    +0.048 A 
ATOM      3  C   LIG    1       24.799 -15.154   3.840  0.00  0.00    +0.034 A 
ATOM      4  C   LIG    1       24.559 -13.778   3.736  0.00  0.00    +0.017 A 
ATOM      5  C   LIG    1       25.385 -12.979   2.943  0.00  0.00    +0.001 A 
ATOM      6  C   LIG    1       26.448 -13.547   2.244  0.00  0.00    +0.002 A 
ATOM      7  S   LIG    1       23.661 -16.166   4.782  0.00  0.00    -0.086 S 
ATOM      8  C   LIG    1       23.963 -17.750   4.001  0.00  0.00    +0.034 A 
ATOM      9  C   LIG    1       22.922 -18.691   3.962  0.00  0.00    +0.017 A 
ATOM     10  C   LIG    1       23.107 -19.906   3.296  0.00  0.00    +0.001 A 
ATOM     11  C   LIG    1       24.310 -20.194   2.671  0.00  0.00    +0.002 A 
ATOM     12  C   LIG    1       25.355 -19.267   2.715  0.00  0.00    +0.024 A 
ATOM     13  C   LIG    1       26.724 -14.911   2.377  0.00  0.00    +0.024 A 
ATOM     14  C   LIG    1       25.194 -18.051   3.398  0.00  0.00    +0.048 A 
ENDROOT
BRANCH   1  15
ATOM     15  C   LIG    1       27.090 -17.172   4.611  0.00  0.00    +0.129 C 
BRANCH  15  16
ATOM     16  C   LIG    1       27.973 -18.433   4.854  0.00  0.00    +0.071 C 
ATOM     17  C   LIG    1       29.441 -18.033   5.073  0.00  0.00    +0.026 C 
BRANCH  16  18
ATOM     18  N   LIG    1       27.522 -19.354   5.953  0.00  0.00    -0.299 NA
BRANCH  18  20
ATOM     19  C   LIG    1       25.304 -20.641   6.289  0.00  0.00    +0.020 C 
ATOM     20  C   LIG    1       26.647 -20.476   5.576  0.00  0.00    +0.081 C 
ENDBRANCH  18  20
BRANCH  18  21
ATOM     21  C   LIG    1       28.616 -19.711   6.871  0.00  0.00    +0.081 C 
ATOM     22  C   LIG    1       28.840 -21.214   7.062  0.00  0.00    +0.020 C 
ENDBRANCH  18  21
ENDBRANCH  16  18
ENDBRANCH  15  16
ENDBRANCH   1  15
TORSDOF 5
ENDMDL
MODEL 2
REMARK VINA RESULT:       1.7      0.512      1.414
REMARK  Name = *****
REMARK                            x       y       z     vdW  Elec       q    Type
REMARK                         _______ _______ _______ _____ _____    ______ ____
ROOT
ATOM      1  N   LIG    1       25.874 -17.440   3.515  0.00  0.00    -0.297 N 
ATOM      2  C   LIG    1       25.624 -16.019   3.375  0.00  0.00    +0.048 A 
ATOM      3  C   LIG    1       24.561 -15.373   4.041  0.00  0.00    +0.034 A 
ATOM      4  C   LIG    1       24.425 -13.982   3.947  0.00  0.00    +0.017 A 
ATOM      5  C   LIG    1       25.298 -13.243   3.144  0.00  0.00    +0.001 A 
ATOM      6  C   LIG    1       26.304 -13.887   2.427  0.00  0.00    +0.002 A 
ATOM      7  S   LIG    1       23.364 -16.301   4.995  0.00  0.00    -0.086 S 
ATOM      8  C   LIG    1       23.532 -17.898   4.202  0.00  0.00    +0.034 A 
ATOM      9  C   LIG    1       22.421 -18.757   4.175  0.00  0.00    +0.017 A 
ATOM     10  C   LIG    1       22.503 -19.978   3.500  0.00  0.00    +0.001 A 
ATOM     11  C   LIG    1       23.670 -20.354   2.854  0.00  0.00    +0.002 A 
ATOM     12  C   LIG    1       24.784 -19.509   2.887  0.00  0.00    +0.024 A 
ATOM     13  C   LIG    1       26.476 -15.269   2.548  0.00  0.00    +0.024 A 
ATOM     14  C   LIG    1       24.727 -18.289   3.578  0.00  0.00    +0.048 A 
ENDROOT
BRANCH   1  15
ATOM     15  C   LIG    1       26.703 -17.565   4.765  0.00  0.00    +0.129 C 
BRANCH  15  16
ATOM     16  C   LIG    1       27.874 -18.593   4.764  0.00  0.00    +0.071 C 
ATOM     17  C   LIG    1       29.189 -17.918   5.186  0.00  0.00    +0.026 C 
BRANCH  16  18
ATOM     18  N   LIG    1       27.657 -19.844   5.568  0.00  0.00    -0.299 NA
BRANCH  18  20
ATOM     19  C   LIG    1       29.283 -21.190   7.062  0.00  0.00    +0.020 C 
ATOM     20  C   LIG    1       28.394 -19.967   6.837  0.00  0.00    +0.081 C 
ENDBRANCH  18  20
BRANCH  18  21
ATOM     21  C   LIG    1       26.237 -20.223   5.644  0.00  0.00    +0.081 C 
ATOM     22  C   LIG    1       25.696 -20.434   7.062  0.00  0.00    +0.020 C 
ENDBRANCH  18  21
ENDBRANCH  16  18
ENDBRANCH  15  16
ENDBRANCH   1  15
TORSDOF 5
ENDMDL
MODEL 3
REMARK VINA RESULT:       2.5      1.772      5.931
REMARK  Name = *****
REMARK                            x       y       z     vdW  Elec       q    Type
REMARK                         _______ _______ _______ _____ _____    ______ ____
ROOT
ATOM      1  N   LIG    1       25.911 -19.062   4.278  0.00  0.00    -0.297 N 
ATOM      2  C   LIG    1       24.764 -19.946   4.236  0.00  0.00    +0.048 A 
ATOM      3  C   LIG    1       24.297 -20.626   5.381  0.00  0.00    +0.034 A 
ATOM      4  C   LIG    1       23.125 -21.390   5.306  0.00  0.00    +0.017 A 
ATOM      5  C   LIG    1       22.458 -21.535   4.087  0.00  0.00    +0.001 A 
ATOM      6  C   LIG    1       22.958 -20.926   2.939  0.00  0.00    +0.002 A 
ATOM      7  S   LIG    1       25.183 -20.545   6.935  0.00  0.00    -0.086 S 
ATOM      8  C   LIG    1       26.818 -20.150   6.318  0.00  0.00    +0.034 A 
ATOM      9  C   LIG    1       27.936 -20.573   7.054  0.00  0.00    +0.017 A 
ATOM     10  C   LIG    1       29.223 -20.342   6.560  0.00  0.00    +0.001 A 
ATOM     11  C   LIG    1       29.409 -19.697   5.347  0.00  0.00    +0.002 A 
ATOM     12  C   LIG    1       28.301 -19.261   4.614  0.00  0.00    +0.024 A 
ATOM     13  C   LIG    1       24.100 -20.124   3.011  0.00  0.00    +0.024 A 
ATOM     14  C   LIG    1       27.003 -19.467   5.106  0.00  0.00    +0.048 A 
ENDROOT
BRANCH   1  15
ATOM     15  C   LIG    1       25.361 -17.735   4.727  0.00  0.00    +0.129 C 
BRANCH  15  16
ATOM     16  C   LIG    1       24.628 -16.854   3.671  0.00  0.00    +0.071 C 
ATOM     17  C   LIG    1       23.148 -16.678   4.045  0.00  0.00    +0.026 C 
BRANCH  16  18
ATOM     18  N   LIG    1       25.248 -15.516   3.381  0.00  0.00    -0.299 NA
BRANCH  18  20
ATOM     19  C   LIG    1       24.000 -13.251   3.362  0.00  0.00    +0.020 C 
ATOM     20  C   LIG    1       24.730 -14.357   4.126  0.00  0.00    +0.081 C 
ENDBRANCH  18  20
BRANCH  18  21
ATOM     21  C   LIG    1       26.716 -15.584   3.296  0.00  0.00    +0.081 C 
ATOM     22  C   LIG    1       27.465 -14.567   4.163  0.00  0.00    +0.020 C 
ENDBRANCH  18  21
ENDBRANCH  16  18
ENDBRANCH  15  16
ENDBRANCH   1  15
TORSDOF 5
ENDMDL
