MODEL 1
REMARK VINA RESULT:      -5.9      0.000      0.000
REMARK  Name = *****
REMARK                            x       y       z     vdW  Elec       q    Type
REMARK                         _______ _______ _______ _____ _____    ______ ____
ROOT
ATOM      1  C   LIG    1       22.940 -18.914   4.352  0.00  0.00    +0.041 A 
ATOM      2  C   LIG    1       23.602 -20.019   4.973  0.00  0.00    +0.003 A 
ATOM      3  C   LIG    1       22.818 -21.183   5.198  0.00  0.00    +0.010 A 
ATOM      4  C   LIG    1       21.477 -21.282   4.825  0.00  0.00    +0.001 A 
ATOM      5  C   LIG    1       20.851 -20.198   4.244  0.00  0.00    +0.002 A 
ATOM      6  C   LIG    1       21.572 -19.028   4.025  0.00  0.00    +0.024 A 
ENDROOT
BRANCH   2   7
ATOM      7  C   LIG    1       25.047 -20.067   5.398  0.00  0.00    -0.016 A 
ATOM      8  C   LIG    1       26.081 -19.735   4.490  0.00  0.00    +0.010 A 
ATOM      9  C   LIG    1       27.438 -19.777   4.842  0.00  0.00    +0.020 A 
ATOM     10  C   LIG    1       27.800 -20.115   6.136  0.00  0.00    +0.041 A 
ATOM     11 CL   LIG    1       29.459 -20.119   6.593  0.00  0.00    -0.084 Cl
ATOM     12  C   LIG    1       26.820 -20.461   7.058  0.00  0.00    +0.020 A 
ATOM     13  C   LIG    1       25.467 -20.481   6.675  0.00  0.00    +0.010 A 
ENDBRANCH   2   7
BRANCH   1  16
ATOM     14  O   LIG    1       22.385 -16.060   5.073  0.00  0.00    -0.270 OA
ATOM     15  C   LIG    1       23.340 -16.414   4.397  0.00  0.00    +0.251 C 
ATOM     16  N   LIG    1       23.644 -17.719   4.024  0.00  0.00    -0.281 N 
ATOM     17  H   LIG    1       24.432 -17.846   3.405  0.00  0.00    +0.155 HD
BRANCH  15  18
ATOM     18  C   LIG    1       24.291 -15.342   3.992  0.00  0.00    +0.074 A 
ATOM     19  C   LIG    1       25.586 -15.518   3.523  0.00  0.00    +0.141 A 
ATOM     20 CL   LIG    1       26.324 -17.046   3.231  0.00  0.00    -0.061 Cl
ATOM     21  N   LIG    1       26.423 -14.504   3.192  0.00  0.00    -0.243 NA
ATOM     22  C   LIG    1       25.944 -13.248   3.296  0.00  0.00    +0.112 A 
ATOM     23  C   LIG    1       24.663 -12.954   3.719  0.00  0.00    +0.020 A 
ATOM     24  C   LIG    1       23.831 -14.014   4.075  0.00  0.00    +0.017 A 
ENDBRANCH  15  18
ENDBRANCH   1  16
TORSDOF 3
ENDMDL
MODEL 2
REMARK VINA RESULT:      -5.9      1.305      1.877
REMARK  Name = *****
REMARK                            x       y       z     vdW  Elec       q    Type
REMARK                         _______ _______ _______ _____ _____    ______ ____
ROOT
ATOM      1  C   LIG    1       23.330 -18.627   4.204  0.00  0.00    +0.041 A 
ATOM      2  C   LIG    1       23.820 -19.783   4.891  0.00  0.00    +0.003 A 
ATOM      3  C   LIG    1       22.882 -20.824   5.127  0.00  0.00    +0.010 A 
ATOM      4  C   LIG    1       21.553 -20.763   4.706  0.00  0.00    +0.001 A 
ATOM      5  C   LIG    1       21.096 -19.632   4.061  0.00  0.00    +0.002 A 
ATOM      6  C   LIG    1       21.972 -18.576   3.828  0.00  0.00    +0.024 A 
ENDROOT
BRANCH   2   7
ATOM      7  C   LIG    1       25.230 -20.001   5.375  0.00  0.00    -0.016 A 
ATOM      8  C   LIG    1       25.483 -20.719   6.569  0.00  0.00    +0.010 A 
ATOM      9  C   LIG    1       26.779 -20.934   7.060  0.00  0.00    +0.020 A 
ATOM     10  C   LIG    1       27.870 -20.471   6.342  0.00  0.00    +0.041 A 
ATOM     11 CL   LIG    1       29.466 -20.776   6.908  0.00  0.00    -0.084 Cl
ATOM     12  C   LIG    1       27.669 -19.750   5.171  0.00  0.00    +0.020 A 
ATOM     13  C   LIG    1       26.364 -19.482   4.724  0.00  0.00    +0.010 A 
ENDBRANCH   2   7
BRANCH   1  16
ATOM     14  O   LIG    1       23.002 -15.671   4.553  0.00  0.00    -0.270 OA
ATOM     15  C   LIG    1       23.991 -16.188   4.055  0.00  0.00    +0.251 C 
ATOM     16  N   LIG    1       24.197 -17.550   3.860  0.00  0.00    -0.281 N 
ATOM     17  H   LIG    1       25.039 -17.819   3.373  0.00  0.00    +0.155 HD
BRANCH  15  18
ATOM     18  C   LIG    1       25.097 -15.263   3.682  0.00  0.00    +0.074 A 
ATOM     19  C   LIG    1       24.977 -13.919   3.354  0.00  0.00    +0.141 A 
ATOM     20 CL   LIG    1       23.506 -13.026   3.404  0.00  0.00    -0.061 Cl
ATOM     21  N   LIG    1       26.014 -13.125   2.993  0.00  0.00    -0.243 NA
ATOM     22  C   LIG    1       27.244 -13.677   2.990  0.00  0.00    +0.112 A 
ATOM     23  C   LIG    1       27.488 -14.994   3.328  0.00  0.00    +0.020 A 
ATOM     24  C   LIG    1       26.400 -15.794   3.673  0.00  0.00    +0.017 A 
ENDBRANCH  15  18
ENDBRANCH   1  16
TORSDOF 3
ENDMDL
MODEL 3
REMARK VINA RESULT:      -4.8      2.213      5.321
REMARK  Name = *****
REMARK                            x       y       z     vdW  Elec       q    Type
REMARK                         _______ _______ _______ _____ _____    ______ ____
ROOT
ATOM      1  C   LIG    1       23.321 -19.740   4.817  0.00  0.00    +0.041 A 
ATOM      2  C   LIG    1       22.822 -18.523   4.254  0.00  0.00    +0.003 A 
ATOM      3  C   LIG    1       21.466 -18.531   3.829  0.00  0.00    +0.010 A 
ATOM      4  C   LIG    1       20.632 -19.643   3.959  0.00  0.00    +0.001 A 
ATOM      5  C   LIG    1       21.139 -20.813   4.488  0.00  0.00    +0.002 A 
ATOM      6  C   LIG    1       22.468 -20.861   4.897  0.00  0.00    +0.024 A 
ENDROOT
BRANCH   2   7
ATOM      7  C   LIG    1       23.593 -17.240   4.080  0.00  0.00    -0.016 A 
ATOM      8  C   LIG    1       23.057 -16.008   4.528  0.00  0.00    +0.010 A 
ATOM      9  C   LIG    1       23.737 -14.790   4.375  0.00  0.00    +0.020 A 
ATOM     10  C   LIG    1       25.000 -14.776   3.805  0.00  0.00    +0.041 A 
ATOM     11 CL   LIG    1       25.863 -13.295   3.661  0.00  0.00    -0.084 Cl
ATOM     12  C   LIG    1       25.558 -15.960   3.339  0.00  0.00    +0.020 A 
ATOM     13  C   LIG    1       24.841 -17.165   3.435  0.00  0.00    +0.010 A 
ENDBRANCH   2   7
BRANCH   1  16
ATOM     14  O   LIG    1       25.924 -20.255   3.429  0.00  0.00    -0.270 OA
ATOM     15  C   LIG    1       25.825 -20.062   4.632  0.00  0.00    +0.251 C 
ATOM     16  N   LIG    1       24.647 -19.827   5.332  0.00  0.00    -0.281 N 
ATOM     17  H   LIG    1       24.719 -19.753   6.337  0.00  0.00    +0.155 HD
BRANCH  15  18
ATOM     18  C   LIG    1       27.102 -20.021   5.398  0.00  0.00    +0.074 A 
ATOM     19  C   LIG    1       28.086 -19.045   5.313  0.00  0.00    +0.141 A 
ATOM     20 CL   LIG    1       27.974 -17.621   4.352  0.00  0.00    -0.061 Cl
ATOM     21  N   LIG    1       29.247 -19.068   6.013  0.00  0.00    -0.243 NA
ATOM     22  C   LIG    1       29.432 -20.092   6.871  0.00  0.00    +0.112 A 
ATOM     23  C   LIG    1       28.509 -21.101   7.061  0.00  0.00    +0.020 A 
ATOM     24  C   LIG    1       27.335 -21.065   6.312  0.00  0.00    +0.017 A 
ENDBRANCH  15  18
ENDBRANCH   1  16
TORSDOF 3
ENDMDL
MODEL 4
REMARK VINA RESULT:      -3.7      2.527      4.733
REMARK  Name = *****
REMARK                            x       y       z     vdW  Elec       q    Type
REMARK                         _______ _______ _______ _____ _____    ______ ____
ROOT
ATOM      1  C   LIG    1       27.327 -17.973   4.584  0.00  0.00    +0.041 A 
ATOM      2  C   LIG    1       26.687 -19.209   4.916  0.00  0.00    +0.003 A 
ATOM      3  C   LIG    1       27.513 -20.217   5.484  0.00  0.00    +0.010 A 
ATOM      4  C   LIG    1       28.873 -20.036   5.737  0.00  0.00    +0.001 A 
ATOM      5  C   LIG    1       29.475 -18.843   5.393  0.00  0.00    +0.002 A 
ATOM      6  C   LIG    1       28.712 -17.834   4.812  0.00  0.00    +0.024 A 
ENDROOT
BRANCH   2   7
ATOM      7  C   LIG    1       25.228 -19.535   4.730  0.00  0.00    -0.016 A 
ATOM      8  C   LIG    1       24.574 -20.446   5.595  0.00  0.00    +0.010 A 
ATOM      9  C   LIG    1       23.221 -20.785   5.449  0.00  0.00    +0.020 A 
ATOM     10  C   LIG    1       22.466 -20.184   4.454  0.00  0.00    +0.041 A 
ATOM     11 CL   LIG    1       20.793 -20.553   4.300  0.00  0.00    -0.084 Cl
ATOM     12  C   LIG    1       23.070 -19.294   3.575  0.00  0.00    +0.020 A 
ATOM     13  C   LIG    1       24.442 -19.013   3.687  0.00  0.00    +0.010 A 
ENDBRANCH   2   7
BRANCH   1  16
ATOM     14  O   LIG    1       27.963 -15.047   4.523  0.00  0.00    -0.270 OA
ATOM     15  C   LIG    1       26.938 -15.527   4.060  0.00  0.00    +0.251 C 
ATOM     16  N   LIG    1       26.586 -16.873   4.067  0.00  0.00    -0.281 N 
ATOM     17  H   LIG    1       25.672 -17.107   3.705  0.00  0.00    +0.155 HD
BRANCH  15  18
ATOM     18  C   LIG    1       26.019 -14.576   3.376  0.00  0.00    +0.074 A 
ATOM     19  C   LIG    1       24.634 -14.548   3.475  0.00  0.00    +0.141 A 
ATOM     20 CL   LIG    1       23.704 -15.573   4.499  0.00  0.00    -0.061 Cl
ATOM     21  N   LIG    1       23.838 -13.676   2.809  0.00  0.00    -0.243 NA
ATOM     22  C   LIG    1       24.444 -12.758   2.028  0.00  0.00    +0.112 A 
ATOM     23  C   LIG    1       25.814 -12.671   1.879  0.00  0.00    +0.020 A 
ATOM     24  C   LIG    1       26.607 -13.595   2.557  0.00  0.00    +0.017 A 
ENDBRANCH  15  18
ENDBRANCH   1  16
TORSDOF 3
ENDMDL
