MODEL 1
REMARK VINA RESULT:      -7.4      0.000      0.000
REMARK  Name = *****
REMARK                            x       y       z     vdW  Elec       q    Type
REMARK                         _______ _______ _______ _____ _____    ______ ____
ROOT
ATOM      1  C   LIG    1       28.505 -19.689   5.790  0.00  0.00    +0.029 C 
ATOM      2  C   LIG    1       28.310 -19.917   7.284  0.00  0.00    +0.137 C 
ENDROOT
BRANCH   2   3
ATOM      3  C   LIG    1       29.483 -19.511   8.189  0.00  0.00    +0.227 C 
ATOM      4  N   LIG    1       29.768 -18.167   8.268  0.00  0.00    -0.304 N 
ATOM      5  H   LIG    1       29.157 -17.503   7.804  0.00  0.00    +0.149 HD
ATOM      6  O   LIG    1       30.159 -20.357   8.773  0.00  0.00    -0.275 OA
BRANCH   4   7
ATOM      7  C   LIG    1       30.872 -17.644   9.065  0.00  0.00    +0.224 C 
BRANCH   7   8
ATOM      8  C   LIG    1       30.574 -17.459  10.551  0.00  0.00    +0.322 C 
ATOM      9  O   LIG    1       30.223 -16.387  11.031  0.00  0.00    -0.249 OA
BRANCH   8  10
ATOM     10  O   LIG    1       30.759 -18.555  11.318  0.00  0.00    -0.479 OA
ATOM     11  H   LIG    1       30.878 -19.384  10.802  0.00  0.00    +0.295 HD
ENDBRANCH   8  10
ENDBRANCH   7   8
ENDBRANCH   4   7
ENDBRANCH   2   3
BRANCH   2  12
ATOM     12  S   LIG    1       27.773 -21.619   7.653  0.00  0.00    -0.070 S 
BRANCH  12  13
ATOM     13  C   LIG    1       26.171 -21.352   8.344  0.00  0.00    +0.227 C 
ATOM     14  O   LIG    1       25.990 -20.543   9.238  0.00  0.00    -0.279 OA
BRANCH  13  15
ATOM     15  C   LIG    1       25.122 -22.127   7.708  0.00  0.00    +0.066 A 
ATOM     16  S   LIG    1       25.546 -23.653   7.040  0.00  0.00    -0.093 S 
ATOM     17  C   LIG    1       23.936 -23.974   6.572  0.00  0.00    +0.046 A 
ATOM     18  C   LIG    1       23.095 -22.926   6.866  0.00  0.00    +0.008 A 
ATOM     19  C   LIG    1       23.778 -21.858   7.517  0.00  0.00    +0.020 A 
ENDBRANCH  13  15
ENDBRANCH  12  13
ENDBRANCH   2  12
TORSDOF 7
ENDMDL
MODEL 2
REMARK VINA RESULT:      -7.3      1.626      1.896
REMARK  Name = *****
REMARK                            x       y       z     vdW  Elec       q    Type
REMARK                         _______ _______ _______ _____ _____    ______ ____
ROOT
ATOM      1  C   LIG    1       26.902 -20.100   5.360  0.00  0.00    +0.029 C 
ATOM      2  C   LIG    1       27.704 -19.966   6.648  0.00  0.00    +0.137 C 
ENDROOT
BRANCH   2   3
ATOM      3  C   LIG    1       29.129 -19.411   6.504  0.00  0.00    +0.227 C 
ATOM      4  N   LIG    1       30.070 -19.883   7.389  0.00  0.00    -0.304 N 
ATOM      5  H   LIG    1       29.815 -20.623   8.035  0.00  0.00    +0.149 HD
ATOM      6  O   LIG    1       29.395 -18.550   5.666  0.00  0.00    -0.275 OA
BRANCH   4   7
ATOM      7  C   LIG    1       31.453 -19.420   7.386  0.00  0.00    +0.224 C 
BRANCH   7   8
ATOM      8  C   LIG    1       31.844 -18.521   8.558  0.00  0.00    +0.322 C 
ATOM      9  O   LIG    1       31.841 -18.906   9.721  0.00  0.00    -0.249 OA
BRANCH   8  10
ATOM     10  O   LIG    1       32.160 -17.250   8.230  0.00  0.00    -0.479 OA
ATOM     11  H   LIG    1       31.447 -16.601   8.426  0.00  0.00    +0.295 HD
ENDBRANCH   8  10
ENDBRANCH   7   8
ENDBRANCH   4   7
ENDBRANCH   2   3
BRANCH   2  12
ATOM     12  S   LIG    1       27.712 -21.512   7.614  0.00  0.00    -0.070 S 
BRANCH  12  13
ATOM     13  C   LIG    1       26.126 -21.465   8.387  0.00  0.00    +0.227 C 
ATOM     14  O   LIG    1       25.916 -20.772   9.368  0.00  0.00    -0.279 OA
BRANCH  13  15
ATOM     15  C   LIG    1       25.120 -22.262   7.709  0.00  0.00    +0.066 A 
ATOM     16  S   LIG    1       25.608 -23.771   7.046  0.00  0.00    -0.093 S 
ATOM     17  C   LIG    1       24.024 -24.131   6.521  0.00  0.00    +0.046 A 
ATOM     18  C   LIG    1       23.145 -23.108   6.793  0.00  0.00    +0.008 A 
ATOM     19  C   LIG    1       23.777 -22.028   7.474  0.00  0.00    +0.020 A 
ENDBRANCH  13  15
ENDBRANCH  12  13
ENDBRANCH   2  12
TORSDOF 7
ENDMDL
MODEL 3
REMARK VINA RESULT:      -7.2      1.853      2.162
REMARK  Name = *****
REMARK                            x       y       z     vdW  Elec       q    Type
REMARK                         _______ _______ _______ _____ _____    ______ ____
ROOT
ATOM      1  C   LIG    1       26.580 -20.172   5.309  0.00  0.00    +0.029 C 
ATOM      2  C   LIG    1       27.486 -20.052   6.529  0.00  0.00    +0.137 C 
ENDROOT
BRANCH   2   3
ATOM      3  C   LIG    1       28.878 -19.450   6.282  0.00  0.00    +0.227 C 
ATOM      4  N   LIG    1       29.879 -19.833   7.145  0.00  0.00    -0.304 N 
ATOM      5  H   LIG    1       29.687 -20.544   7.843  0.00  0.00    +0.149 HD
ATOM      6  O   LIG    1       29.067 -18.629   5.386  0.00  0.00    -0.275 OA
BRANCH   4   7
ATOM      7  C   LIG    1       31.240 -19.316   7.047  0.00  0.00    +0.224 C 
BRANCH   7   8
ATOM      8  C   LIG    1       31.765 -18.617   8.299  0.00  0.00    +0.322 C 
ATOM      9  O   LIG    1       31.917 -17.404   8.370  0.00  0.00    -0.249 OA
BRANCH   8  10
ATOM     10  O   LIG    1       32.089 -19.436   9.323  0.00  0.00    -0.479 OA
ATOM     11  H   LIG    1       32.524 -20.271   9.040  0.00  0.00    +0.295 HD
ENDBRANCH   8  10
ENDBRANCH   7   8
ENDBRANCH   4   7
ENDBRANCH   2   3
BRANCH   2  12
ATOM     12  S   LIG    1       27.619 -21.625   7.441  0.00  0.00    -0.070 S 
BRANCH  12  13
ATOM     13  C   LIG    1       26.069 -21.687   8.284  0.00  0.00    +0.227 C 
ATOM     14  O   LIG    1       25.865 -21.026   9.288  0.00  0.00    -0.279 OA
BRANCH  13  15
ATOM     15  C   LIG    1       25.083 -22.531   7.635  0.00  0.00    +0.066 A 
ATOM     16  S   LIG    1       23.498 -21.899   7.434  0.00  0.00    -0.093 S 
ATOM     17  C   LIG    1       22.968 -23.298   6.613  0.00  0.00    +0.046 A 
ATOM     18  C   LIG    1       23.954 -24.254   6.534  0.00  0.00    +0.008 A 
ATOM     19  C   LIG    1       25.173 -23.815   7.128  0.00  0.00    +0.020 A 
ENDBRANCH  13  15
ENDBRANCH  12  13
ENDBRANCH   2  12
TORSDOF 7
ENDMDL
MODEL 4
REMARK VINA RESULT:      -7.1      1.467      1.684
REMARK  Name = *****
REMARK                            x       y       z     vdW  Elec       q    Type
REMARK                         _______ _______ _______ _____ _____    ______ ____
ROOT
ATOM      1  C   LIG    1       28.503 -19.617   5.732  0.00  0.00    +0.029 C 
ATOM      2  C   LIG    1       28.424 -19.850   7.236  0.00  0.00    +0.137 C 
ENDROOT
BRANCH   2   3
ATOM      3  C   LIG    1       29.738 -19.690   8.016  0.00  0.00    +0.227 C 
ATOM      4  N   LIG    1       30.549 -18.639   7.653  0.00  0.00    -0.304 N 
ATOM      5  H   LIG    1       30.220 -17.975   6.960  0.00  0.00    +0.149 HD
ATOM      6  O   LIG    1       30.064 -20.495   8.887  0.00  0.00    -0.275 OA
BRANCH   4   7
ATOM      7  C   LIG    1       31.838 -18.387   8.288  0.00  0.00    +0.224 C 
BRANCH   7   8
ATOM      8  C   LIG    1       31.882 -17.177   9.218  0.00  0.00    +0.322 C 
ATOM      9  O   LIG    1       31.274 -17.131  10.280  0.00  0.00    -0.249 OA
BRANCH   8  10
ATOM     10  O   LIG    1       32.615 -16.133   8.773  0.00  0.00    -0.479 OA
ATOM     11  H   LIG    1       32.402 -15.865   7.851  0.00  0.00    +0.295 HD
ENDBRANCH   8  10
ENDBRANCH   7   8
ENDBRANCH   4   7
ENDBRANCH   2   3
BRANCH   2  12
ATOM     12  S   LIG    1       27.625 -21.437   7.644  0.00  0.00    -0.070 S 
BRANCH  12  13
ATOM     13  C   LIG    1       26.062 -20.906   8.270  0.00  0.00    +0.227 C 
ATOM     14  O   LIG    1       25.942 -20.493   9.411  0.00  0.00    -0.279 OA
BRANCH  13  15
ATOM     15  C   LIG    1       24.993 -20.951   7.291  0.00  0.00    +0.066 A 
ATOM     16  S   LIG    1       25.358 -21.581   5.735  0.00  0.00    -0.093 S 
ATOM     17  C   LIG    1       23.746 -21.396   5.205  0.00  0.00    +0.046 A 
ATOM     18  C   LIG    1       22.949 -20.819   6.166  0.00  0.00    +0.008 A 
ATOM     19  C   LIG    1       23.668 -20.558   7.369  0.00  0.00    +0.020 A 
ENDBRANCH  13  15
ENDBRANCH  12  13
ENDBRANCH   2  12
TORSDOF 7
ENDMDL
MODEL 5
REMARK VINA RESULT:      -7.1      2.801      3.202
REMARK  Name = *****
REMARK                            x       y       z     vdW  Elec       q    Type
REMARK                         _______ _______ _______ _____ _____    ______ ____
ROOT
ATOM      1  C   LIG    1       26.669 -20.404   8.665  0.00  0.00    +0.029 C 
ATOM      2  C   LIG    1       27.560 -20.983   7.572  0.00  0.00    +0.137 C 
ENDROOT
BRANCH   2   3
ATOM      3  C   LIG    1       29.071 -20.767   7.745  0.00  0.00    +0.227 C 
ATOM      4  N   LIG    1       29.647 -19.776   6.983  0.00  0.00    -0.304 N 
ATOM      5  H   LIG    1       29.053 -19.183   6.412  0.00  0.00    +0.149 HD
ATOM      6  O   LIG    1       29.735 -21.483   8.494  0.00  0.00    -0.275 OA
BRANCH   4   7
ATOM      7  C   LIG    1       31.075 -19.483   7.025  0.00  0.00    +0.224 C 
BRANCH   7   8
ATOM      8  C   LIG    1       31.555 -18.751   8.276  0.00  0.00    +0.322 C 
ATOM      9  O   LIG    1       31.563 -17.530   8.371  0.00  0.00    -0.249 OA
BRANCH   8  10
ATOM     10  O   LIG    1       32.012 -19.545   9.269  0.00  0.00    -0.479 OA
ATOM     11  H   LIG    1       32.268 -19.055  10.082  0.00  0.00    +0.295 HD
ENDBRANCH   8  10
ENDBRANCH   7   8
ENDBRANCH   4   7
ENDBRANCH   2   3
BRANCH   2  12
ATOM     12  S   LIG    1       27.025 -20.467   5.907  0.00  0.00    -0.070 S 
BRANCH  12  13
ATOM     13  C   LIG    1       25.477 -21.301   5.749  0.00  0.00    +0.227 C 
ATOM     14  O   LIG    1       25.350 -22.472   6.066  0.00  0.00    -0.279 OA
BRANCH  13  15
ATOM     15  C   LIG    1       24.398 -20.451   5.281  0.00  0.00    +0.066 A 
ATOM     16  S   LIG    1       24.666 -19.531   3.854  0.00  0.00    -0.093 S 
ATOM     17  C   LIG    1       23.083 -18.894   3.884  0.00  0.00    +0.046 A 
ATOM     18  C   LIG    1       22.374 -19.325   4.981  0.00  0.00    +0.008 A 
ATOM     19  C   LIG    1       23.133 -20.220   5.791  0.00  0.00    +0.020 A 
ENDBRANCH  13  15
ENDBRANCH  12  13
ENDBRANCH   2  12
TORSDOF 7
ENDMDL
MODEL 6
REMARK VINA RESULT:      -7.1      2.300      2.988
REMARK  Name = *****
REMARK                            x       y       z     vdW  Elec       q    Type
REMARK                         _______ _______ _______ _____ _____    ______ ____
ROOT
ATOM      1  C   LIG    1       27.790 -19.810   5.405  0.00  0.00    +0.029 C 
ATOM      2  C   LIG    1       27.581 -20.179   6.869  0.00  0.00    +0.137 C 
ENDROOT
BRANCH   2   3
ATOM      3  C   LIG    1       28.793 -19.994   7.794  0.00  0.00    +0.227 C 
ATOM      4  N   LIG    1       29.919 -20.726   7.493  0.00  0.00    -0.304 N 
ATOM      5  H   LIG    1       29.935 -21.284   6.645  0.00  0.00    +0.149 HD
ATOM      6  O   LIG    1       28.736 -19.262   8.781  0.00  0.00    -0.275 OA
BRANCH   4   7
ATOM      7  C   LIG    1       31.131 -20.672   8.302  0.00  0.00    +0.224 C 
BRANCH   7   8
ATOM      8  C   LIG    1       31.417 -21.922   9.133  0.00  0.00    +0.322 C 
ATOM      9  O   LIG    1       30.941 -22.105  10.246  0.00  0.00    -0.249 OA
BRANCH   8  10
ATOM     10  O   LIG    1       32.269 -22.806   8.568  0.00  0.00    -0.479 OA
ATOM     11  H   LIG    1       32.727 -23.385   9.218  0.00  0.00    +0.295 HD
ENDBRANCH   8  10
ENDBRANCH   7   8
ENDBRANCH   4   7
ENDBRANCH   2   3
BRANCH   2  12
ATOM     12  S   LIG    1       26.875 -21.849   7.061  0.00  0.00    -0.070 S 
BRANCH  12  13
ATOM     13  C   LIG    1       25.244 -21.489   7.633  0.00  0.00    +0.227 C 
ATOM     14  O   LIG    1       24.963 -21.526   8.819  0.00  0.00    -0.279 OA
BRANCH  13  15
ATOM     15  C   LIG    1       24.327 -21.096   6.579  0.00  0.00    +0.066 A 
ATOM     16  S   LIG    1       24.618 -21.702   4.998  0.00  0.00    -0.093 S 
ATOM     17  C   LIG    1       23.225 -20.939   4.373  0.00  0.00    +0.046 A 
ATOM     18  C   LIG    1       22.574 -20.193   5.327  0.00  0.00    +0.008 A 
ATOM     19  C   LIG    1       23.211 -20.279   6.600  0.00  0.00    +0.020 A 
ENDBRANCH  13  15
ENDBRANCH  12  13
ENDBRANCH   2  12
TORSDOF 7
ENDMDL
MODEL 7
REMARK VINA RESULT:      -7.0      5.165      8.214
REMARK  Name = *****
REMARK                            x       y       z     vdW  Elec       q    Type
REMARK                         _______ _______ _______ _____ _____    ______ ____
ROOT
ATOM      1  C   LIG    1       23.166 -24.001   6.803  0.00  0.00    +0.029 C 
ATOM      2  C   LIG    1       24.464 -24.004   6.006  0.00  0.00    +0.137 C 
ENDROOT
BRANCH   2   3
ATOM      3  C   LIG    1       25.076 -25.382   5.713  0.00  0.00    +0.227 C 
ATOM      4  N   LIG    1       24.200 -26.391   5.384  0.00  0.00    -0.304 N 
ATOM      5  H   LIG    1       23.216 -26.174   5.268  0.00  0.00    +0.149 HD
ATOM      6  O   LIG    1       26.286 -25.577   5.818  0.00  0.00    -0.275 OA
BRANCH   4   7
ATOM      7  C   LIG    1       24.640 -27.755   5.112  0.00  0.00    +0.224 C 
BRANCH   7   8
ATOM      8  C   LIG    1       24.116 -28.815   6.079  0.00  0.00    +0.322 C 
ATOM      9  O   LIG    1       24.488 -28.896   7.243  0.00  0.00    -0.249 OA
BRANCH   8  10
ATOM     10  O   LIG    1       23.232 -29.690   5.552  0.00  0.00    -0.479 OA
ATOM     11  H   LIG    1       22.847 -29.397   4.696  0.00  0.00    +0.295 HD
ENDBRANCH   8  10
ENDBRANCH   7   8
ENDBRANCH   4   7
ENDBRANCH   2   3
BRANCH   2  12
ATOM     12  S   LIG    1       25.713 -22.887   6.726  0.00  0.00    -0.070 S 
BRANCH  12  13
ATOM     13  C   LIG    1       24.724 -21.515   7.231  0.00  0.00    +0.227 C 
ATOM     14  O   LIG    1       24.572 -21.240   8.409  0.00  0.00    -0.279 OA
BRANCH  13  15
ATOM     15  C   LIG    1       24.188 -20.742   6.126  0.00  0.00    +0.066 A 
ATOM     16  S   LIG    1       25.232 -20.402   4.804  0.00  0.00    -0.093 S 
ATOM     17  C   LIG    1       23.998 -19.593   3.946  0.00  0.00    +0.046 A 
ATOM     18  C   LIG    1       22.827 -19.531   4.664  0.00  0.00    +0.008 A 
ATOM     19  C   LIG    1       22.935 -20.189   5.924  0.00  0.00    +0.020 A 
ENDBRANCH  13  15
ENDBRANCH  12  13
ENDBRANCH   2  12
TORSDOF 7
ENDMDL
MODEL 8
REMARK VINA RESULT:      -6.8      2.213      2.512
REMARK  Name = *****
REMARK                            x       y       z     vdW  Elec       q    Type
REMARK                         _______ _______ _______ _____ _____    ______ ____
ROOT
ATOM      1  C   LIG    1       30.135 -21.453   8.317  0.00  0.00    +0.029 C 
ATOM      2  C   LIG    1       29.390 -20.301   7.654  0.00  0.00    +0.137 C 
ENDROOT
BRANCH   2   3
ATOM      3  C   LIG    1       29.960 -18.896   7.898  0.00  0.00    +0.227 C 
ATOM      4  N   LIG    1       30.020 -18.470   9.206  0.00  0.00    -0.304 N 
ATOM      5  H   LIG    1       29.769 -19.114   9.948  0.00  0.00    +0.149 HD
ATOM      6  O   LIG    1       30.300 -18.174   6.961  0.00  0.00    -0.275 OA
BRANCH   4   7
ATOM      7  C   LIG    1       30.510 -17.148   9.579  0.00  0.00    +0.224 C 
BRANCH   7   8
ATOM      8  C   LIG    1       32.030 -17.004   9.622  0.00  0.00    +0.322 C 
ATOM      9  O   LIG    1       32.702 -17.326  10.594  0.00  0.00    -0.249 OA
BRANCH   8  10
ATOM     10  O   LIG    1       32.589 -16.457   8.521  0.00  0.00    -0.479 OA
ATOM     11  H   LIG    1       32.074 -15.708   8.145  0.00  0.00    +0.295 HD
ENDBRANCH   8  10
ENDBRANCH   7   8
ENDBRANCH   4   7
ENDBRANCH   2   3
BRANCH   2  12
ATOM     12  S   LIG    1       27.604 -20.340   8.019  0.00  0.00    -0.070 S 
BRANCH  12  13
ATOM     13  C   LIG    1       26.902 -20.312   6.399  0.00  0.00    +0.227 C 
ATOM     14  O   LIG    1       27.587 -20.104   5.413  0.00  0.00    -0.279 OA
BRANCH  13  15
ATOM     15  C   LIG    1       25.484 -20.620   6.370  0.00  0.00    +0.066 A 
ATOM     16  S   LIG    1       24.721 -20.734   4.834  0.00  0.00    -0.093 S 
ATOM     17  C   LIG    1       23.220 -21.149   5.532  0.00  0.00    +0.046 A 
ATOM     18  C   LIG    1       23.274 -21.152   6.907  0.00  0.00    +0.008 A 
ATOM     19  C   LIG    1       24.578 -20.842   7.392  0.00  0.00    +0.020 A 
ENDBRANCH  13  15
ENDBRANCH  12  13
ENDBRANCH   2  12
TORSDOF 7
ENDMDL
MODEL 9
REMARK VINA RESULT:      -6.7      3.145      4.089
REMARK  Name = *****
REMARK                            x       y       z     vdW  Elec       q    Type
REMARK                         _______ _______ _______ _____ _____    ______ ____
ROOT
ATOM      1  C   LIG    1       26.634 -23.106   7.242  0.00  0.00    +0.029 C 
ATOM      2  C   LIG    1       26.659 -21.583   7.208  0.00  0.00    +0.137 C 
ENDROOT
BRANCH   2   3
ATOM      3  C   LIG    1       27.883 -20.912   7.850  0.00  0.00    +0.227 C 
ATOM      4  N   LIG    1       29.108 -21.483   7.594  0.00  0.00    -0.304 N 
ATOM      5  H   LIG    1       29.167 -22.257   6.940  0.00  0.00    +0.149 HD
ATOM      6  O   LIG    1       27.760 -19.940   8.595  0.00  0.00    -0.275 OA
BRANCH   4   7
ATOM      7  C   LIG    1       30.349 -20.969   8.162  0.00  0.00    +0.224 C 
BRANCH   7   8
ATOM      8  C   LIG    1       31.076 -21.920   9.111  0.00  0.00    +0.322 C 
ATOM      9  O   LIG    1       30.732 -22.091  10.274  0.00  0.00    -0.249 OA
BRANCH   8  10
ATOM     10  O   LIG    1       32.156 -22.540   8.590  0.00  0.00    -0.479 OA
ATOM     11  H   LIG    1       32.212 -23.496   8.815  0.00  0.00    +0.295 HD
ENDBRANCH   8  10
ENDBRANCH   7   8
ENDBRANCH   4   7
ENDBRANCH   2   3
BRANCH   2  12
ATOM     12  S   LIG    1       25.117 -20.857   7.855  0.00  0.00    -0.070 S 
BRANCH  12  13
ATOM     13  C   LIG    1       23.948 -21.328   6.618  0.00  0.00    +0.227 C 
ATOM     14  O   LIG    1       23.188 -22.265   6.785  0.00  0.00    -0.279 OA
BRANCH  13  15
ATOM     15  C   LIG    1       23.950 -20.464   5.452  0.00  0.00    +0.066 A 
ATOM     16  S   LIG    1       22.523 -19.568   5.117  0.00  0.00    -0.093 S 
ATOM     17  C   LIG    1       23.234 -18.805   3.767  0.00  0.00    +0.046 A 
ATOM     18  C   LIG    1       24.513 -19.254   3.535  0.00  0.00    +0.008 A 
ATOM     19  C   LIG    1       24.926 -20.215   4.504  0.00  0.00    +0.020 A 
ENDBRANCH  13  15
ENDBRANCH  12  13
ENDBRANCH   2  12
TORSDOF 7
ENDMDL
