MODEL 1
REMARK VINA RESULT:      -4.6      0.000      0.000
REMARK  Name = *****
REMARK                            x       y       z     vdW  Elec       q    Type
REMARK                         _______ _______ _______ _____ _____    ______ ____
ROOT
ATOM      1  C   LIG    1       26.463 -13.583   3.438  0.00  0.00    +0.142 A 
ATOM      2  N   LIG    1       26.045 -13.356   2.163  0.00  0.00    -0.247 NA
ATOM      3  C   LIG    1       24.779 -12.897   2.036  0.00  0.00    +0.131 A 
ATOM      4  C   LIG    1       23.957 -12.668   3.127  0.00  0.00    +0.130 A 
ATOM      5  N   LIG    1       24.360 -12.889   4.398  0.00  0.00    -0.260 NA
ATOM      6  C   LIG    1       25.632 -13.352   4.528  0.00  0.00    +0.143 A 
ENDROOT
BRANCH   1   9
ATOM      7  N   LIG    1       28.932 -13.427   3.411  0.00  0.00    -0.265 NA
ATOM      8  H   LIG    1       29.770 -13.972   3.595  0.00  0.00    +0.190 HD
ATOM      9  C   LIG    1       27.848 -14.088   3.616  0.00  0.00    +0.233 C 
BRANCH   9  10
ATOM     10  O   LIG    1       27.913 -15.364   4.030  0.00  0.00    -0.491 OA
ATOM     11  H   LIG    1       28.649 -15.833   3.610  0.00  0.00    +0.294 HD
ENDBRANCH   9  10
ENDBRANCH   1   9
TORSDOF 2
ENDMDL
MODEL 2
REMARK VINA RESULT:      -4.5      0.909      1.599
REMARK  Name = *****
REMARK                            x       y       z     vdW  Elec       q    Type
REMARK                         _______ _______ _______ _____ _____    ______ ____
ROOT
ATOM      1  C   LIG    1       26.465 -13.555   3.484  0.00  0.00    +0.142 A 
ATOM      2  N   LIG    1       25.740 -13.361   4.620  0.00  0.00    -0.247 NA
ATOM      3  C   LIG    1       24.483 -12.898   4.438  0.00  0.00    +0.131 A 
ATOM      4  C   LIG    1       23.959 -12.636   3.183  0.00  0.00    +0.130 A 
ATOM      5  N   LIG    1       24.668 -12.824   2.047  0.00  0.00    -0.260 NA
ATOM      6  C   LIG    1       25.933 -13.289   2.228  0.00  0.00    +0.143 A 
ENDROOT
BRANCH   1   9
ATOM      7  N   LIG    1       28.934 -13.408   3.419  0.00  0.00    -0.265 NA
ATOM      8  H   LIG    1       29.773 -13.955   3.595  0.00  0.00    +0.190 HD
ATOM      9  C   LIG    1       27.851 -14.063   3.645  0.00  0.00    +0.233 C 
BRANCH   9  10
ATOM     10  O   LIG    1       27.917 -15.337   4.069  0.00  0.00    -0.491 OA
ATOM     11  H   LIG    1       28.827 -15.667   4.048  0.00  0.00    +0.294 HD
ENDBRANCH   9  10
ENDBRANCH   1   9
TORSDOF 2
ENDMDL
MODEL 3
REMARK VINA RESULT:      -4.4      1.433      1.617
REMARK  Name = *****
REMARK                            x       y       z     vdW  Elec       q    Type
REMARK                         _______ _______ _______ _____ _____    ______ ____
ROOT
ATOM      1  C   LIG    1       25.701 -14.289   3.305  0.00  0.00    +0.142 A 
ATOM      2  N   LIG    1       25.679 -13.668   2.093  0.00  0.00    -0.247 NA
ATOM      3  C   LIG    1       24.842 -12.610   1.995  0.00  0.00    +0.131 A 
ATOM      4  C   LIG    1       24.057 -12.180   3.052  0.00  0.00    +0.130 A 
ATOM      5  N   LIG    1       24.071 -12.787   4.260  0.00  0.00    -0.260 NA
ATOM      6  C   LIG    1       24.910 -13.852   4.360  0.00  0.00    +0.143 A 
ENDROOT
BRANCH   1   9
ATOM      7  N   LIG    1       26.325 -16.680   3.181  0.00  0.00    -0.265 NA
ATOM      8  H   LIG    1       27.100 -17.315   3.356  0.00  0.00    +0.190 HD
ATOM      9  C   LIG    1       26.609 -15.455   3.450  0.00  0.00    +0.233 C 
BRANCH   9  10
ATOM     10  O   LIG    1       27.831 -15.139   3.912  0.00  0.00    -0.491 OA
ATOM     11  H   LIG    1       28.526 -15.501   3.343  0.00  0.00    +0.294 HD
ENDBRANCH   9  10
ENDBRANCH   1   9
TORSDOF 2
ENDMDL
MODEL 4
REMARK VINA RESULT:      -4.3      2.026      2.493
REMARK  Name = *****
REMARK                            x       y       z     vdW  Elec       q    Type
REMARK                         _______ _______ _______ _____ _____    ______ ____
ROOT
ATOM      1  C   LIG    1       27.311 -13.611   4.149  0.00  0.00    +0.142 A 
ATOM      2  N   LIG    1       26.161 -13.086   4.653  0.00  0.00    -0.247 NA
ATOM      3  C   LIG    1       25.042 -13.813   4.435  0.00  0.00    +0.131 A 
ATOM      4  C   LIG    1       25.056 -15.015   3.746  0.00  0.00    +0.130 A 
ATOM      5  N   LIG    1       26.192 -15.548   3.241  0.00  0.00    -0.260 NA
ATOM      6  C   LIG    1       27.318 -14.817   3.459  0.00  0.00    +0.143 A 
ENDROOT
BRANCH   1   9
ATOM      7  N   LIG    1       28.816 -12.075   5.371  0.00  0.00    -0.265 NA
ATOM      8  H   LIG    1       29.735 -11.643   5.317  0.00  0.00    +0.190 HD
ATOM      9  C   LIG    1       28.560 -12.840   4.370  0.00  0.00    +0.233 C 
BRANCH   9  10
ATOM     10  O   LIG    1       29.474 -12.994   3.398  0.00  0.00    -0.491 OA
ATOM     11  H   LIG    1       29.075 -12.893   2.521  0.00  0.00    +0.294 HD
ENDBRANCH   9  10
ENDBRANCH   1   9
TORSDOF 2
ENDMDL
MODEL 5
REMARK VINA RESULT:      -4.2      2.421      3.959
REMARK  Name = *****
REMARK                            x       y       z     vdW  Elec       q    Type
REMARK                         _______ _______ _______ _____ _____    ______ ____
ROOT
ATOM      1  C   LIG    1       25.200 -12.946   3.475  0.00  0.00    +0.142 A 
ATOM      2  N   LIG    1       25.789 -13.343   4.636  0.00  0.00    -0.247 NA
ATOM      3  C   LIG    1       26.803 -14.227   4.505  0.00  0.00    +0.131 A 
ATOM      4  C   LIG    1       27.222 -14.703   3.273  0.00  0.00    +0.130 A 
ATOM      5  N   LIG    1       26.647 -14.316   2.112  0.00  0.00    -0.260 NA
ATOM      6  C   LIG    1       25.626 -13.428   2.243  0.00  0.00    +0.143 A 
ENDROOT
BRANCH   1   9
ATOM      7  N   LIG    1       23.561 -11.529   4.668  0.00  0.00    -0.265 NA
ATOM      8  H   LIG    1       22.803 -10.871   4.505  0.00  0.00    +0.190 HD
ATOM      9  C   LIG    1       24.082 -11.975   3.581  0.00  0.00    +0.233 C 
BRANCH   9  10
ATOM     10  O   LIG    1       23.610 -11.557   2.394  0.00  0.00    -0.491 OA
ATOM     11  H   LIG    1       23.016 -10.800   2.499  0.00  0.00    +0.294 HD
ENDBRANCH   9  10
ENDBRANCH   1   9
TORSDOF 2
ENDMDL
MODEL 6
REMARK VINA RESULT:      -4.1      7.531      7.859
REMARK  Name = *****
REMARK                            x       y       z     vdW  Elec       q    Type
REMARK                         _______ _______ _______ _____ _____    ______ ____
ROOT
ATOM      1  C   LIG    1       25.388 -20.598   5.840  0.00  0.00    +0.142 A 
ATOM      2  N   LIG    1       24.678 -20.725   6.994  0.00  0.00    -0.247 NA
ATOM      3  C   LIG    1       23.353 -20.949   6.844  0.00  0.00    +0.131 A 
ATOM      4  C   LIG    1       22.750 -21.047   5.600  0.00  0.00    +0.130 A 
ATOM      5  N   LIG    1       23.444 -20.924   4.446  0.00  0.00    -0.260 NA
ATOM      6  C   LIG    1       24.776 -20.697   4.596  0.00  0.00    +0.143 A 
ENDROOT
BRANCH   1   9
ATOM      7  N   LIG    1       27.535 -20.395   7.051  0.00  0.00    -0.265 NA
ATOM      8  H   LIG    1       28.520 -20.190   6.905  0.00  0.00    +0.190 HD
ATOM      9  C   LIG    1       26.847 -20.351   5.966  0.00  0.00    +0.233 C 
BRANCH   9  10
ATOM     10  O   LIG    1       27.451 -20.055   4.804  0.00  0.00    -0.491 OA
ATOM     11  H   LIG    1       28.293 -20.525   4.716  0.00  0.00    +0.294 HD
ENDBRANCH   9  10
ENDBRANCH   1   9
TORSDOF 2
ENDMDL
MODEL 7
REMARK VINA RESULT:      -4.1      7.557      7.717
REMARK  Name = *****
REMARK                            x       y       z     vdW  Elec       q    Type
REMARK                         _______ _______ _______ _____ _____    ______ ____
ROOT
ATOM      1  C   LIG    1       25.372 -20.619   5.832  0.00  0.00    +0.142 A 
ATOM      2  N   LIG    1       24.866 -20.655   4.568  0.00  0.00    -0.247 NA
ATOM      3  C   LIG    1       23.538 -20.889   4.477  0.00  0.00    +0.131 A 
ATOM      4  C   LIG    1       22.736 -21.078   5.591  0.00  0.00    +0.130 A 
ATOM      5  N   LIG    1       23.225 -21.043   6.851  0.00  0.00    -0.260 NA
ATOM      6  C   LIG    1       24.562 -20.810   6.944  0.00  0.00    +0.143 A 
ENDROOT
BRANCH   1   9
ATOM      7  N   LIG    1       27.515 -20.439   7.055  0.00  0.00    -0.265 NA
ATOM      8  H   LIG    1       28.499 -20.221   6.918  0.00  0.00    +0.190 HD
ATOM      9  C   LIG    1       26.828 -20.364   5.970  0.00  0.00    +0.233 C 
BRANCH   9  10
ATOM     10  O   LIG    1       27.433 -20.027   4.819  0.00  0.00    -0.491 OA
ATOM     11  H   LIG    1       27.450 -20.771   4.200  0.00  0.00    +0.294 HD
ENDBRANCH   9  10
ENDBRANCH   1   9
TORSDOF 2
ENDMDL
MODEL 8
REMARK VINA RESULT:      -4.0      7.609      8.443
REMARK  Name = *****
REMARK                            x       y       z     vdW  Elec       q    Type
REMARK                         _______ _______ _______ _____ _____    ______ ____
ROOT
ATOM      1  C   LIG    1       23.967 -20.452   5.417  0.00  0.00    +0.142 A 
ATOM      2  N   LIG    1       24.229 -20.811   6.704  0.00  0.00    -0.247 NA
ATOM      3  C   LIG    1       25.532 -20.794   7.061  0.00  0.00    +0.131 A 
ATOM      4  C   LIG    1       26.542 -20.435   6.183  0.00  0.00    +0.130 A 
ATOM      5  N   LIG    1       26.295 -20.076   4.903  0.00  0.00    -0.260 NA
ATOM      6  C   LIG    1       24.985 -20.094   4.541  0.00  0.00    +0.143 A 
ENDROOT
BRANCH   1   9
ATOM      7  N   LIG    1       21.778 -21.488   4.910  0.00  0.00    -0.265 NA
ATOM      8  H   LIG    1       20.840 -21.261   4.592  0.00  0.00    +0.190 HD
ATOM      9  C   LIG    1       22.545 -20.459   4.989  0.00  0.00    +0.233 C 
BRANCH   9  10
ATOM     10  O   LIG    1       22.069 -19.246   4.663  0.00  0.00    -0.491 OA
ATOM     11  H   LIG    1       21.106 -19.211   4.753  0.00  0.00    +0.294 HD
ENDBRANCH   9  10
ENDBRANCH   1   9
TORSDOF 2
ENDMDL
MODEL 9
REMARK VINA RESULT:      -4.0      2.198      3.913
REMARK  Name = *****
REMARK                            x       y       z     vdW  Elec       q    Type
REMARK                         _______ _______ _______ _____ _____    ______ ____
ROOT
ATOM      1  C   LIG    1       25.535 -13.846   3.784  0.00  0.00    +0.142 A 
ATOM      2  N   LIG    1       26.045 -13.565   5.014  0.00  0.00    -0.247 NA
ATOM      3  C   LIG    1       27.385 -13.389   5.064  0.00  0.00    +0.131 A 
ATOM      4  C   LIG    1       28.192 -13.485   3.942  0.00  0.00    +0.130 A 
ATOM      5  N   LIG    1       27.697 -13.763   2.715  0.00  0.00    -0.260 NA
ATOM      6  C   LIG    1       26.351 -13.941   2.663  0.00  0.00    +0.143 A 
ENDROOT
BRANCH   1   9
ATOM      7  N   LIG    1       23.361 -14.852   4.400  0.00  0.00    -0.265 NA
ATOM      8  H   LIG    1       22.371 -14.827   4.166  0.00  0.00    +0.190 HD
ATOM      9  C   LIG    1       24.066 -14.045   3.690  0.00  0.00    +0.233 C 
BRANCH   9  10
ATOM     10  O   LIG    1       23.472 -13.284   2.757  0.00  0.00    -0.491 OA
ATOM     11  H   LIG    1       22.677 -13.712   2.407  0.00  0.00    +0.294 HD
ENDBRANCH   9  10
ENDBRANCH   1   9
TORSDOF 2
ENDMDL
