MODEL 1
REMARK VINA RESULT:      -9.2      0.000      0.000
REMARK  Name = *****
REMARK                            x       y       z     vdW  Elec       q    Type
REMARK                         _______ _______ _______ _____ _____    ______ ____
ROOT
ATOM      1  C   LIG    1       26.413 -22.427   7.460  0.00  0.00    +0.242 A 
ATOM      2  C   LIG    1       25.812 -23.644   7.056  0.00  0.00    +0.063 A 
ATOM      3  C   LIG    1       24.459 -23.316   6.904  0.00  0.00    +0.073 A 
ATOM      4  C   LIG    1       23.500 -24.255   6.503  0.00  0.00    +0.028 A 
ATOM      5  C   LIG    1       23.936 -25.561   6.266  0.00  0.00    +0.002 A 
ATOM      6  C   LIG    1       25.280 -25.908   6.402  0.00  0.00    +0.001 A 
ATOM      7  N   LIG    1       24.376 -21.974   7.186  0.00  0.00    -0.256 N 
ATOM      8  C   LIG    1       26.236 -24.955   6.792  0.00  0.00    +0.015 A 
ATOM      9  N   LIG    1       25.539 -21.442   7.611  0.00  0.00    -0.132 NA
ENDROOT
BRANCH   1  10
ATOM     10  O   LIG    1       27.733 -22.182   7.659  0.00  0.00    -0.475 OA
BRANCH  10  11
ATOM     11  C   LIG    1       28.258 -21.152   6.809  0.00  0.00    +0.232 C 
BRANCH  11  12
ATOM     12  C   LIG    1       28.983 -20.115   7.655  0.00  0.00    +0.056 C 
BRANCH  12  13
ATOM     13  C   LIG    1       30.254 -19.612   6.952  0.00  0.00    +0.087 C 
BRANCH  13  15
ATOM     14  C   LIG    1       31.757 -18.423   8.438  0.00  0.00    +0.104 C 
ATOM     15  N   LIG    1       31.454 -19.707   7.806  0.00  0.00    -0.308 NA
ATOM     16  C   LIG    1       31.258 -20.729   8.841  0.00  0.00    +0.104 C 
ENDBRANCH  13  15
ENDBRANCH  12  13
ENDBRANCH  11  12
ENDBRANCH  10  11
ENDBRANCH   1  10
BRANCH   7  17
ATOM     17  C   LIG    1       23.231 -21.091   7.007  0.00  0.00    +0.179 C 
BRANCH  17  18
ATOM     18  C   LIG    1       23.334 -20.227   5.767  0.00  0.00    -0.026 A 
ATOM     19  C   LIG    1       22.326 -19.325   5.385  0.00  0.00    +0.005 A 
ATOM     20  C   LIG    1       22.453 -18.550   4.232  0.00  0.00    +0.000 A 
ATOM     21  C   LIG    1       23.580 -18.681   3.427  0.00  0.00    +0.000 A 
ATOM     22  C   LIG    1       24.574 -19.595   3.771  0.00  0.00    +0.000 A 
ATOM     23  C   LIG    1       24.450 -20.368   4.928  0.00  0.00    +0.005 A 
ENDBRANCH  17  18
ENDBRANCH   7  17
TORSDOF 7
ENDMDL
MODEL 2
REMARK VINA RESULT:      -8.8      1.190      4.568
REMARK  Name = *****
REMARK                            x       y       z     vdW  Elec       q    Type
REMARK                         _______ _______ _______ _____ _____    ______ ____
ROOT
ATOM      1  C   LIG    1       26.307 -20.361   5.549  0.00  0.00    +0.242 A 
ATOM      2  C   LIG    1       25.029 -19.990   5.065  0.00  0.00    +0.063 A 
ATOM      3  C   LIG    1       24.169 -20.948   5.617  0.00  0.00    +0.073 A 
ATOM      4  C   LIG    1       22.787 -20.939   5.385  0.00  0.00    +0.028 A 
ATOM      5  C   LIG    1       22.279 -19.935   4.557  0.00  0.00    +0.002 A 
ATOM      6  C   LIG    1       23.115 -18.966   4.003  0.00  0.00    +0.001 A 
ATOM      7  N   LIG    1       24.971 -21.758   6.384  0.00  0.00    -0.256 N 
ATOM      8  C   LIG    1       24.497 -18.976   4.254  0.00  0.00    +0.015 A 
ATOM      9  N   LIG    1       26.283 -21.467   6.280  0.00  0.00    -0.132 NA
ENDROOT
BRANCH   1  10
ATOM     10  O   LIG    1       27.480 -19.703   5.373  0.00  0.00    -0.475 OA
BRANCH  10  11
ATOM     11  C   LIG    1       28.594 -20.339   6.017  0.00  0.00    +0.232 C 
BRANCH  11  12
ATOM     12  C   LIG    1       29.271 -19.351   6.956  0.00  0.00    +0.056 C 
BRANCH  12  13
ATOM     13  C   LIG    1       30.775 -19.241   6.660  0.00  0.00    +0.087 C 
BRANCH  13  15
ATOM     14  C   LIG    1       31.742 -18.209   8.630  0.00  0.00    +0.104 C 
ATOM     15  N   LIG    1       31.610 -19.446   7.859  0.00  0.00    -0.308 NA
ATOM     16  C   LIG    1       31.026 -20.492   8.708  0.00  0.00    +0.104 C 
ENDBRANCH  13  15
ENDBRANCH  12  13
ENDBRANCH  11  12
ENDBRANCH  10  11
ENDBRANCH   1  10
BRANCH   7  17
ATOM     17  C   LIG    1       24.561 -22.802   7.313  0.00  0.00    +0.179 C 
BRANCH  17  18
ATOM     18  C   LIG    1       24.788 -24.200   6.775  0.00  0.00    -0.026 A 
ATOM     19  C   LIG    1       23.747 -24.994   6.265  0.00  0.00    +0.005 A 
ATOM     20  C   LIG    1       23.993 -26.280   5.784  0.00  0.00    +0.000 A 
ATOM     21  C   LIG    1       25.280 -26.804   5.826  0.00  0.00    +0.000 A 
ATOM     22  C   LIG    1       26.319 -26.045   6.360  0.00  0.00    +0.000 A 
ATOM     23  C   LIG    1       26.075 -24.755   6.838  0.00  0.00    +0.005 A 
ENDBRANCH  17  18
ENDBRANCH   7  17
TORSDOF 7
ENDMDL
MODEL 3
REMARK VINA RESULT:      -8.6      1.478      4.587
REMARK  Name = *****
REMARK                            x       y       z     vdW  Elec       q    Type
REMARK                         _______ _______ _______ _____ _____    ______ ____
ROOT
ATOM      1  C   LIG    1       27.164 -20.156   5.653  0.00  0.00    +0.242 A 
ATOM      2  C   LIG    1       25.966 -19.868   4.955  0.00  0.00    +0.063 A 
ATOM      3  C   LIG    1       25.031 -20.749   5.514  0.00  0.00    +0.073 A 
ATOM      4  C   LIG    1       23.694 -20.785   5.098  0.00  0.00    +0.028 A 
ATOM      5  C   LIG    1       23.311 -19.911   4.078  0.00  0.00    +0.002 A 
ATOM      6  C   LIG    1       24.223 -19.020   3.513  0.00  0.00    +0.001 A 
ATOM      7  N   LIG    1       25.715 -21.437   6.487  0.00  0.00    -0.256 N 
ATOM      8  C   LIG    1       25.559 -18.982   3.947  0.00  0.00    +0.015 A 
ATOM      9  N   LIG    1       27.032 -21.150   6.521  0.00  0.00    -0.132 NA
ENDROOT
BRANCH   1  10
ATOM     10  O   LIG    1       28.357 -19.518   5.548  0.00  0.00    -0.475 OA
BRANCH  10  11
ATOM     11  C   LIG    1       29.335 -19.975   6.494  0.00  0.00    +0.232 C 
BRANCH  11  12
ATOM     12  C   LIG    1       29.986 -18.777   7.170  0.00  0.00    +0.056 C 
BRANCH  12  13
ATOM     13  C   LIG    1       29.528 -18.644   8.631  0.00  0.00    +0.087 C 
BRANCH  13  15
ATOM     14  C   LIG    1       31.870 -18.069   8.878  0.00  0.00    +0.104 C 
ATOM     15  N   LIG    1       30.655 -18.496   9.572  0.00  0.00    -0.308 NA
ATOM     16  C   LIG    1       30.318 -17.520  10.615  0.00  0.00    +0.104 C 
ENDBRANCH  13  15
ENDBRANCH  12  13
ENDBRANCH  11  12
ENDBRANCH  10  11
ENDBRANCH   1  10
BRANCH   7  17
ATOM     17  C   LIG    1       25.174 -22.346   7.488  0.00  0.00    +0.179 C 
BRANCH  17  18
ATOM     18  C   LIG    1       25.001 -23.761   6.975  0.00  0.00    -0.026 A 
ATOM     19  C   LIG    1       23.752 -24.283   6.599  0.00  0.00    +0.005 A 
ATOM     20  C   LIG    1       23.630 -25.594   6.137  0.00  0.00    +0.000 A 
ATOM     21  C   LIG    1       24.751 -26.413   6.066  0.00  0.00    +0.000 A 
ATOM     22  C   LIG    1       25.992 -25.924   6.468  0.00  0.00    +0.000 A 
ATOM     23  C   LIG    1       26.117 -24.610   6.926  0.00  0.00    +0.005 A 
ENDBRANCH  17  18
ENDBRANCH   7  17
TORSDOF 7
ENDMDL
MODEL 4
REMARK VINA RESULT:      -8.6      3.024      6.011
REMARK  Name = *****
REMARK                            x       y       z     vdW  Elec       q    Type
REMARK                         _______ _______ _______ _____ _____    ______ ____
ROOT
ATOM      1  C   LIG    1       25.728 -20.076   4.853  0.00  0.00    +0.242 A 
ATOM      2  C   LIG    1       26.922 -20.006   5.611  0.00  0.00    +0.063 A 
ATOM      3  C   LIG    1       26.623 -20.724   6.776  0.00  0.00    +0.073 A 
ATOM      4  C   LIG    1       27.554 -20.901   7.808  0.00  0.00    +0.028 A 
ATOM      5  C   LIG    1       28.813 -20.318   7.647  0.00  0.00    +0.002 A 
ATOM      6  C   LIG    1       29.136 -19.606   6.492  0.00  0.00    +0.001 A 
ATOM      7  N   LIG    1       25.336 -21.175   6.606  0.00  0.00    -0.256 N 
ATOM      8  C   LIG    1       28.199 -19.446   5.458  0.00  0.00    +0.015 A 
ATOM      9  N   LIG    1       24.751 -20.714   5.482  0.00  0.00    -0.132 NA
ENDROOT
BRANCH   1  10
ATOM     10  O   LIG    1       25.518 -19.609   3.597  0.00  0.00    -0.475 OA
BRANCH  10  11
ATOM     11  C   LIG    1       25.036 -18.258   3.562  0.00  0.00    +0.232 C 
BRANCH  11  12
ATOM     12  C   LIG    1       26.184 -17.317   3.223  0.00  0.00    +0.056 C 
BRANCH  12  13
ATOM     13  C   LIG    1       25.804 -15.853   3.495  0.00  0.00    +0.087 C 
BRANCH  13  15
ATOM     14  C   LIG    1       26.036 -13.768   2.279  0.00  0.00    +0.104 C 
ATOM     15  N   LIG    1       26.746 -14.895   2.885  0.00  0.00    -0.308 NA
ATOM     16  C   LIG    1       27.685 -14.396   3.895  0.00  0.00    +0.104 C 
ENDBRANCH  13  15
ENDBRANCH  12  13
ENDBRANCH  11  12
ENDBRANCH  10  11
ENDBRANCH   1  10
BRANCH   7  17
ATOM     17  C   LIG    1       24.601 -22.118   7.437  0.00  0.00    +0.179 C 
BRANCH  17  18
ATOM     18  C   LIG    1       24.711 -23.549   6.953  0.00  0.00    -0.026 A 
ATOM     19  C   LIG    1       23.592 -24.307   6.566  0.00  0.00    +0.005 A 
ATOM     20  C   LIG    1       23.731 -25.625   6.131  0.00  0.00    +0.000 A 
ATOM     21  C   LIG    1       24.989 -26.217   6.098  0.00  0.00    +0.000 A 
ATOM     22  C   LIG    1       26.106 -25.494   6.511  0.00  0.00    +0.000 A 
ATOM     23  C   LIG    1       25.969 -24.172   6.943  0.00  0.00    +0.005 A 
ENDBRANCH  17  18
ENDBRANCH   7  17
TORSDOF 7
ENDMDL
MODEL 5
REMARK VINA RESULT:      -8.2      1.856      5.333
REMARK  Name = *****
REMARK                            x       y       z     vdW  Elec       q    Type
REMARK                         _______ _______ _______ _____ _____    ______ ____
ROOT
ATOM      1  C   LIG    1       24.227 -21.700   7.384  0.00  0.00    +0.242 A 
ATOM      2  C   LIG    1       24.349 -23.055   6.989  0.00  0.00    +0.063 A 
ATOM      3  C   LIG    1       25.724 -23.308   7.078  0.00  0.00    +0.073 A 
ATOM      4  C   LIG    1       26.278 -24.558   6.771  0.00  0.00    +0.028 A 
ATOM      5  C   LIG    1       25.406 -25.564   6.350  0.00  0.00    +0.002 A 
ATOM      6  C   LIG    1       24.032 -25.337   6.261  0.00  0.00    +0.001 A 
ATOM      7  N   LIG    1       26.281 -22.138   7.536  0.00  0.00    -0.256 N 
ATOM      8  C   LIG    1       23.486 -24.084   6.585  0.00  0.00    +0.015 A 
ATOM      9  N   LIG    1       25.395 -21.128   7.641  0.00  0.00    -0.132 NA
ENDROOT
BRANCH   1  10
ATOM     10  O   LIG    1       23.084 -20.988   7.551  0.00  0.00    -0.475 OA
BRANCH  10  11
ATOM     11  C   LIG    1       23.009 -19.825   6.714  0.00  0.00    +0.232 C 
BRANCH  11  12
ATOM     12  C   LIG    1       22.487 -20.220   5.339  0.00  0.00    +0.056 C 
BRANCH  12  13
ATOM     13  C   LIG    1       22.882 -19.185   4.274  0.00  0.00    +0.087 C 
BRANCH  13  15
ATOM     14  C   LIG    1       25.174 -18.833   3.565  0.00  0.00    +0.104 C 
ATOM     15  N   LIG    1       23.975 -19.654   3.400  0.00  0.00    -0.308 NA
ATOM     16  C   LIG    1       24.295 -21.055   3.698  0.00  0.00    +0.104 C 
ENDBRANCH  13  15
ENDBRANCH  12  13
ENDBRANCH  11  12
ENDBRANCH  10  11
ENDBRANCH   1  10
BRANCH   7  17
ATOM     17  C   LIG    1       27.651 -21.910   7.973  0.00  0.00    +0.179 C 
BRANCH  17  18
ATOM     18  C   LIG    1       28.317 -20.751   7.260  0.00  0.00    -0.026 A 
ATOM     19  C   LIG    1       29.434 -20.078   7.786  0.00  0.00    +0.005 A 
ATOM     20  C   LIG    1       30.017 -19.010   7.104  0.00  0.00    +0.000 A 
ATOM     21  C   LIG    1       29.480 -18.580   5.896  0.00  0.00    +0.000 A 
ATOM     22  C   LIG    1       28.352 -19.211   5.376  0.00  0.00    +0.000 A 
ATOM     23  C   LIG    1       27.769 -20.285   6.056  0.00  0.00    +0.005 A 
ENDBRANCH  17  18
ENDBRANCH   7  17
TORSDOF 7
ENDMDL
MODEL 6
REMARK VINA RESULT:      -8.0      2.113      7.494
REMARK  Name = *****
REMARK                            x       y       z     vdW  Elec       q    Type
REMARK                         _______ _______ _______ _____ _____    ______ ____
ROOT
ATOM      1  C   LIG    1       27.941 -21.308   7.537  0.00  0.00    +0.242 A 
ATOM      2  C   LIG    1       28.073 -20.277   6.575  0.00  0.00    +0.063 A 
ATOM      3  C   LIG    1       29.254 -19.620   6.946  0.00  0.00    +0.073 A 
ATOM      4  C   LIG    1       29.755 -18.520   6.238  0.00  0.00    +0.028 A 
ATOM      5  C   LIG    1       29.023 -18.077   5.133  0.00  0.00    +0.002 A 
ATOM      6  C   LIG    1       27.850 -18.721   4.740  0.00  0.00    +0.001 A 
ATOM      7  N   LIG    1       29.727 -20.310   8.036  0.00  0.00    -0.256 N 
ATOM      8  C   LIG    1       27.364 -19.831   5.450  0.00  0.00    +0.015 A 
ATOM      9  N   LIG    1       28.894 -21.281   8.459  0.00  0.00    -0.132 NA
ENDROOT
BRANCH   1  10
ATOM     10  O   LIG    1       27.003 -22.287   7.576  0.00  0.00    -0.475 OA
BRANCH  10  11
ATOM     11  C   LIG    1       25.937 -22.021   8.498  0.00  0.00    +0.232 C 
BRANCH  11  12
ATOM     12  C   LIG    1       24.888 -21.146   7.825  0.00  0.00    +0.056 C 
BRANCH  12  13
ATOM     13  C   LIG    1       23.698 -21.982   7.329  0.00  0.00    +0.087 C 
BRANCH  13  15
ATOM     14  C   LIG    1       22.941 -20.281   5.776  0.00  0.00    +0.104 C 
ATOM     15  N   LIG    1       23.333 -21.682   5.931  0.00  0.00    -0.308 NA
ATOM     16  C   LIG    1       24.460 -21.978   5.040  0.00  0.00    +0.104 C 
ENDBRANCH  13  15
ENDBRANCH  12  13
ENDBRANCH  11  12
ENDBRANCH  10  11
ENDBRANCH   1  10
BRANCH   7  17
ATOM     17  C   LIG    1       31.013 -20.156   8.703  0.00  0.00    +0.179 C 
BRANCH  17  18
ATOM     18  C   LIG    1       31.200 -18.788   9.325  0.00  0.00    -0.026 A 
ATOM     19  C   LIG    1       30.396 -18.317  10.378  0.00  0.00    +0.005 A 
ATOM     20  C   LIG    1       30.593 -17.048  10.922  0.00  0.00    +0.000 A 
ATOM     21  C   LIG    1       31.582 -16.217  10.407  0.00  0.00    +0.000 A 
ATOM     22  C   LIG    1       32.366 -16.652   9.341  0.00  0.00    +0.000 A 
ATOM     23  C   LIG    1       32.173 -17.925   8.798  0.00  0.00    +0.005 A 
ENDBRANCH  17  18
ENDBRANCH   7  17
TORSDOF 7
ENDMDL
MODEL 7
REMARK VINA RESULT:      -8.0      1.723      6.313
REMARK  Name = *****
REMARK                            x       y       z     vdW  Elec       q    Type
REMARK                         _______ _______ _______ _____ _____    ______ ____
ROOT
ATOM      1  C   LIG    1       26.858 -20.017   5.480  0.00  0.00    +0.242 A 
ATOM      2  C   LIG    1       28.157 -19.855   6.021  0.00  0.00    +0.063 A 
ATOM      3  C   LIG    1       28.168 -20.711   7.130  0.00  0.00    +0.073 A 
ATOM      4  C   LIG    1       29.291 -20.854   7.956  0.00  0.00    +0.028 A 
ATOM      5  C   LIG    1       30.421 -20.094   7.645  0.00  0.00    +0.002 A 
ATOM      6  C   LIG    1       30.436 -19.242   6.541  0.00  0.00    +0.001 A 
ATOM      7  N   LIG    1       26.934 -21.314   7.137  0.00  0.00    -0.256 N 
ATOM      8  C   LIG    1       29.309 -19.116   5.712  0.00  0.00    +0.015 A 
ATOM      9  N   LIG    1       26.099 -20.836   6.194  0.00  0.00    -0.132 NA
ENDROOT
BRANCH   1  10
ATOM     10  O   LIG    1       26.363 -19.470   4.342  0.00  0.00    -0.475 OA
BRANCH  10  11
ATOM     11  C   LIG    1       25.164 -20.106   3.877  0.00  0.00    +0.232 C 
BRANCH  11  12
ATOM     12  C   LIG    1       24.112 -19.049   3.571  0.00  0.00    +0.056 C 
BRANCH  12  13
ATOM     13  C   LIG    1       22.868 -19.228   4.455  0.00  0.00    +0.087 C 
BRANCH  13  15
ATOM     14  C   LIG    1       22.910 -20.230   6.662  0.00  0.00    +0.104 C 
ATOM     15  N   LIG    1       22.889 -20.488   5.222  0.00  0.00    -0.308 NA
ATOM     16  C   LIG    1       21.716 -21.304   4.888  0.00  0.00    +0.104 C 
ENDBRANCH  13  15
ENDBRANCH  12  13
ENDBRANCH  11  12
ENDBRANCH  10  11
ENDBRANCH   1  10
BRANCH   7  17
ATOM     17  C   LIG    1       26.483 -22.420   7.970  0.00  0.00    +0.179 C 
BRANCH  17  18
ATOM     18  C   LIG    1       25.613 -23.410   7.225  0.00  0.00    -0.026 A 
ATOM     19  C   LIG    1       24.210 -23.326   7.210  0.00  0.00    +0.005 A 
ATOM     20  C   LIG    1       23.440 -24.261   6.517  0.00  0.00    +0.000 A 
ATOM     21  C   LIG    1       24.058 -25.310   5.846  0.00  0.00    +0.000 A 
ATOM     22  C   LIG    1       25.446 -25.430   5.878  0.00  0.00    +0.000 A 
ATOM     23  C   LIG    1       26.218 -24.492   6.567  0.00  0.00    +0.005 A 
ENDBRANCH  17  18
ENDBRANCH   7  17
TORSDOF 7
ENDMDL
MODEL 8
REMARK VINA RESULT:      -7.9      1.809      6.476
REMARK  Name = *****
REMARK                            x       y       z     vdW  Elec       q    Type
REMARK                         _______ _______ _______ _____ _____    ______ ____
ROOT
ATOM      1  C   LIG    1       24.808 -21.471   6.691  0.00  0.00    +0.242 A 
ATOM      2  C   LIG    1       24.054 -20.665   5.804  0.00  0.00    +0.063 A 
ATOM      3  C   LIG    1       25.024 -19.931   5.110  0.00  0.00    +0.073 A 
ATOM      4  C   LIG    1       24.693 -19.000   4.117  0.00  0.00    +0.028 A 
ATOM      5  C   LIG    1       23.337 -18.808   3.840  0.00  0.00    +0.002 A 
ATOM      6  C   LIG    1       22.354 -19.535   4.512  0.00  0.00    +0.001 A 
ATOM      7  N   LIG    1       26.231 -20.370   5.599  0.00  0.00    -0.256 N 
ATOM      8  C   LIG    1       22.698 -20.475   5.496  0.00  0.00    +0.015 A 
ATOM      9  N   LIG    1       26.111 -21.240   6.621  0.00  0.00    -0.132 NA
ENDROOT
BRANCH   1  10
ATOM     10  O   LIG    1       24.345 -22.431   7.531  0.00  0.00    -0.475 OA
BRANCH  10  11
ATOM     11  C   LIG    1       23.886 -23.611   6.854  0.00  0.00    +0.232 C 
BRANCH  11  12
ATOM     12  C   LIG    1       25.059 -24.552   6.620  0.00  0.00    +0.056 C 
BRANCH  12  13
ATOM     13  C   LIG    1       25.130 -25.002   5.153  0.00  0.00    +0.087 C 
BRANCH  13  15
ATOM     14  C   LIG    1       26.631 -26.902   5.286  0.00  0.00    +0.104 C 
ATOM     15  N   LIG    1       25.262 -26.465   5.010  0.00  0.00    -0.308 NA
ATOM     16  C   LIG    1       24.337 -27.148   5.922  0.00  0.00    +0.104 C 
ENDBRANCH  13  15
ENDBRANCH  12  13
ENDBRANCH  11  12
ENDBRANCH  10  11
ENDBRANCH   1  10
BRANCH   7  17
ATOM     17  C   LIG    1       27.564 -20.064   5.098  0.00  0.00    +0.179 C 
BRANCH  17  18
ATOM     18  C   LIG    1       28.603 -19.963   6.195  0.00  0.00    -0.026 A 
ATOM     19  C   LIG    1       29.377 -18.808   6.403  0.00  0.00    +0.005 A 
ATOM     20  C   LIG    1       30.330 -18.753   7.420  0.00  0.00    +0.000 A 
ATOM     21  C   LIG    1       30.543 -19.861   8.233  0.00  0.00    +0.000 A 
ATOM     22  C   LIG    1       29.810 -21.027   8.021  0.00  0.00    +0.000 A 
ATOM     23  C   LIG    1       28.852 -21.082   7.005  0.00  0.00    +0.005 A 
ENDBRANCH  17  18
ENDBRANCH   7  17
TORSDOF 7
ENDMDL
MODEL 9
REMARK VINA RESULT:      -7.9      2.522      6.762
REMARK  Name = *****
REMARK                            x       y       z     vdW  Elec       q    Type
REMARK                         _______ _______ _______ _____ _____    ______ ____
ROOT
ATOM      1  C   LIG    1       25.255 -23.714   5.854  0.00  0.00    +0.242 A 
ATOM      2  C   LIG    1       24.350 -22.625   5.869  0.00  0.00    +0.063 A 
ATOM      3  C   LIG    1       24.838 -21.796   6.887  0.00  0.00    +0.073 A 
ATOM      4  C   LIG    1       24.220 -20.586   7.229  0.00  0.00    +0.028 A 
ATOM      5  C   LIG    1       23.071 -20.225   6.522  0.00  0.00    +0.002 A 
ATOM      6  C   LIG    1       22.572 -21.031   5.498  0.00  0.00    +0.001 A 
ATOM      7  N   LIG    1       25.970 -22.419   7.353  0.00  0.00    -0.256 N 
ATOM      8  C   LIG    1       23.207 -22.236   5.154  0.00  0.00    +0.015 A 
ATOM      9  N   LIG    1       26.184 -23.627   6.795  0.00  0.00    -0.132 NA
ENDROOT
BRANCH   1  10
ATOM     10  O   LIG    1       25.278 -24.758   4.989  0.00  0.00    -0.475 OA
BRANCH  10  11
ATOM     11  C   LIG    1       25.626 -26.006   5.608  0.00  0.00    +0.232 C 
BRANCH  11  12
ATOM     12  C   LIG    1       24.358 -26.738   6.026  0.00  0.00    +0.056 C 
BRANCH  12  13
ATOM     13  C   LIG    1       24.319 -28.161   5.448  0.00  0.00    +0.087 C 
BRANCH  13  15
ATOM     14  C   LIG    1       24.429 -29.492   7.472  0.00  0.00    +0.104 C 
ATOM     15  N   LIG    1       25.118 -29.119   6.236  0.00  0.00    -0.308 NA
ATOM     16  C   LIG    1       25.387 -30.325   5.444  0.00  0.00    +0.104 C 
ENDBRANCH  13  15
ENDBRANCH  12  13
ENDBRANCH  11  12
ENDBRANCH  10  11
ENDBRANCH   1  10
BRANCH   7  17
ATOM     17  C   LIG    1       26.958 -21.898   8.288  0.00  0.00    +0.179 C 
BRANCH  17  18
ATOM     18  C   LIG    1       28.018 -21.047   7.619  0.00  0.00    -0.026 A 
ATOM     19  C   LIG    1       29.341 -20.976   8.089  0.00  0.00    +0.005 A 
ATOM     20  C   LIG    1       30.289 -20.175   7.451  0.00  0.00    +0.000 A 
ATOM     21  C   LIG    1       29.925 -19.413   6.347  0.00  0.00    +0.000 A 
ATOM     22  C   LIG    1       28.610 -19.443   5.887  0.00  0.00    +0.000 A 
ATOM     23  C   LIG    1       27.661 -20.248   6.522  0.00  0.00    +0.005 A 
ENDBRANCH  17  18
ENDBRANCH   7  17
TORSDOF 7
ENDMDL
