MODEL 1
REMARK VINA RESULT:       3.9      0.000      0.000
REMARK  Name = *****
REMARK                            x       y       z     vdW  Elec       q    Type
REMARK                         _______ _______ _______ _____ _____    ______ ____
ROOT
ATOM      1  C   LIG    1       24.874 -11.483   2.255  0.00  0.00    +0.014 C 
ATOM      2  C   LIG    1       25.409 -12.608   3.187  0.00  0.00    -0.003 C 
ATOM      3  C   LIG    1       25.779 -11.934   4.539  0.00  0.00    +0.121 C 
ATOM      4  C   LIG    1       27.297 -11.711   4.522  0.00  0.00    +0.032 C 
ATOM      5  C   LIG    1       27.766 -12.085   3.119  0.00  0.00    +0.007 C 
ATOM      6  C   LIG    1       26.759 -13.133   2.622  0.00  0.00    +0.001 C 
ATOM      7  C   LIG    1       27.149 -14.612   2.925  0.00  0.00    +0.001 C 
ATOM      8  C   LIG    1       25.930 -15.570   2.842  0.00  0.00    +0.023 C 
ATOM      9  C   LIG    1       26.229 -16.993   3.289  0.00  0.00    -0.041 A 
ATOM     10  C   LIG    1       27.367 -17.287   4.059  0.00  0.00    -0.040 A 
ATOM     11  C   LIG    1       28.464 -16.288   4.265  0.00  0.00    +0.036 C 
ATOM     12  C   LIG    1       27.521 -18.560   4.611  0.00  0.00    +0.050 A 
ATOM     13  C   LIG    1       26.579 -19.553   4.368  0.00  0.00    +0.134 A 
ATOM     14  C   LIG    1       25.458 -19.289   3.588  0.00  0.00    +0.046 A 
ATOM     15  C   LIG    1       25.291 -18.015   3.041  0.00  0.00    +0.008 A 
ATOM     16  C   LIG    1       24.764 -15.047   3.700  0.00  0.00    +0.009 C 
ATOM     17  C   LIG    1       27.953 -14.857   4.213  0.00  0.00    +0.009 C 
ATOM     18  C   LIG    1       24.306 -13.672   3.251  0.00  0.00    +0.010 C 
ENDROOT
BRANCH   3  19
ATOM     19  O   LIG    1       25.382 -12.669   5.686  0.00  0.00    -0.391 OA
ATOM     20  H   LIG    1       24.570 -13.156   5.489  0.00  0.00    +0.210 HD
ENDBRANCH   3  19
BRANCH  13  21
ATOM     21  O   LIG    1       26.651 -20.816   4.987  0.00  0.00    -0.411 OA
BRANCH  21  22
ATOM     22  C   LIG    1       25.660 -21.219   5.881  0.00  0.00    +0.408 C 
ATOM     23  N   LIG    1       24.392 -21.188   5.314  0.00  0.00    -0.265 N 
ATOM     24  O   LIG    1       25.854 -21.554   7.045  0.00  0.00    -0.226 OA
BRANCH  23  25
ATOM     25  C   LIG    1       24.212 -21.091   3.865  0.00  0.00    +0.127 C 
BRANCH  25  26
ATOM     26  C   LIG    1       22.744 -21.243   3.471  0.00  0.00    +0.128 C 
ATOM     27 CL   LIG    1       21.911 -19.675   3.517  0.00  0.00    -0.124 Cl
ENDBRANCH  25  26
ENDBRANCH  23  25
BRANCH  23  28
ATOM     28  C   LIG    1       23.243 -21.562   6.140  0.00  0.00    +0.127 C 
BRANCH  28  29
ATOM     29  C   LIG    1       22.569 -20.399   6.881  0.00  0.00    +0.128 C 
ATOM     30 CL   LIG    1       22.977 -18.827   6.143  0.00  0.00    -0.124 Cl
ENDBRANCH  28  29
ENDBRANCH  23  28
ENDBRANCH  21  22
ENDBRANCH  13  21
TORSDOF 7
ENDMDL
