MODEL 1
REMARK VINA RESULT:      -7.2      0.000      0.000
REMARK  Name = *****
REMARK                            x       y       z     vdW  Elec       q    Type
REMARK                         _______ _______ _______ _____ _____    ______ ____
ROOT
ATOM      1  C5M   T A  1       26.487 -26.000   6.249  0.00  0.00    +0.051 C 
ATOM      2  C5    T A  1       25.546 -24.856   6.436  0.00  0.00    +0.030 C 
ATOM      3  C4    T A  1       24.095 -25.131   6.351  0.00  0.00    +0.257 C 
ATOM      4  O4    T A  1       23.657 -26.261   6.171  0.00  0.00    -0.267 OA
ATOM      5  N3    T A  1       23.277 -24.045   6.481  0.00  0.00    -0.275 N 
ATOM      6  H3    T A  1       22.286 -24.213   6.422  0.00  0.00    +0.173 HD
ATOM      7  C2    T A  1       23.669 -22.761   6.751  0.00  0.00    +0.331 C 
ATOM      8  O2    T A  1       22.833 -21.867   6.863  0.00  0.00    -0.246 OA
ATOM      9  N1    T A  1       25.039 -22.566   6.888  0.00  0.00    -0.274 N 
ATOM     10  C6    T A  1       25.932 -23.601   6.697  0.00  0.00    +0.102 C 
ENDROOT
BRANCH   9  11
ATOM     11  C1*   T A  1       25.487 -21.216   7.230  0.00  0.00    +0.226 C 
ATOM     12  O4*   T A  1       26.635 -21.285   8.104  0.00  0.00    -0.348 OA
ATOM     13  C4*   T A  1       27.720 -20.570   7.477  0.00  0.00    +0.175 C 
ATOM     14  C3*   T A  1       27.388 -20.513   5.994  0.00  0.00    +0.150 C 
ATOM     15  C2*   T A  1       25.884 -20.374   6.021  0.00  0.00    +0.088 C 
BRANCH  14  16
ATOM     16  O3*   T A  1       28.024 -19.445   5.316  0.00  0.00    -0.389 OA
ATOM     17  H3*   T A  1       28.939 -19.359   5.639  0.00  0.00    +0.210 HD
ENDBRANCH  14  16
BRANCH  13  18
ATOM     18  C5*   T A  1       29.032 -21.288   7.779  0.00  0.00    +0.190 C 
BRANCH  18  19
ATOM     19  O5*   T A  1       30.106 -20.621   7.115  0.00  0.00    -0.392 OA
ATOM     20  H5*   T A  1       30.295 -19.820   7.640  0.00  0.00    +0.209 HD
ENDBRANCH  18  19
ENDBRANCH  13  18
ENDBRANCH   9  11
TORSDOF 4
ENDMDL
MODEL 2
REMARK VINA RESULT:      -7.0      3.911      7.026
REMARK  Name = *****
REMARK                            x       y       z     vdW  Elec       q    Type
REMARK                         _______ _______ _______ _____ _____    ______ ____
ROOT
ATOM      1  C5M   T A  1       30.065 -16.637   9.189  0.00  0.00    +0.051 C 
ATOM      2  C5    T A  1       30.426 -18.073   8.998  0.00  0.00    +0.030 C 
ATOM      3  C4    T A  1       31.658 -18.570   9.649  0.00  0.00    +0.257 C 
ATOM      4  O4    T A  1       32.353 -17.852  10.359  0.00  0.00    -0.267 OA
ATOM      5  N3    T A  1       31.971 -19.877   9.406  0.00  0.00    -0.275 N 
ATOM      6  H3    T A  1       32.809 -20.232   9.839  0.00  0.00    +0.173 HD
ATOM      7  C2    T A  1       31.223 -20.770   8.688  0.00  0.00    +0.331 C 
ATOM      8  O2    T A  1       31.604 -21.932   8.552  0.00  0.00    -0.246 OA
ATOM      9  N1    T A  1       30.042 -20.273   8.150  0.00  0.00    -0.274 N 
ATOM     10  C6    T A  1       29.696 -18.943   8.292  0.00  0.00    +0.102 C 
ENDROOT
BRANCH   9  11
ATOM     11  C1*   T A  1       29.193 -21.215   7.422  0.00  0.00    +0.226 C 
ATOM     12  O4*   T A  1       27.960 -21.427   8.143  0.00  0.00    -0.348 OA
ATOM     13  C4*   T A  1       26.865 -21.079   7.271  0.00  0.00    +0.175 C 
ATOM     14  C3*   T A  1       27.447 -20.165   6.205  0.00  0.00    +0.150 C 
ATOM     15  C2*   T A  1       28.826 -20.753   6.014  0.00  0.00    +0.088 C 
BRANCH  14  16
ATOM     16  O3*   T A  1       26.691 -20.145   5.007  0.00  0.00    -0.389 OA
ATOM     17  H3*   T A  1       25.787 -20.454   5.194  0.00  0.00    +0.210 HD
ENDBRANCH  14  16
BRANCH  13  18
ATOM     18  C5*   T A  1       25.758 -20.425   8.095  0.00  0.00    +0.190 C 
BRANCH  18  19
ATOM     19  O5*   T A  1       25.951 -20.726   9.477  0.00  0.00    -0.392 OA
ATOM     20  H5*   T A  1       26.909 -20.871   9.593  0.00  0.00    +0.209 HD
ENDBRANCH  18  19
ENDBRANCH  13  18
ENDBRANCH   9  11
TORSDOF 4
ENDMDL
MODEL 3
REMARK VINA RESULT:      -6.6      3.149      5.082
REMARK  Name = *****
REMARK                            x       y       z     vdW  Elec       q    Type
REMARK                         _______ _______ _______ _____ _____    ______ ____
ROOT
ATOM      1  C5M   T A  1       26.472 -22.118   7.996  0.00  0.00    +0.051 C 
ATOM      2  C5    T A  1       27.055 -21.081   7.094  0.00  0.00    +0.030 C 
ATOM      3  C4    T A  1       26.249 -20.636   5.936  0.00  0.00    +0.257 C 
ATOM      4  O4    T A  1       25.120 -21.062   5.729  0.00  0.00    -0.267 OA
ATOM      5  N3    T A  1       26.845 -19.722   5.115  0.00  0.00    -0.275 N 
ATOM      6  H3    T A  1       26.312 -19.410   4.319  0.00  0.00    +0.173 HD
ATOM      7  C2    T A  1       28.069 -19.138   5.303  0.00  0.00    +0.331 C 
ATOM      8  O2    T A  1       28.494 -18.312   4.498  0.00  0.00    -0.246 OA
ATOM      9  N1    T A  1       28.761 -19.542   6.440  0.00  0.00    -0.274 N 
ATOM     10  C6    T A  1       28.254 -20.515   7.278  0.00  0.00    +0.102 C 
ENDROOT
BRANCH   9  11
ATOM     11  C1*   T A  1       30.048 -18.897   6.699  0.00  0.00    +0.226 C 
ATOM     12  O4*   T A  1       29.882 -17.832   7.658  0.00  0.00    -0.348 OA
ATOM     13  C4*   T A  1       30.750 -18.098   8.780  0.00  0.00    +0.175 C 
ATOM     14  C3*   T A  1       31.054 -19.587   8.735  0.00  0.00    +0.150 C 
ATOM     15  C2*   T A  1       31.112 -19.845   7.248  0.00  0.00    +0.088 C 
BRANCH  14  16
ATOM     16  O3*   T A  1       32.256 -19.935   9.397  0.00  0.00    -0.389 OA
ATOM     17  H3*   T A  1       32.905 -20.249   8.742  0.00  0.00    +0.210 HD
ENDBRANCH  14  16
BRANCH  13  18
ATOM     18  C5*   T A  1       30.056 -17.657  10.066  0.00  0.00    +0.190 C 
BRANCH  18  19
ATOM     19  O5*   T A  1       30.603 -18.373  11.173  0.00  0.00    -0.392 OA
ATOM     20  H5*   T A  1       29.878 -18.468  11.820  0.00  0.00    +0.209 HD
ENDBRANCH  18  19
ENDBRANCH  13  18
ENDBRANCH   9  11
TORSDOF 4
ENDMDL
MODEL 4
REMARK VINA RESULT:      -6.4      2.626      5.321
REMARK  Name = *****
REMARK                            x       y       z     vdW  Elec       q    Type
REMARK                         _______ _______ _______ _____ _____    ______ ____
ROOT
ATOM      1  C5M   T A  1       28.848 -19.282   5.553  0.00  0.00    +0.051 C 
ATOM      2  C5    T A  1       27.881 -19.950   6.473  0.00  0.00    +0.030 C 
ATOM      3  C4    T A  1       28.187 -19.951   7.921  0.00  0.00    +0.257 C 
ATOM      4  O4    T A  1       29.178 -19.392   8.375  0.00  0.00    -0.267 OA
ATOM      5  N3    T A  1       27.297 -20.615   8.715  0.00  0.00    -0.275 N 
ATOM      6  H3    T A  1       27.491 -20.629   9.703  0.00  0.00    +0.173 HD
ATOM      7  C2    T A  1       26.130 -21.207   8.309  0.00  0.00    +0.331 C 
ATOM      8  O2    T A  1       25.399 -21.763   9.125  0.00  0.00    -0.246 OA
ATOM      9  N1    T A  1       25.854 -21.123   6.949  0.00  0.00    -0.274 N 
ATOM     10  C6    T A  1       26.743 -20.531   6.073  0.00  0.00    +0.102 C 
ENDROOT
BRANCH   9  11
ATOM     11  C1*   T A  1       24.590 -21.698   6.490  0.00  0.00    +0.226 C 
ATOM     12  O4*   T A  1       23.582 -20.668   6.405  0.00  0.00    -0.348 OA
ATOM     13  C4*   T A  1       23.082 -20.639   5.051  0.00  0.00    +0.175 C 
ATOM     14  C3*   T A  1       24.152 -21.297   4.192  0.00  0.00    +0.150 C 
ATOM     15  C2*   T A  1       24.678 -22.366   5.120  0.00  0.00    +0.088 C 
BRANCH  14  16
ATOM     16  O3*   T A  1       23.650 -21.825   2.978  0.00  0.00    -0.389 OA
ATOM     17  H3*   T A  1       22.676 -21.820   3.003  0.00  0.00    +0.210 HD
ENDBRANCH  14  16
BRANCH  13  18
ATOM     18  C5*   T A  1       22.788 -19.195   4.656  0.00  0.00    +0.190 C 
BRANCH  18  19
ATOM     19  O5*   T A  1       23.628 -18.818   3.565  0.00  0.00    -0.392 OA
ATOM     20  H5*   T A  1       23.967 -17.927   3.778  0.00  0.00    +0.209 HD
ENDBRANCH  18  19
ENDBRANCH  13  18
ENDBRANCH   9  11
TORSDOF 4
ENDMDL
MODEL 5
REMARK VINA RESULT:      -6.3      1.483      1.527
REMARK  Name = *****
REMARK                            x       y       z     vdW  Elec       q    Type
REMARK                         _______ _______ _______ _____ _____    ______ ____
ROOT
ATOM      1  C5M   T A  1       26.118 -25.827   7.084  0.00  0.00    +0.051 C 
ATOM      2  C5    T A  1       25.813 -24.469   6.545  0.00  0.00    +0.030 C 
ATOM      3  C4    T A  1       24.868 -24.368   5.411  0.00  0.00    +0.257 C 
ATOM      4  O4    T A  1       24.312 -25.353   4.939  0.00  0.00    -0.267 OA
ATOM      5  N3    T A  1       24.659 -23.110   4.922  0.00  0.00    -0.275 N 
ATOM      6  H3    T A  1       24.021 -23.023   4.148  0.00  0.00    +0.173 HD
ATOM      7  C2    T A  1       25.178 -21.948   5.426  0.00  0.00    +0.331 C 
ATOM      8  O2    T A  1       24.901 -20.868   4.908  0.00  0.00    -0.246 OA
ATOM      9  N1    T A  1       26.008 -22.088   6.532  0.00  0.00    -0.274 N 
ATOM     10  C6    T A  1       26.324 -23.334   7.036  0.00  0.00    +0.102 C 
ENDROOT
BRANCH   9  11
ATOM     11  C1*   T A  1       26.537 -20.860   7.127  0.00  0.00    +0.226 C 
ATOM     12  O4*   T A  1       27.460 -21.185   8.189  0.00  0.00    -0.348 OA
ATOM     13  C4*   T A  1       28.731 -20.575   7.881  0.00  0.00    +0.175 C 
ATOM     14  C3*   T A  1       28.724 -20.319   6.382  0.00  0.00    +0.150 C 
ATOM     15  C2*   T A  1       27.276 -19.965   6.137  0.00  0.00    +0.088 C 
BRANCH  14  16
ATOM     16  O3*   T A  1       29.613 -19.290   5.984  0.00  0.00    -0.389 OA
ATOM     17  H3*   T A  1       30.526 -19.555   6.197  0.00  0.00    +0.210 HD
ENDBRANCH  14  16
BRANCH  13  18
ATOM     18  C5*   T A  1       29.854 -21.504   8.334  0.00  0.00    +0.190 C 
BRANCH  18  19
ATOM     19  O5*   T A  1       31.115 -20.940   7.973  0.00  0.00    -0.392 OA
ATOM     20  H5*   T A  1       31.129 -20.907   6.997  0.00  0.00    +0.209 HD
ENDBRANCH  18  19
ENDBRANCH  13  18
ENDBRANCH   9  11
TORSDOF 4
ENDMDL
MODEL 6
REMARK VINA RESULT:      -6.2      2.823      3.888
REMARK  Name = *****
REMARK                            x       y       z     vdW  Elec       q    Type
REMARK                         _______ _______ _______ _____ _____    ______ ____
ROOT
ATOM      1  C5M   T A  1       24.434 -19.508   3.469  0.00  0.00    +0.051 C 
ATOM      2  C5    T A  1       24.719 -20.062   4.826  0.00  0.00    +0.030 C 
ATOM      3  C4    T A  1       23.570 -20.361   5.709  0.00  0.00    +0.257 C 
ATOM      4  O4    T A  1       22.411 -20.202   5.343  0.00  0.00    -0.267 OA
ATOM      5  N3    T A  1       23.883 -20.820   6.956  0.00  0.00    -0.275 N 
ATOM      6  H3    T A  1       23.113 -21.026   7.571  0.00  0.00    +0.173 HD
ATOM      7  C2    T A  1       25.139 -21.094   7.427  0.00  0.00    +0.331 C 
ATOM      8  O2    T A  1       25.294 -21.523   8.569  0.00  0.00    -0.246 OA
ATOM      9  N1    T A  1       26.182 -20.859   6.538  0.00  0.00    -0.274 N 
ATOM     10  C6    T A  1       25.947 -20.325   5.286  0.00  0.00    +0.102 C 
ENDROOT
BRANCH   9  11
ATOM     11  C1*   T A  1       27.531 -21.192   6.992  0.00  0.00    +0.226 C 
ATOM     12  O4*   T A  1       28.503 -20.743   6.023  0.00  0.00    -0.348 OA
ATOM     13  C4*   T A  1       29.417 -19.845   6.686  0.00  0.00    +0.175 C 
ATOM     14  C3*   T A  1       28.693 -19.345   7.926  0.00  0.00    +0.150 C 
ATOM     15  C2*   T A  1       27.902 -20.566   8.334  0.00  0.00    +0.088 C 
BRANCH  14  16
ATOM     16  O3*   T A  1       29.568 -18.895   8.945  0.00  0.00    -0.389 OA
ATOM     17  H3*   T A  1       29.186 -19.111   9.814  0.00  0.00    +0.210 HD
ENDBRANCH  14  16
BRANCH  13  18
ATOM     18  C5*   T A  1       29.811 -18.730   5.721  0.00  0.00    +0.190 C 
BRANCH  18  19
ATOM     19  O5*   T A  1       28.712 -18.435   4.858  0.00  0.00    -0.392 OA
ATOM     20  H5*   T A  1       29.102 -18.117   4.021  0.00  0.00    +0.209 HD
ENDBRANCH  18  19
ENDBRANCH  13  18
ENDBRANCH   9  11
TORSDOF 4
ENDMDL
MODEL 7
REMARK VINA RESULT:      -6.2      2.088      5.146
REMARK  Name = *****
REMARK                            x       y       z     vdW  Elec       q    Type
REMARK                         _______ _______ _______ _____ _____    ______ ____
ROOT
ATOM      1  C5M   T A  1       28.216 -21.601   8.133  0.00  0.00    +0.051 C 
ATOM      2  C5    T A  1       26.790 -21.922   7.828  0.00  0.00    +0.030 C 
ATOM      3  C4    T A  1       25.740 -21.164   8.543  0.00  0.00    +0.257 C 
ATOM      4  O4    T A  1       26.010 -20.270   9.336  0.00  0.00    -0.267 OA
ATOM      5  N3    T A  1       24.453 -21.527   8.266  0.00  0.00    -0.275 N 
ATOM      6  H3    T A  1       23.725 -21.024   8.746  0.00  0.00    +0.173 HD
ATOM      7  C2    T A  1       24.054 -22.461   7.348  0.00  0.00    +0.331 C 
ATOM      8  O2    T A  1       22.858 -22.690   7.174  0.00  0.00    -0.246 OA
ATOM      9  N1    T A  1       25.075 -23.100   6.654  0.00  0.00    -0.274 N 
ATOM     10  C6    T A  1       26.402 -22.838   6.933  0.00  0.00    +0.102 C 
ENDROOT
BRANCH   9  11
ATOM     11  C1*   T A  1       24.681 -24.065   5.628  0.00  0.00    +0.226 C 
ATOM     12  O4*   T A  1       25.841 -24.779   5.151  0.00  0.00    -0.348 OA
ATOM     13  C4*   T A  1       25.618 -26.189   5.358  0.00  0.00    +0.175 C 
ATOM     14  C3*   T A  1       24.547 -26.294   6.434  0.00  0.00    +0.150 C 
ATOM     15  C2*   T A  1       23.673 -25.104   6.115  0.00  0.00    +0.088 C 
BRANCH  14  16
ATOM     16  O3*   T A  1       23.836 -27.518   6.402  0.00  0.00    -0.389 OA
ATOM     17  H3*   T A  1       23.691 -27.781   5.476  0.00  0.00    +0.210 HD
ENDBRANCH  14  16
BRANCH  13  18
ATOM     18  C5*   T A  1       26.936 -26.853   5.746  0.00  0.00    +0.190 C 
BRANCH  18  19
ATOM     19  O5*   T A  1       27.576 -27.363   4.576  0.00  0.00    -0.392 OA
ATOM     20  H5*   T A  1       28.500 -27.049   4.613  0.00  0.00    +0.209 HD
ENDBRANCH  18  19
ENDBRANCH  13  18
ENDBRANCH   9  11
TORSDOF 4
ENDMDL
MODEL 8
REMARK VINA RESULT:      -6.2      2.240      3.469
REMARK  Name = *****
REMARK                            x       y       z     vdW  Elec       q    Type
REMARK                         _______ _______ _______ _____ _____    ______ ____
ROOT
ATOM      1  C5M   T A  1       25.755 -23.933   7.408  0.00  0.00    +0.051 C 
ATOM      2  C5    T A  1       26.163 -22.610   6.849  0.00  0.00    +0.030 C 
ATOM      3  C4    T A  1       25.502 -22.147   5.609  0.00  0.00    +0.257 C 
ATOM      4  O4    T A  1       24.617 -22.796   5.064  0.00  0.00    -0.267 OA
ATOM      5  N3    T A  1       25.943 -20.955   5.111  0.00  0.00    -0.275 N 
ATOM      6  H3    T A  1       25.506 -20.626   4.265  0.00  0.00    +0.173 HD
ATOM      7  C2    T A  1       26.873 -20.130   5.685  0.00  0.00    +0.331 C 
ATOM      8  O2    T A  1       27.176 -19.067   5.147  0.00  0.00    -0.246 OA
ATOM      9  N1    T A  1       27.418 -20.578   6.883  0.00  0.00    -0.274 N 
ATOM     10  C6    T A  1       27.075 -21.807   7.410  0.00  0.00    +0.102 C 
ENDROOT
BRANCH   9  11
ATOM     11  C1*   T A  1       28.375 -19.695   7.549  0.00  0.00    +0.226 C 
ATOM     12  O4*   T A  1       28.935 -20.357   8.704  0.00  0.00    -0.348 OA
ATOM     13  C4*   T A  1       30.369 -20.393   8.548  0.00  0.00    +0.175 C 
ATOM     14  C3*   T A  1       30.638 -20.219   7.061  0.00  0.00    +0.150 C 
ATOM     15  C2*   T A  1       29.538 -19.264   6.660  0.00  0.00    +0.088 C 
BRANCH  14  16
ATOM     16  O3*   T A  1       31.930 -19.714   6.779  0.00  0.00    -0.389 OA
ATOM     17  H3*   T A  1       32.588 -20.203   7.306  0.00  0.00    +0.210 HD
ENDBRANCH  14  16
BRANCH  13  18
ATOM     18  C5*   T A  1       30.900 -21.709   9.112  0.00  0.00    +0.190 C 
BRANCH  18  19
ATOM     19  O5*   T A  1       32.285 -21.568   9.428  0.00  0.00    -0.392 OA
ATOM     20  H5*   T A  1       32.747 -21.434   8.578  0.00  0.00    +0.209 HD
ENDBRANCH  18  19
ENDBRANCH  13  18
ENDBRANCH   9  11
TORSDOF 4
ENDMDL
MODEL 9
REMARK VINA RESULT:      -6.0      2.251      5.881
REMARK  Name = *****
REMARK                            x       y       z     vdW  Elec       q    Type
REMARK                         _______ _______ _______ _____ _____    ______ ____
ROOT
ATOM      1  C5M   T A  1       27.953 -18.384   4.594  0.00  0.00    +0.051 C 
ATOM      2  C5    T A  1       28.201 -19.324   5.727  0.00  0.00    +0.030 C 
ATOM      3  C4    T A  1       29.540 -19.312   6.357  0.00  0.00    +0.257 C 
ATOM      4  O4    T A  1       30.419 -18.537   6.000  0.00  0.00    -0.267 OA
ATOM      5  N3    T A  1       29.733 -20.222   7.357  0.00  0.00    -0.275 N 
ATOM      6  H3    T A  1       30.640 -20.231   7.795  0.00  0.00    +0.173 HD
ATOM      7  C2    T A  1       28.794 -21.078   7.868  0.00  0.00    +0.331 C 
ATOM      8  O2    T A  1       29.085 -21.843   8.785  0.00  0.00    -0.246 OA
ATOM      9  N1    T A  1       27.533 -21.005   7.287  0.00  0.00    -0.274 N 
ATOM     10  C6    T A  1       27.283 -20.161   6.223  0.00  0.00    +0.102 C 
ENDROOT
BRANCH   9  11
ATOM     11  C1*   T A  1       26.493 -21.868   7.847  0.00  0.00    +0.226 C 
ATOM     12  O4*   T A  1       25.243 -21.148   7.922  0.00  0.00    -0.348 OA
ATOM     13  C4*   T A  1       24.256 -21.880   7.167  0.00  0.00    +0.175 C 
ATOM     14  C3*   T A  1       25.033 -22.768   6.206  0.00  0.00    +0.150 C 
ATOM     15  C2*   T A  1       26.241 -23.135   7.035  0.00  0.00    +0.088 C 
BRANCH  14  16
ATOM     16  O3*   T A  1       24.302 -23.900   5.772  0.00  0.00    -0.389 OA
ATOM     17  H3*   T A  1       24.286 -24.564   6.484  0.00  0.00    +0.210 HD
ENDBRANCH  14  16
BRANCH  13  18
ATOM     18  C5*   T A  1       23.327 -20.892   6.466  0.00  0.00    +0.190 C 
BRANCH  18  19
ATOM     19  O5*   T A  1       22.622 -21.560   5.420  0.00  0.00    -0.392 OA
ATOM     20  H5*   T A  1       22.828 -22.509   5.515  0.00  0.00    +0.209 HD
ENDBRANCH  18  19
ENDBRANCH  13  18
ENDBRANCH   9  11
TORSDOF 4
ENDMDL
