MODEL 1
REMARK VINA RESULT:     -11.4      0.000      0.000
REMARK  Name = *****
REMARK                            x       y       z     vdW  Elec       q    Type
REMARK                         _______ _______ _______ _____ _____    ______ ____
ROOT
ATOM      1  C   LIG    1       25.057 -21.437   6.680  0.00  0.00    +0.097 C 
ENDROOT
BRANCH   1   5
ATOM      2  C   LIG    1       24.353 -25.715   6.189  0.00  0.00    +0.159 A 
ATOM      3  C   LIG    1       23.306 -24.868   6.554  0.00  0.00    +0.049 A 
ATOM      4  C   LIG    1       23.524 -23.496   6.710  0.00  0.00    +0.008 A 
ATOM      5  C   LIG    1       24.799 -22.943   6.512  0.00  0.00    -0.034 A 
ATOM      6  C   LIG    1       25.835 -23.802   6.107  0.00  0.00    +0.008 A 
ATOM      7  C   LIG    1       25.610 -25.174   5.931  0.00  0.00    +0.049 A 
BRANCH   2   8
ATOM      8  O   LIG    1       24.031 -27.043   6.073  0.00  0.00    -0.325 OA
BRANCH   8  10
ATOM      9  O   LIG    1       24.130 -29.381   7.015  0.00  0.00    -0.108 OA
ATOM     10  S   LIG    1       24.955 -28.237   6.686  0.00  0.00    +0.251 S 
ATOM     11  O   LIG    1       25.846 -27.668   7.671  0.00  0.00    -0.108 OA
BRANCH  10  12
ATOM     12  O   LIG    1       25.925 -28.679   5.473  0.00  0.00    -0.222 OA
ATOM     13  H   LIG    1       25.473 -29.411   5.005  0.00  0.00    +0.248 HD
ENDBRANCH  10  12
ENDBRANCH   8  10
ENDBRANCH   2   8
ENDBRANCH   1   5
BRANCH   1  14
ATOM     14  C   LIG    1       24.276 -20.570   5.671  0.00  0.00    +0.053 A 
ATOM     15  N   LIG    1       24.867 -20.279   4.479  0.00  0.00    -0.259 NA
ATOM     16  C   LIG    1       24.244 -19.413   3.651  0.00  0.00    +0.111 A 
ATOM     17  C   LIG    1       23.024 -18.828   3.929  0.00  0.00    +0.020 A 
ATOM     18  C   LIG    1       22.405 -19.150   5.129  0.00  0.00    +0.003 A 
ATOM     19  C   LIG    1       23.036 -20.024   6.016  0.00  0.00    +0.024 A 
ENDBRANCH   1  14
BRANCH   1  20
ATOM     20  C   LIG    1       26.564 -21.123   6.780  0.00  0.00    -0.034 A 
ATOM     21  C   LIG    1       27.404 -21.700   7.743  0.00  0.00    +0.008 A 
ATOM     22  C   LIG    1       28.744 -21.325   7.853  0.00  0.00    +0.049 A 
ATOM     23  C   LIG    1       29.293 -20.367   7.001  0.00  0.00    +0.159 A 
ATOM     24  C   LIG    1       28.495 -19.829   5.995  0.00  0.00    +0.049 A 
ATOM     25  C   LIG    1       27.141 -20.193   5.896  0.00  0.00    +0.008 A 
BRANCH  23  26
ATOM     26  O   LIG    1       30.596 -20.045   7.281  0.00  0.00    -0.325 OA
BRANCH  26  27
ATOM     27  S   LIG    1       31.059 -19.031   8.461  0.00  0.00    +0.251 S 
ATOM     28  O   LIG    1       29.931 -18.671   9.294  0.00  0.00    -0.108 OA
ATOM     29  O   LIG    1       31.933 -18.035   7.890  0.00  0.00    -0.108 OA
BRANCH  27  30
ATOM     30  O   LIG    1       32.017 -19.967   9.365  0.00  0.00    -0.222 OA
ATOM     31  H   LIG    1       32.915 -19.578   9.363  0.00  0.00    +0.248 HD
ENDBRANCH  27  30
ENDBRANCH  26  27
ENDBRANCH  23  26
ENDBRANCH   1  20
TORSDOF 9
ENDMDL
MODEL 2
REMARK VINA RESULT:     -10.4      1.171      7.522
REMARK  Name = *****
REMARK                            x       y       z     vdW  Elec       q    Type
REMARK                         _______ _______ _______ _____ _____    ______ ____
ROOT
ATOM      1  C   LIG    1       25.873 -21.288   5.354  0.00  0.00    +0.097 C 
ENDROOT
BRANCH   1   5
ATOM      2  C   LIG    1       28.894 -19.537   7.972  0.00  0.00    +0.159 A 
ATOM      3  C   LIG    1       27.680 -19.980   8.498  0.00  0.00    +0.049 A 
ATOM      4  C   LIG    1       26.709 -20.545   7.665  0.00  0.00    +0.008 A 
ATOM      5  C   LIG    1       26.930 -20.671   6.285  0.00  0.00    -0.034 A 
ATOM      6  C   LIG    1       28.172 -20.255   5.775  0.00  0.00    +0.008 A 
ATOM      7  C   LIG    1       29.152 -19.709   6.614  0.00  0.00    +0.049 A 
BRANCH   2   8
ATOM      8  O   LIG    1       29.769 -18.992   8.875  0.00  0.00    -0.325 OA
BRANCH   8  10
ATOM      9  O   LIG    1       31.930 -18.625   7.624  0.00  0.00    -0.108 OA
ATOM     10  S   LIG    1       31.378 -19.243   8.813  0.00  0.00    +0.251 S 
ATOM     11  O   LIG    1       31.638 -20.636   9.101  0.00  0.00    -0.108 OA
BRANCH  10  12
ATOM     12  O   LIG    1       31.975 -18.451  10.086  0.00  0.00    -0.222 OA
ATOM     13  H   LIG    1       32.785 -18.930  10.360  0.00  0.00    +0.248 HD
ENDBRANCH  10  12
ENDBRANCH   8  10
ENDBRANCH   2   8
ENDBRANCH   1   5
BRANCH   1  14
ATOM     14  C   LIG    1       24.665 -20.360   5.108  0.00  0.00    +0.053 A 
ATOM     15  N   LIG    1       23.614 -20.428   5.970  0.00  0.00    -0.259 NA
ATOM     16  C   LIG    1       22.503 -19.716   5.682  0.00  0.00    +0.111 A 
ATOM     17  C   LIG    1       22.382 -18.897   4.576  0.00  0.00    +0.020 A 
ATOM     18  C   LIG    1       23.465 -18.801   3.715  0.00  0.00    +0.003 A 
ATOM     19  C   LIG    1       24.620 -19.543   3.973  0.00  0.00    +0.024 A 
ENDBRANCH   1  14
BRANCH   1  20
ATOM     20  C   LIG    1       25.514 -22.728   5.772  0.00  0.00    -0.034 A 
ATOM     21  C   LIG    1       26.020 -23.338   6.929  0.00  0.00    +0.008 A 
ATOM     22  C   LIG    1       25.736 -24.672   7.227  0.00  0.00    +0.049 A 
ATOM     23  C   LIG    1       24.931 -25.440   6.386  0.00  0.00    +0.159 A 
ATOM     24  C   LIG    1       24.363 -24.835   5.267  0.00  0.00    +0.049 A 
ATOM     25  C   LIG    1       24.664 -23.498   4.958  0.00  0.00    +0.008 A 
BRANCH  23  26
ATOM     26  O   LIG    1       24.807 -26.750   6.766  0.00  0.00    -0.325 OA
BRANCH  26  27
ATOM     27  S   LIG    1       25.201 -28.020   5.833  0.00  0.00    +0.251 S 
ATOM     28  O   LIG    1       26.317 -27.690   4.972  0.00  0.00    -0.108 OA
ATOM     29  O   LIG    1       23.986 -28.601   5.317  0.00  0.00    -0.108 OA
BRANCH  27  30
ATOM     30  O   LIG    1       25.754 -29.085   6.915  0.00  0.00    -0.222 OA
ATOM     31  H   LIG    1       25.226 -29.906   6.834  0.00  0.00    +0.248 HD
ENDBRANCH  27  30
ENDBRANCH  26  27
ENDBRANCH  23  26
ENDBRANCH   1  20
TORSDOF 9
ENDMDL
MODEL 3
REMARK VINA RESULT:     -10.4      1.103      7.461
REMARK  Name = *****
REMARK                            x       y       z     vdW  Elec       q    Type
REMARK                         _______ _______ _______ _____ _____    ______ ____
ROOT
ATOM      1  C   LIG    1       25.740 -21.483   5.304  0.00  0.00    +0.097 C 
ENDROOT
BRANCH   1   5
ATOM      2  C   LIG    1       28.636 -19.616   7.982  0.00  0.00    +0.159 A 
ATOM      3  C   LIG    1       28.854 -19.621   6.604  0.00  0.00    +0.049 A 
ATOM      4  C   LIG    1       27.929 -20.215   5.740  0.00  0.00    +0.008 A 
ATOM      5  C   LIG    1       26.767 -20.824   6.239  0.00  0.00    -0.034 A 
ATOM      6  C   LIG    1       26.541 -20.778   7.625  0.00  0.00    +0.008 A 
ATOM      7  C   LIG    1       27.459 -20.165   8.488  0.00  0.00    +0.049 A 
BRANCH   2   8
ATOM      8  O   LIG    1       29.610 -19.015   8.737  0.00  0.00    -0.325 OA
BRANCH   8  10
ATOM      9  O   LIG    1       31.823 -19.473   7.613  0.00  0.00    -0.108 OA
ATOM     10  S   LIG    1       31.120 -19.613   8.873  0.00  0.00    +0.251 S 
ATOM     11  O   LIG    1       31.049 -20.896   9.534  0.00  0.00    -0.108 OA
BRANCH  10  12
ATOM     12  O   LIG    1       31.856 -18.650   9.940  0.00  0.00    -0.222 OA
ATOM     13  H   LIG    1       32.690 -18.353   9.520  0.00  0.00    +0.248 HD
ENDBRANCH  10  12
ENDBRANCH   8  10
ENDBRANCH   2   8
ENDBRANCH   1   5
BRANCH   1  14
ATOM     14  C   LIG    1       24.527 -20.579   5.001  0.00  0.00    +0.053 A 
ATOM     15  N   LIG    1       24.564 -19.806   3.881  0.00  0.00    -0.259 NA
ATOM     16  C   LIG    1       23.566 -18.918   3.684  0.00  0.00    +0.111 A 
ATOM     17  C   LIG    1       22.492 -18.768   4.539  0.00  0.00    +0.020 A 
ATOM     18  C   LIG    1       22.436 -19.579   5.664  0.00  0.00    +0.003 A 
ATOM     19  C   LIG    1       23.465 -20.491   5.907  0.00  0.00    +0.024 A 
ENDBRANCH   1  14
BRANCH   1  20
ATOM     20  C   LIG    1       25.389 -22.914   5.758  0.00  0.00    -0.034 A 
ATOM     21  C   LIG    1       25.984 -23.534   6.866  0.00  0.00    +0.008 A 
ATOM     22  C   LIG    1       25.699 -24.861   7.194  0.00  0.00    +0.049 A 
ATOM     23  C   LIG    1       24.805 -25.612   6.431  0.00  0.00    +0.159 A 
ATOM     24  C   LIG    1       24.152 -24.996   5.366  0.00  0.00    +0.049 A 
ATOM     25  C   LIG    1       24.452 -23.667   5.026  0.00  0.00    +0.008 A 
BRANCH  23  26
ATOM     26  O   LIG    1       24.688 -26.919   6.826  0.00  0.00    -0.325 OA
BRANCH  26  27
ATOM     27  S   LIG    1       25.106 -28.196   5.914  0.00  0.00    +0.251 S 
ATOM     28  O   LIG    1       25.339 -29.359   6.744  0.00  0.00    -0.108 OA
ATOM     29  O   LIG    1       26.064 -27.758   4.929  0.00  0.00    -0.108 OA
BRANCH  27  30
ATOM     30  O   LIG    1       23.750 -28.488   5.086  0.00  0.00    -0.222 OA
ATOM     31  H   LIG    1       23.259 -27.646   4.994  0.00  0.00    +0.248 HD
ENDBRANCH  27  30
ENDBRANCH  26  27
ENDBRANCH  23  26
ENDBRANCH   1  20
TORSDOF 9
ENDMDL
MODEL 4
REMARK VINA RESULT:     -10.2      0.848      2.014
REMARK  Name = *****
REMARK                            x       y       z     vdW  Elec       q    Type
REMARK                         _______ _______ _______ _____ _____    ______ ____
ROOT
ATOM      1  C   LIG    1       25.052 -21.901   6.875  0.00  0.00    +0.097 C 
ENDROOT
BRANCH   1   5
ATOM      2  C   LIG    1       24.926 -26.166   5.964  0.00  0.00    +0.159 A 
ATOM      3  C   LIG    1       26.147 -25.493   6.009  0.00  0.00    +0.049 A 
ATOM      4  C   LIG    1       26.195 -24.127   6.304  0.00  0.00    +0.008 A 
ATOM      5  C   LIG    1       25.018 -23.403   6.551  0.00  0.00    -0.034 A 
ATOM      6  C   LIG    1       23.799 -24.101   6.540  0.00  0.00    +0.008 A 
ATOM      7  C   LIG    1       23.755 -25.475   6.266  0.00  0.00    +0.049 A 
BRANCH   2   8
ATOM      8  O   LIG    1       24.994 -27.501   5.658  0.00  0.00    -0.325 OA
BRANCH   8  10
ATOM      9  O   LIG    1       25.840 -28.152   7.945  0.00  0.00    -0.108 OA
ATOM     10  S   LIG    1       25.128 -28.664   6.791  0.00  0.00    +0.251 S 
ATOM     11  O   LIG    1       25.558 -29.885   6.148  0.00  0.00    -0.108 OA
BRANCH  10  12
ATOM     12  O   LIG    1       23.614 -28.969   7.260  0.00  0.00    -0.222 OA
ATOM     13  H   LIG    1       23.528 -29.944   7.314  0.00  0.00    +0.248 HD
ENDBRANCH  10  12
ENDBRANCH   8  10
ENDBRANCH   2   8
ENDBRANCH   1   5
BRANCH   1  14
ATOM     14  C   LIG    1       24.206 -21.051   5.903  0.00  0.00    +0.053 A 
ATOM     15  N   LIG    1       23.222 -20.267   6.423  0.00  0.00    -0.259 NA
ATOM     16  C   LIG    1       22.396 -19.626   5.568  0.00  0.00    +0.111 A 
ATOM     17  C   LIG    1       22.509 -19.697   4.193  0.00  0.00    +0.020 A 
ATOM     18  C   LIG    1       23.532 -20.470   3.663  0.00  0.00    +0.003 A 
ATOM     19  C   LIG    1       24.389 -21.163   4.521  0.00  0.00    +0.024 A 
ENDBRANCH   1  14
BRANCH   1  20
ATOM     20  C   LIG    1       26.492 -21.395   7.097  0.00  0.00    -0.034 A 
ATOM     21  C   LIG    1       27.114 -20.461   6.257  0.00  0.00    +0.008 A 
ATOM     22  C   LIG    1       28.448 -20.092   6.444  0.00  0.00    +0.049 A 
ATOM     23  C   LIG    1       29.204 -20.639   7.480  0.00  0.00    +0.159 A 
ATOM     24  C   LIG    1       28.588 -21.519   8.367  0.00  0.00    +0.049 A 
ATOM     25  C   LIG    1       27.251 -21.903   8.167  0.00  0.00    +0.008 A 
BRANCH  23  26
ATOM     26  O   LIG    1       30.516 -20.244   7.489  0.00  0.00    -0.325 OA
BRANCH  26  27
ATOM     27  S   LIG    1       31.226 -19.442   8.710  0.00  0.00    +0.251 S 
ATOM     28  O   LIG    1       32.240 -20.265   9.336  0.00  0.00    -0.108 OA
ATOM     29  O   LIG    1       30.201 -18.780   9.479  0.00  0.00    -0.108 OA
BRANCH  27  30
ATOM     30  O   LIG    1       32.008 -18.258   7.938  0.00  0.00    -0.222 OA
ATOM     31  H   LIG    1       31.643 -17.402   8.240  0.00  0.00    +0.248 HD
ENDBRANCH  27  30
ENDBRANCH  26  27
ENDBRANCH  23  26
ENDBRANCH   1  20
TORSDOF 9
ENDMDL
