MODEL 1
REMARK VINA RESULT:      -7.8      0.000      0.000
REMARK  Name = *****
REMARK                            x       y       z     vdW  Elec       q    Type
REMARK                         _______ _______ _______ _____ _____    ______ ____
ROOT
ATOM      1  C   LIG    1       25.913 -22.779   6.961  0.00  0.00    +0.087 C 
ATOM      2  N   LIG    1       25.974 -24.087   6.847  0.00  0.00    -0.089 NA
ENDROOT
BRANCH   1   3
ATOM      3  C   LIG    1       24.817 -21.879   6.399  0.00  0.00    -0.001 A 
ATOM      4  C   LIG    1       24.932 -21.547   5.026  0.00  0.00    +0.010 A 
ATOM      5  C   LIG    1       24.125 -20.582   4.442  0.00  0.00    +0.013 A 
ATOM      6  C   LIG    1       23.116 -19.947   5.155  0.00  0.00    +0.055 A 
ATOM      7  C   LIG    1       22.902 -20.340   6.486  0.00  0.00    +0.013 A 
ATOM      8  C   LIG    1       23.750 -21.298   7.099  0.00  0.00    +0.010 A 
BRANCH   6   9
ATOM      9  C   LIG    1       22.352 -18.856   4.446  0.00  0.00    +0.417 C 
ATOM     10  F   LIG    1       21.099 -19.259   4.086  0.00  0.00    -0.166 F 
ATOM     11  F   LIG    1       22.959 -18.488   3.279  0.00  0.00    -0.166 F 
ATOM     12  F   LIG    1       22.192 -17.713   5.162  0.00  0.00    -0.166 F 
ENDBRANCH   6   9
ENDBRANCH   1   3
BRANCH   1  13
ATOM     13  C   LIG    1       27.097 -22.109   7.702  0.00  0.00    +0.059 C 
BRANCH  13  14
ATOM     14  C   LIG    1       27.345 -20.589   7.639  0.00  0.00    +0.009 C 
BRANCH  14  15
ATOM     15  C   LIG    1       28.467 -19.980   6.775  0.00  0.00    +0.028 C 
BRANCH  15  16
ATOM     16  C   LIG    1       29.883 -19.842   7.338  0.00  0.00    +0.159 C 
BRANCH  16  18
ATOM     17  C   LIG    1       30.918 -21.399   8.820  0.00  0.00    +0.193 C 
ATOM     18  O   LIG    1       30.030 -20.307   8.671  0.00  0.00    -0.383 OA
ENDBRANCH  16  18
ENDBRANCH  15  16
ENDBRANCH  14  15
ENDBRANCH  13  14
ENDBRANCH   1  13
BRANCH   2  19
ATOM     19  O   LIG    1       24.834 -24.618   6.247  0.00  0.00    -0.392 OA
BRANCH  19  20
ATOM     20  C   LIG    1       25.213 -25.295   5.051  0.00  0.00    +0.277 C 
BRANCH  20  21
ATOM     21  C   LIG    1       25.713 -26.705   5.385  0.00  0.00    +0.121 C 
BRANCH  21  22
ATOM     22  N   LIG    1       27.166 -26.764   5.562  0.00  0.00    -0.327 NA
ATOM     23  H   LIG    1       27.575 -25.838   5.472  0.00  0.00    +0.118 HD
ATOM     24  H   LIG    1       27.573 -27.359   4.845  0.00  0.00    +0.118 HD
ENDBRANCH  21  22
ENDBRANCH  20  21
ENDBRANCH  19  20
ENDBRANCH   2  19
TORSDOF 11
ENDMDL
MODEL 2
REMARK VINA RESULT:      -7.7      3.642      5.517
REMARK  Name = *****
REMARK                            x       y       z     vdW  Elec       q    Type
REMARK                         _______ _______ _______ _____ _____    ______ ____
ROOT
ATOM      1  C   LIG    1       24.721 -21.898   6.957  0.00  0.00    +0.087 C 
ATOM      2  N   LIG    1       24.690 -23.211   6.991  0.00  0.00    -0.089 NA
ENDROOT
BRANCH   1   3
ATOM      3  C   LIG    1       25.970 -21.026   7.042  0.00  0.00    -0.001 A 
ATOM      4  C   LIG    1       26.450 -20.510   5.813  0.00  0.00    +0.010 A 
ATOM      5  C   LIG    1       27.680 -19.876   5.722  0.00  0.00    +0.013 A 
ATOM      6  C   LIG    1       28.469 -19.652   6.843  0.00  0.00    +0.055 A 
ATOM      7  C   LIG    1       27.966 -20.050   8.093  0.00  0.00    +0.013 A 
ATOM      8  C   LIG    1       26.726 -20.732   8.186  0.00  0.00    +0.010 A 
BRANCH   6   9
ATOM      9  C   LIG    1       29.825 -19.029   6.619  0.00  0.00    +0.417 C 
ATOM     10  F   LIG    1       30.080 -18.025   7.508  0.00  0.00    -0.166 F 
ATOM     11  F   LIG    1       29.919 -18.448   5.386  0.00  0.00    -0.166 F 
ATOM     12  F   LIG    1       30.871 -19.890   6.709  0.00  0.00    -0.166 F 
ENDBRANCH   6   9
ENDBRANCH   1   3
BRANCH   1  13
ATOM     13  C   LIG    1       23.345 -21.191   6.865  0.00  0.00    +0.059 C 
BRANCH  13  14
ATOM     14  C   LIG    1       22.661 -20.910   5.512  0.00  0.00    +0.009 C 
BRANCH  14  15
ATOM     15  C   LIG    1       22.747 -19.532   4.825  0.00  0.00    +0.028 C 
BRANCH  15  16
ATOM     16  C   LIG    1       23.768 -19.289   3.712  0.00  0.00    +0.159 C 
BRANCH  16  18
ATOM     17  C   LIG    1       25.669 -17.925   3.251  0.00  0.00    +0.193 C 
ATOM     18  O   LIG    1       24.331 -17.987   3.709  0.00  0.00    -0.383 OA
ENDBRANCH  16  18
ENDBRANCH  15  16
ENDBRANCH  14  15
ENDBRANCH  13  14
ENDBRANCH   1  13
BRANCH   2  19
ATOM     19  O   LIG    1       25.967 -23.770   6.987  0.00  0.00    -0.392 OA
BRANCH  19  20
ATOM     20  C   LIG    1       25.881 -25.119   6.538  0.00  0.00    +0.277 C 
BRANCH  20  21
ATOM     21  C   LIG    1       25.014 -25.197   5.277  0.00  0.00    +0.121 C 
BRANCH  21  22
ATOM     22  N   LIG    1       23.705 -25.805   5.526  0.00  0.00    -0.327 NA
ATOM     23  H   LIG    1       23.244 -25.354   6.311  0.00  0.00    +0.118 HD
ATOM     24  H   LIG    1       23.824 -26.790   5.755  0.00  0.00    +0.118 HD
ENDBRANCH  21  22
ENDBRANCH  20  21
ENDBRANCH  19  20
ENDBRANCH   2  19
TORSDOF 11
ENDMDL
MODEL 3
REMARK VINA RESULT:      -7.6      1.772      4.909
REMARK  Name = *****
REMARK                            x       y       z     vdW  Elec       q    Type
REMARK                         _______ _______ _______ _____ _____    ______ ____
ROOT
ATOM      1  C   LIG    1       25.937 -22.676   7.036  0.00  0.00    +0.087 C 
ATOM      2  N   LIG    1       27.023 -22.253   7.643  0.00  0.00    -0.089 NA
ENDROOT
BRANCH   1   3
ATOM      3  C   LIG    1       24.828 -21.799   6.464  0.00  0.00    -0.001 A 
ATOM      4  C   LIG    1       24.881 -21.565   5.067  0.00  0.00    +0.010 A 
ATOM      5  C   LIG    1       24.060 -20.630   4.455  0.00  0.00    +0.013 A 
ATOM      6  C   LIG    1       23.096 -19.930   5.168  0.00  0.00    +0.055 A 
ATOM      7  C   LIG    1       22.941 -20.225   6.533  0.00  0.00    +0.013 A 
ATOM      8  C   LIG    1       23.804 -21.152   7.171  0.00  0.00    +0.010 A 
BRANCH   6   9
ATOM      9  C   LIG    1       22.314 -18.877   4.421  0.00  0.00    +0.417 C 
ATOM     10  F   LIG    1       21.063 -19.309   4.089  0.00  0.00    -0.166 F 
ATOM     11  F   LIG    1       22.908 -18.551   3.235  0.00  0.00    -0.166 F 
ATOM     12  F   LIG    1       22.146 -17.708   5.091  0.00  0.00    -0.166 F 
ENDBRANCH   6   9
ENDBRANCH   1   3
BRANCH   1  13
ATOM     13  C   LIG    1       25.771 -24.214   6.942  0.00  0.00    +0.059 C 
BRANCH  13  14
ATOM     14  C   LIG    1       24.427 -24.868   6.564  0.00  0.00    +0.009 C 
BRANCH  14  15
ATOM     15  C   LIG    1       24.319 -25.915   5.438  0.00  0.00    +0.028 C 
BRANCH  15  16
ATOM     16  C   LIG    1       25.562 -26.674   4.968  0.00  0.00    +0.159 C 
BRANCH  16  18
ATOM     17  C   LIG    1       24.299 -28.535   5.761  0.00  0.00    +0.193 C 
ATOM     18  O   LIG    1       25.488 -28.080   5.143  0.00  0.00    -0.383 OA
ENDBRANCH  16  18
ENDBRANCH  15  16
ENDBRANCH  14  15
ENDBRANCH  13  14
ENDBRANCH   1  13
BRANCH   2  19
ATOM     19  O   LIG    1       27.140 -20.864   7.610  0.00  0.00    -0.392 OA
BRANCH  19  20
ATOM     20  C   LIG    1       28.521 -20.515   7.570  0.00  0.00    +0.277 C 
BRANCH  20  21
ATOM     21  C   LIG    1       28.811 -19.670   6.325  0.00  0.00    +0.121 C 
BRANCH  21  22
ATOM     22  N   LIG    1       27.967 -20.034   5.184  0.00  0.00    -0.327 NA
ATOM     23  H   LIG    1       27.644 -19.202   4.697  0.00  0.00    +0.118 HD
ATOM     24  H   LIG    1       27.150 -20.543   5.512  0.00  0.00    +0.118 HD
ENDBRANCH  21  22
ENDBRANCH  20  21
ENDBRANCH  19  20
ENDBRANCH   2  19
TORSDOF 11
ENDMDL
MODEL 4
REMARK VINA RESULT:      -7.4      3.999      5.382
REMARK  Name = *****
REMARK                            x       y       z     vdW  Elec       q    Type
REMARK                         _______ _______ _______ _____ _____    ______ ____
ROOT
ATOM      1  C   LIG    1       24.705 -21.627   7.634  0.00  0.00    +0.087 C 
ATOM      2  N   LIG    1       23.838 -20.693   7.314  0.00  0.00    -0.089 NA
ENDROOT
BRANCH   1   3
ATOM      3  C   LIG    1       24.652 -23.089   7.199  0.00  0.00    -0.001 A 
ATOM      4  C   LIG    1       25.895 -23.767   7.153  0.00  0.00    +0.010 A 
ATOM      5  C   LIG    1       26.014 -25.027   6.586  0.00  0.00    +0.013 A 
ATOM      6  C   LIG    1       24.910 -25.716   6.102  0.00  0.00    +0.055 A 
ATOM      7  C   LIG    1       23.647 -25.117   6.240  0.00  0.00    +0.013 A 
ATOM      8  C   LIG    1       23.524 -23.813   6.785  0.00  0.00    +0.010 A 
BRANCH   6   9
ATOM      9  C   LIG    1       25.164 -27.043   5.431  0.00  0.00    +0.417 C 
ATOM     10  F   LIG    1       25.765 -26.895   4.215  0.00  0.00    -0.166 F 
ATOM     11  F   LIG    1       24.003 -27.715   5.178  0.00  0.00    -0.166 F 
ATOM     12  F   LIG    1       25.947 -27.899   6.138  0.00  0.00    -0.166 F 
ENDBRANCH   6   9
ENDBRANCH   1   3
BRANCH   1  13
ATOM     13  C   LIG    1       25.854 -21.190   8.576  0.00  0.00    +0.059 C 
BRANCH  13  14
ATOM     14  C   LIG    1       27.047 -20.351   8.074  0.00  0.00    +0.009 C 
BRANCH  14  15
ATOM     15  C   LIG    1       28.262 -20.996   7.379  0.00  0.00    +0.028 C 
BRANCH  15  16
ATOM     16  C   LIG    1       29.619 -20.289   7.387  0.00  0.00    +0.159 C 
BRANCH  16  18
ATOM     17  C   LIG    1       31.265 -19.524   8.935  0.00  0.00    +0.193 C 
ATOM     18  O   LIG    1       29.895 -19.569   8.578  0.00  0.00    -0.383 OA
ENDBRANCH  16  18
ENDBRANCH  15  16
ENDBRANCH  14  15
ENDBRANCH  13  14
ENDBRANCH   1  13
BRANCH   2  19
ATOM     19  O   LIG    1       22.889 -21.144   6.399  0.00  0.00    -0.392 OA
BRANCH  19  20
ATOM     20  C   LIG    1       22.642 -20.118   5.442  0.00  0.00    +0.277 C 
BRANCH  20  21
ATOM     21  C   LIG    1       23.652 -20.219   4.294  0.00  0.00    +0.121 C 
BRANCH  21  22
ATOM     22  N   LIG    1       24.015 -21.603   3.980  0.00  0.00    -0.327 NA
ATOM     23  H   LIG    1       24.085 -22.157   4.829  0.00  0.00    +0.118 HD
ATOM     24  H   LIG    1       24.922 -21.621   3.517  0.00  0.00    +0.118 HD
ENDBRANCH  21  22
ENDBRANCH  20  21
ENDBRANCH  19  20
ENDBRANCH   2  19
TORSDOF 11
ENDMDL
MODEL 5
REMARK VINA RESULT:      -7.4      1.895      5.141
REMARK  Name = *****
REMARK                            x       y       z     vdW  Elec       q    Type
REMARK                         _______ _______ _______ _____ _____    ______ ____
ROOT
ATOM      1  C   LIG    1       26.337 -22.035   7.606  0.00  0.00    +0.087 C 
ATOM      2  N   LIG    1       27.289 -21.641   8.421  0.00  0.00    -0.089 NA
ENDROOT
BRANCH   1   3
ATOM      3  C   LIG    1       25.458 -21.130   6.748  0.00  0.00    -0.001 A 
ATOM      4  C   LIG    1       24.168 -20.851   7.263  0.00  0.00    +0.010 A 
ATOM      5  C   LIG    1       23.202 -20.213   6.498  0.00  0.00    +0.013 A 
ATOM      6  C   LIG    1       23.475 -19.754   5.216  0.00  0.00    +0.055 A 
ATOM      7  C   LIG    1       24.780 -19.914   4.722  0.00  0.00    +0.013 A 
ATOM      8  C   LIG    1       25.760 -20.598   5.486  0.00  0.00    +0.010 A 
BRANCH   6   9
ATOM      9  C   LIG    1       22.329 -19.150   4.442  0.00  0.00    +0.417 C 
ATOM     10  F   LIG    1       21.229 -19.958   4.442  0.00  0.00    -0.166 F 
ATOM     11  F   LIG    1       22.644 -18.972   3.125  0.00  0.00    -0.166 F 
ATOM     12  F   LIG    1       21.910 -17.939   4.895  0.00  0.00    -0.166 F 
ENDBRANCH   6   9
ENDBRANCH   1   3
BRANCH   1  13
ATOM     13  C   LIG    1       26.073 -23.561   7.562  0.00  0.00    +0.059 C 
BRANCH  13  14
ATOM     14  C   LIG    1       25.289 -24.221   6.411  0.00  0.00    +0.009 C 
BRANCH  14  15
ATOM     15  C   LIG    1       25.534 -25.684   5.990  0.00  0.00    +0.028 C 
BRANCH  15  16
ATOM     16  C   LIG    1       24.352 -26.600   5.665  0.00  0.00    +0.159 C 
BRANCH  16  18
ATOM     17  C   LIG    1       24.184 -28.964   5.939  0.00  0.00    +0.193 C 
ATOM     18  O   LIG    1       24.723 -27.887   5.195  0.00  0.00    -0.383 OA
ENDBRANCH  16  18
ENDBRANCH  15  16
ENDBRANCH  14  15
ENDBRANCH  13  14
ENDBRANCH   1  13
BRANCH   2  19
ATOM     19  O   LIG    1       27.520 -20.269   8.339  0.00  0.00    -0.392 OA
BRANCH  19  20
ATOM     20  C   LIG    1       28.611 -20.035   7.452  0.00  0.00    +0.277 C 
BRANCH  20  21
ATOM     21  C   LIG    1       29.936 -20.132   8.217  0.00  0.00    +0.121 C 
BRANCH  21  22
ATOM     22  N   LIG    1       30.307 -21.513   8.535  0.00  0.00    -0.327 NA
ATOM     23  H   LIG    1       30.739 -21.962   7.732  0.00  0.00    +0.118 HD
ATOM     24  H   LIG    1       29.474 -22.043   8.781  0.00  0.00    +0.118 HD
ENDBRANCH  21  22
ENDBRANCH  20  21
ENDBRANCH  19  20
ENDBRANCH   2  19
TORSDOF 11
ENDMDL
MODEL 6
REMARK VINA RESULT:      -7.3      4.013      6.345
REMARK  Name = *****
REMARK                            x       y       z     vdW  Elec       q    Type
REMARK                         _______ _______ _______ _____ _____    ______ ____
ROOT
ATOM      1  C   LIG    1       24.136 -22.033   6.419  0.00  0.00    +0.087 C 
ATOM      2  N   LIG    1       22.992 -21.533   6.007  0.00  0.00    -0.089 NA
ENDROOT
BRANCH   1   3
ATOM      3  C   LIG    1       25.353 -21.234   6.874  0.00  0.00    -0.001 A 
ATOM      4  C   LIG    1       26.254 -20.842   5.854  0.00  0.00    +0.010 A 
ATOM      5  C   LIG    1       27.493 -20.292   6.149  0.00  0.00    +0.013 A 
ATOM      6  C   LIG    1       27.880 -20.031   7.457  0.00  0.00    +0.055 A 
ATOM      7  C   LIG    1       26.960 -20.301   8.484  0.00  0.00    +0.013 A 
ATOM      8  C   LIG    1       25.708 -20.899   8.189  0.00  0.00    +0.010 A 
BRANCH   6   9
ATOM      9  C   LIG    1       29.279 -19.509   7.671  0.00  0.00    +0.417 C 
ATOM     10  F   LIG    1       29.374 -18.744   8.797  0.00  0.00    -0.166 F 
ATOM     11  F   LIG    1       29.678 -18.694   6.650  0.00  0.00    -0.166 F 
ATOM     12  F   LIG    1       30.235 -20.467   7.782  0.00  0.00    -0.166 F 
ENDBRANCH   6   9
ENDBRANCH   1   3
BRANCH   1  13
ATOM     13  C   LIG    1       24.248 -23.578   6.389  0.00  0.00    +0.059 C 
BRANCH  13  14
ATOM     14  C   LIG    1       25.493 -24.317   6.918  0.00  0.00    +0.009 C 
BRANCH  14  15
ATOM     15  C   LIG    1       25.815 -25.769   6.511  0.00  0.00    +0.028 C 
BRANCH  15  16
ATOM     16  C   LIG    1       25.558 -26.242   5.079  0.00  0.00    +0.159 C 
BRANCH  16  18
ATOM     17  C   LIG    1       24.381 -28.229   5.677  0.00  0.00    +0.193 C 
ATOM     18  O   LIG    1       25.443 -27.650   4.942  0.00  0.00    -0.383 OA
ENDBRANCH  16  18
ENDBRANCH  15  16
ENDBRANCH  14  15
ENDBRANCH  13  14
ENDBRANCH   1  13
BRANCH   2  19
ATOM     19  O   LIG    1       22.941 -20.147   6.146  0.00  0.00    -0.392 OA
BRANCH  19  20
ATOM     20  C   LIG    1       22.352 -19.585   4.976  0.00  0.00    +0.277 C 
BRANCH  20  21
ATOM     21  C   LIG    1       23.447 -19.166   3.990  0.00  0.00    +0.121 C 
BRANCH  21  22
ATOM     22  N   LIG    1       24.048 -20.305   3.291  0.00  0.00    -0.327 NA
ATOM     23  H   LIG    1       24.856 -20.008   2.751  0.00  0.00    +0.118 HD
ATOM     24  H   LIG    1       23.370 -20.706   2.647  0.00  0.00    +0.118 HD
ENDBRANCH  21  22
ENDBRANCH  20  21
ENDBRANCH  19  20
ENDBRANCH   2  19
TORSDOF 11
ENDMDL
MODEL 7
REMARK VINA RESULT:      -7.1      4.164      6.311
REMARK  Name = *****
REMARK                            x       y       z     vdW  Elec       q    Type
REMARK                         _______ _______ _______ _____ _____    ______ ____
ROOT
ATOM      1  C   LIG    1       24.632 -21.244   7.207  0.00  0.00    +0.087 C 
ATOM      2  N   LIG    1       25.685 -20.533   7.542  0.00  0.00    -0.089 NA
ENDROOT
BRANCH   1   3
ATOM      3  C   LIG    1       24.593 -22.757   7.019  0.00  0.00    -0.001 A 
ATOM      4  C   LIG    1       25.849 -23.412   7.001  0.00  0.00    +0.010 A 
ATOM      5  C   LIG    1       25.968 -24.746   6.640  0.00  0.00    +0.013 A 
ATOM      6  C   LIG    1       24.855 -25.524   6.349  0.00  0.00    +0.055 A 
ATOM      7  C   LIG    1       23.587 -24.933   6.471  0.00  0.00    +0.013 A 
ATOM      8  C   LIG    1       23.462 -23.560   6.804  0.00  0.00    +0.010 A 
BRANCH   6   9
ATOM      9  C   LIG    1       25.105 -26.939   5.887  0.00  0.00    +0.417 C 
ATOM     10  F   LIG    1       26.029 -27.575   6.664  0.00  0.00    -0.166 F 
ATOM     11  F   LIG    1       25.614 -26.977   4.620  0.00  0.00    -0.166 F 
ATOM     12  F   LIG    1       24.006 -27.737   5.875  0.00  0.00    -0.166 F 
ENDBRANCH   6   9
ENDBRANCH   1   3
BRANCH   1  13
ATOM     13  C   LIG    1       23.332 -20.443   6.942  0.00  0.00    +0.059 C 
BRANCH  13  14
ATOM     14  C   LIG    1       22.655 -20.420   5.557  0.00  0.00    +0.009 C 
BRANCH  14  15
ATOM     15  C   LIG    1       22.650 -19.157   4.673  0.00  0.00    +0.028 C 
BRANCH  15  16
ATOM     16  C   LIG    1       23.642 -19.023   3.516  0.00  0.00    +0.159 C 
BRANCH  16  18
ATOM     17  C   LIG    1       25.766 -17.956   3.311  0.00  0.00    +0.193 C 
ATOM     18  O   LIG    1       25.003 -18.985   3.914  0.00  0.00    -0.383 OA
ENDBRANCH  16  18
ENDBRANCH  15  16
ENDBRANCH  14  15
ENDBRANCH  13  14
ENDBRANCH   1  13
BRANCH   2  19
ATOM     19  O   LIG    1       26.787 -21.332   7.845  0.00  0.00    -0.392 OA
BRANCH  19  20
ATOM     20  C   LIG    1       27.967 -20.536   7.783  0.00  0.00    +0.277 C 
BRANCH  20  21
ATOM     21  C   LIG    1       28.596 -20.641   6.390  0.00  0.00    +0.121 C 
BRANCH  21  22
ATOM     22  N   LIG    1       27.736 -20.094   5.337  0.00  0.00    -0.327 NA
ATOM     23  H   LIG    1       28.240 -19.405   4.785  0.00  0.00    +0.118 HD
ATOM     24  H   LIG    1       26.933 -19.632   5.758  0.00  0.00    +0.118 HD
ENDBRANCH  21  22
ENDBRANCH  20  21
ENDBRANCH  19  20
ENDBRANCH   2  19
TORSDOF 11
ENDMDL
MODEL 8
REMARK VINA RESULT:      -7.0      2.125      5.397
REMARK  Name = *****
REMARK                            x       y       z     vdW  Elec       q    Type
REMARK                         _______ _______ _______ _____ _____    ______ ____
ROOT
ATOM      1  C   LIG    1       25.285 -23.372   6.138  0.00  0.00    +0.087 C 
ATOM      2  N   LIG    1       26.192 -23.366   7.090  0.00  0.00    -0.089 NA
ENDROOT
BRANCH   1   3
ATOM      3  C   LIG    1       24.376 -22.208   5.757  0.00  0.00    -0.001 A 
ATOM      4  C   LIG    1       24.598 -21.641   4.478  0.00  0.00    +0.010 A 
ATOM      5  C   LIG    1       23.985 -20.460   4.089  0.00  0.00    +0.013 A 
ATOM      6  C   LIG    1       23.067 -19.812   4.907  0.00  0.00    +0.055 A 
ATOM      7  C   LIG    1       22.740 -20.412   6.134  0.00  0.00    +0.013 A 
ATOM      8  C   LIG    1       23.393 -21.600   6.552  0.00  0.00    +0.010 A 
BRANCH   6   9
ATOM      9  C   LIG    1       22.523 -18.492   4.421  0.00  0.00    +0.417 C 
ATOM     10  F   LIG    1       22.123 -17.693   5.453  0.00  0.00    -0.166 F 
ATOM     11  F   LIG    1       21.413 -18.655   3.643  0.00  0.00    -0.166 F 
ATOM     12  F   LIG    1       23.392 -17.752   3.685  0.00  0.00    -0.166 F 
ENDBRANCH   6   9
ENDBRANCH   1   3
BRANCH   1  13
ATOM     13  C   LIG    1       25.115 -24.709   5.376  0.00  0.00    +0.059 C 
BRANCH  13  14
ATOM     14  C   LIG    1       24.126 -25.796   5.843  0.00  0.00    +0.009 C 
BRANCH  14  15
ATOM     15  C   LIG    1       24.600 -27.197   6.277  0.00  0.00    +0.028 C 
BRANCH  15  16
ATOM     16  C   LIG    1       24.376 -28.403   5.362  0.00  0.00    +0.159 C 
BRANCH  16  18
ATOM     17  C   LIG    1       24.403 -30.363   6.721  0.00  0.00    +0.193 C 
ATOM     18  O   LIG    1       23.632 -29.456   5.955  0.00  0.00    -0.383 OA
ENDBRANCH  16  18
ENDBRANCH  15  16
ENDBRANCH  14  15
ENDBRANCH  13  14
ENDBRANCH   1  13
BRANCH   2  19
ATOM     19  O   LIG    1       26.343 -22.107   7.668  0.00  0.00    -0.392 OA
BRANCH  19  20
ATOM     20  C   LIG    1       27.399 -21.416   7.005  0.00  0.00    +0.277 C 
BRANCH  20  21
ATOM     21  C   LIG    1       28.634 -21.358   7.910  0.00  0.00    +0.121 C 
BRANCH  21  22
ATOM     22  N   LIG    1       29.074 -19.987   8.181  0.00  0.00    -0.327 NA
ATOM     23  H   LIG    1       28.369 -19.319   7.881  0.00  0.00    +0.118 HD
ATOM     24  H   LIG    1       29.929 -19.794   7.663  0.00  0.00    +0.118 HD
ENDBRANCH  21  22
ENDBRANCH  20  21
ENDBRANCH  19  20
ENDBRANCH   2  19
TORSDOF 11
ENDMDL
MODEL 9
REMARK VINA RESULT:      -6.8      3.904      6.048
REMARK  Name = *****
REMARK                            x       y       z     vdW  Elec       q    Type
REMARK                         _______ _______ _______ _____ _____    ______ ____
ROOT
ATOM      1  C   LIG    1       23.971 -21.177   6.748  0.00  0.00    +0.087 C 
ATOM      2  N   LIG    1       23.448 -22.322   7.126  0.00  0.00    -0.089 NA
ENDROOT
BRANCH   1   3
ATOM      3  C   LIG    1       25.459 -20.843   6.694  0.00  0.00    -0.001 A 
ATOM      4  C   LIG    1       26.133 -20.813   7.940  0.00  0.00    +0.010 A 
ATOM      5  C   LIG    1       27.428 -20.330   8.054  0.00  0.00    +0.013 A 
ATOM      6  C   LIG    1       28.154 -19.922   6.942  0.00  0.00    +0.055 A 
ATOM      7  C   LIG    1       27.552 -20.049   5.679  0.00  0.00    +0.013 A 
ATOM      8  C   LIG    1       26.215 -20.507   5.561  0.00  0.00    +0.010 A 
BRANCH   6   9
ATOM      9  C   LIG    1       29.522 -19.337   7.189  0.00  0.00    +0.417 C 
ATOM     10  F   LIG    1       30.468 -20.304   7.365  0.00  0.00    -0.166 F 
ATOM     11  F   LIG    1       29.557 -18.590   8.332  0.00  0.00    -0.166 F 
ATOM     12  F   LIG    1       29.986 -18.530   6.199  0.00  0.00    -0.166 F 
ENDBRANCH   6   9
ENDBRANCH   1   3
BRANCH   1  13
ATOM     13  C   LIG    1       22.962 -20.065   6.369  0.00  0.00    +0.059 C 
BRANCH  13  14
ATOM     14  C   LIG    1       22.509 -19.835   4.913  0.00  0.00    +0.009 C 
BRANCH  14  15
ATOM     15  C   LIG    1       22.043 -18.453   4.412  0.00  0.00    +0.028 C 
BRANCH  15  16
ATOM     16  C   LIG    1       23.052 -17.316   4.242  0.00  0.00    +0.159 C 
BRANCH  16  18
ATOM     17  C   LIG    1       23.431 -14.963   4.343  0.00  0.00    +0.193 C 
ATOM     18  O   LIG    1       22.575 -16.046   4.658  0.00  0.00    -0.383 OA
ENDBRANCH  16  18
ENDBRANCH  15  16
ENDBRANCH  14  15
ENDBRANCH  13  14
ENDBRANCH   1  13
BRANCH   2  19
ATOM     19  O   LIG    1       24.419 -23.292   7.367  0.00  0.00    -0.392 OA
BRANCH  19  20
ATOM     20  C   LIG    1       24.089 -24.470   6.638  0.00  0.00    +0.277 C 
BRANCH  20  21
ATOM     21  C   LIG    1       25.053 -24.644   5.460  0.00  0.00    +0.121 C 
BRANCH  21  22
ATOM     22  N   LIG    1       24.775 -23.720   4.357  0.00  0.00    -0.327 NA
ATOM     23  H   LIG    1       25.350 -23.943   3.550  0.00  0.00    +0.118 HD
ATOM     24  H   LIG    1       24.992 -22.769   4.646  0.00  0.00    +0.118 HD
ENDBRANCH  21  22
ENDBRANCH  20  21
ENDBRANCH  19  20
ENDBRANCH   2  19
TORSDOF 11
ENDMDL
