MODEL 1
REMARK VINA RESULT:       1.8      0.000      0.000
REMARK  Name = *****
REMARK                            x       y       z     vdW  Elec       q    Type
REMARK                         _______ _______ _______ _____ _____    ______ ____
ROOT
ATOM      1  C   LIG    1       23.513 -18.076   3.480  0.00  0.00    +0.097 C 
ENDROOT
BRANCH   1   5
ATOM      2  C   LIG    1       24.099 -13.783   3.930  0.00  0.00    +0.132 A 
ATOM      3  C   LIG    1       25.033 -14.540   3.222  0.00  0.00    +0.046 A 
ATOM      4  C   LIG    1       24.850 -15.925   3.095  0.00  0.00    +0.008 A 
ATOM      5  C   LIG    1       23.737 -16.567   3.674  0.00  0.00    -0.034 A 
ATOM      6  C   LIG    1       22.830 -15.777   4.402  0.00  0.00    +0.008 A 
ATOM      7  C   LIG    1       23.008 -14.399   4.530  0.00  0.00    +0.046 A 
BRANCH   2   8
ATOM      8  O   LIG    1       24.392 -12.419   4.128  0.00  0.00    -0.426 OA
BRANCH   8  10
ATOM      9  C   LIG    1       26.159 -12.191   5.667  0.00  0.00    +0.136 C 
ATOM     10  C   LIG    1       24.695 -11.952   5.415  0.00  0.00    +0.309 C 
ATOM     11  O   LIG    1       23.937 -11.447   6.214  0.00  0.00    -0.251 OA
ENDBRANCH   8  10
ENDBRANCH   2   8
ENDBRANCH   1   5
BRANCH   1  12
ATOM     12  C   LIG    1       22.040 -18.525   3.593  0.00  0.00    +0.053 A 
ATOM     13  N   LIG    1       21.768 -19.758   4.096  0.00  0.00    -0.259 NA
ATOM     14  C   LIG    1       20.480 -20.159   4.153  0.00  0.00    +0.111 A 
ATOM     15  C   LIG    1       19.417 -19.394   3.713  0.00  0.00    +0.020 A 
ATOM     16  C   LIG    1       19.693 -18.142   3.183  0.00  0.00    +0.003 A 
ATOM     17  C   LIG    1       21.016 -17.702   3.110  0.00  0.00    +0.024 A 
ENDBRANCH   1  12
BRANCH   1  18
ATOM     18  C   LIG    1       24.467 -18.946   4.313  0.00  0.00    -0.034 A 
ATOM     19  C   LIG    1       25.841 -19.043   4.020  0.00  0.00    +0.008 A 
ATOM     20  C   LIG    1       26.701 -19.817   4.814  0.00  0.00    +0.046 A 
ATOM     21  C   LIG    1       26.188 -20.508   5.911  0.00  0.00    +0.132 A 
ATOM     22  C   LIG    1       24.836 -20.403   6.225  0.00  0.00    +0.046 A 
ATOM     23  C   LIG    1       23.976 -19.662   5.415  0.00  0.00    +0.008 A 
BRANCH  21  24
ATOM     24  O   LIG    1       27.086 -21.255   6.706  0.00  0.00    -0.426 OA
BRANCH  24  25
ATOM     25  C   LIG    1       28.421 -20.856   6.818  0.00  0.00    +0.309 C 
ATOM     26  O   LIG    1       29.393 -21.566   7.057  0.00  0.00    -0.251 OA
ATOM     27  C   LIG    1       28.536 -19.378   6.636  0.00  0.00    +0.136 C 
ENDBRANCH  24  25
ENDBRANCH  21  24
ENDBRANCH   1  18
TORSDOF 7
ENDMDL
