MODEL 1
REMARK VINA RESULT:      -8.1      0.000      0.000
REMARK  Name = *****
REMARK                            x       y       z     vdW  Elec       q    Type
REMARK                         _______ _______ _______ _____ _____    ______ ____
ROOT
ATOM      1  C   LIG    1       30.284 -21.707   8.835  0.00  0.00    +0.044 C 
ATOM      2  C   LIG    1       29.282 -21.157   7.850  0.00  0.00    -0.046 A 
ATOM      3  C   LIG    1       29.570 -20.048   7.023  0.00  0.00    -0.027 A 
ATOM      4  C   LIG    1       28.577 -19.604   6.116  0.00  0.00    -0.005 A 
ATOM      5  C   LIG    1       28.821 -18.454   5.167  0.00  0.00    +0.048 C 
ATOM      6  C   LIG    1       27.312 -20.242   6.105  0.00  0.00    +0.124 A 
ATOM      7  C   LIG    1       27.014 -21.372   6.884  0.00  0.00    -0.000 A 
ATOM      8  C   LIG    1       28.031 -21.800   7.755  0.00  0.00    +0.011 A 
ENDROOT
BRANCH   7   9
ATOM      9  C   LIG    1       25.665 -22.123   6.789  0.00  0.00    -0.009 C 
ATOM     10  C   LIG    1       24.594 -21.403   7.642  0.00  0.00    +0.016 C 
ATOM     11  C   LIG    1       25.789 -23.588   7.264  0.00  0.00    +0.016 C 
ATOM     12  C   LIG    1       25.102 -22.189   5.346  0.00  0.00    +0.016 C 
ENDBRANCH   7   9
BRANCH   6  13
ATOM     13  O   LIG    1       26.331 -19.732   5.295  0.00  0.00    -0.506 OA
ATOM     14  H   LIG    1       25.817 -20.487   4.961  0.00  0.00    +0.292 HD
ENDBRANCH   6  13
BRANCH   3  15
ATOM     15  C   LIG    1       30.933 -19.379   7.087  0.00  0.00    +0.163 C 
BRANCH  15  16
ATOM     16  C   LIG    1       31.095 -18.338   8.178  0.00  0.00    +0.285 C 
ATOM     17  N   LIG    1       30.133 -18.071   9.125  0.00  0.00    -0.234 N 
ATOM     18  H   LIG    1       29.165 -18.278   8.911  0.00  0.00    +0.291 HD
ATOM     19  C   LIG    1       30.472 -16.826   9.765  0.00  0.00    +0.272 C 
ATOM     20  C   LIG    1       31.964 -16.734   9.433  0.00  0.00    +0.333 C 
ATOM     21  N   LIG    1       32.179 -17.609   8.241  0.00  0.00    -0.084 NA
ENDBRANCH  15  16
ENDBRANCH   3  15
TORSDOF 4
ENDMDL
MODEL 2
REMARK VINA RESULT:      -8.0      1.134      2.438
REMARK  Name = *****
REMARK                            x       y       z     vdW  Elec       q    Type
REMARK                         _______ _______ _______ _____ _____    ______ ____
ROOT
ATOM      1  C   LIG    1       29.213 -18.096   5.035  0.00  0.00    +0.044 C 
ATOM      2  C   LIG    1       28.673 -19.255   5.836  0.00  0.00    -0.046 A 
ATOM      3  C   LIG    1       29.453 -19.936   6.797  0.00  0.00    -0.027 A 
ATOM      4  C   LIG    1       28.863 -21.005   7.514  0.00  0.00    -0.005 A 
ATOM      5  C   LIG    1       29.615 -21.755   8.589  0.00  0.00    +0.048 C 
ATOM      6  C   LIG    1       27.536 -21.397   7.210  0.00  0.00    +0.124 A 
ATOM      7  C   LIG    1       26.724 -20.711   6.291  0.00  0.00    -0.000 A 
ATOM      8  C   LIG    1       27.334 -19.640   5.616  0.00  0.00    +0.011 A 
ENDROOT
BRANCH   7   9
ATOM      9  C   LIG    1       25.244 -21.084   6.041  0.00  0.00    -0.009 C 
ATOM     10  C   LIG    1       24.690 -20.288   4.836  0.00  0.00    +0.016 C 
ATOM     11  C   LIG    1       24.363 -20.805   7.280  0.00  0.00    +0.016 C 
ATOM     12  C   LIG    1       25.040 -22.584   5.702  0.00  0.00    +0.016 C 
ENDBRANCH   7   9
BRANCH   6  13
ATOM     13  O   LIG    1       27.019 -22.499   7.841  0.00  0.00    -0.506 OA
ATOM     14  H   LIG    1       27.762 -22.954   8.272  0.00  0.00    +0.292 HD
ENDBRANCH   6  13
BRANCH   3  15
ATOM     15  C   LIG    1       30.881 -19.496   7.074  0.00  0.00    +0.163 C 
BRANCH  15  16
ATOM     16  C   LIG    1       31.036 -18.442   8.154  0.00  0.00    +0.285 C 
ATOM     17  N   LIG    1       30.081 -18.184   9.111  0.00  0.00    -0.234 N 
ATOM     18  H   LIG    1       29.115 -18.412   8.911  0.00  0.00    +0.291 HD
ATOM     19  C   LIG    1       30.404 -16.928   9.737  0.00  0.00    +0.272 C 
ATOM     20  C   LIG    1       31.890 -16.811   9.385  0.00  0.00    +0.333 C 
ATOM     21  N   LIG    1       32.107 -17.692   8.198  0.00  0.00    -0.084 NA
ENDBRANCH  15  16
ENDBRANCH   3  15
TORSDOF 4
ENDMDL
MODEL 3
REMARK VINA RESULT:      -7.6      3.316      6.473
REMARK  Name = *****
REMARK                            x       y       z     vdW  Elec       q    Type
REMARK                         _______ _______ _______ _____ _____    ______ ____
ROOT
ATOM      1  C   LIG    1       25.788 -22.410   8.791  0.00  0.00    +0.044 C 
ATOM      2  C   LIG    1       26.428 -21.500   7.772  0.00  0.00    -0.046 A 
ATOM      3  C   LIG    1       25.784 -21.151   6.563  0.00  0.00    -0.027 A 
ATOM      4  C   LIG    1       26.451 -20.280   5.668  0.00  0.00    -0.005 A 
ATOM      5  C   LIG    1       25.813 -19.823   4.377  0.00  0.00    +0.048 C 
ATOM      6  C   LIG    1       27.759 -19.832   5.979  0.00  0.00    +0.124 A 
ATOM      7  C   LIG    1       28.404 -20.128   7.191  0.00  0.00    -0.000 A 
ATOM      8  C   LIG    1       27.703 -20.975   8.066  0.00  0.00    +0.011 A 
ENDROOT
BRANCH   7   9
ATOM      9  C   LIG    1       29.791 -19.551   7.564  0.00  0.00    -0.009 C 
ATOM     10  C   LIG    1       30.625 -20.615   8.315  0.00  0.00    +0.016 C 
ATOM     11  C   LIG    1       29.668 -18.288   8.445  0.00  0.00    +0.016 C 
ATOM     12  C   LIG    1       30.630 -19.131   6.330  0.00  0.00    +0.016 C 
ENDBRANCH   7   9
BRANCH   6  13
ATOM     13  O   LIG    1       28.427 -19.075   5.052  0.00  0.00    -0.506 OA
ATOM     14  H   LIG    1       29.072 -18.534   5.539  0.00  0.00    +0.292 HD
ENDBRANCH   6  13
BRANCH   3  15
ATOM     15  C   LIG    1       24.389 -21.674   6.261  0.00  0.00    +0.163 C 
BRANCH  15  16
ATOM     16  C   LIG    1       24.304 -23.159   5.965  0.00  0.00    +0.285 C 
ATOM     17  N   LIG    1       23.367 -23.996   6.527  0.00  0.00    -0.234 N 
ATOM     18  H   LIG    1       22.956 -23.742   7.417  0.00  0.00    +0.291 HD
ATOM     19  C   LIG    1       23.787 -25.354   6.296  0.00  0.00    +0.272 C 
ATOM     20  C   LIG    1       24.747 -25.157   5.119  0.00  0.00    +0.333 C 
ATOM     21  N   LIG    1       25.167 -23.723   5.161  0.00  0.00    -0.084 NA
ENDBRANCH  15  16
ENDBRANCH   3  15
TORSDOF 4
ENDMDL
MODEL 4
REMARK VINA RESULT:      -7.5      1.896      3.354
REMARK  Name = *****
REMARK                            x       y       z     vdW  Elec       q    Type
REMARK                         _______ _______ _______ _____ _____    ______ ____
ROOT
ATOM      1  C   LIG    1       29.213 -19.169   5.383  0.00  0.00    +0.044 C 
ATOM      2  C   LIG    1       27.975 -19.937   5.776  0.00  0.00    -0.046 A 
ATOM      3  C   LIG    1       27.969 -20.861   6.845  0.00  0.00    -0.027 A 
ATOM      4  C   LIG    1       26.760 -21.529   7.156  0.00  0.00    -0.005 A 
ATOM      5  C   LIG    1       26.659 -22.497   8.312  0.00  0.00    +0.048 C 
ATOM      6  C   LIG    1       25.614 -21.299   6.356  0.00  0.00    +0.124 A 
ATOM      7  C   LIG    1       25.580 -20.356   5.315  0.00  0.00    -0.000 A 
ATOM      8  C   LIG    1       26.791 -19.693   5.050  0.00  0.00    +0.011 A 
ENDROOT
BRANCH   7   9
ATOM      9  C   LIG    1       24.295 -20.039   4.513  0.00  0.00    -0.009 C 
ATOM     10  C   LIG    1       23.958 -21.211   3.562  0.00  0.00    +0.016 C 
ATOM     11  C   LIG    1       24.440 -18.741   3.687  0.00  0.00    +0.016 C 
ATOM     12  C   LIG    1       23.048 -19.835   5.412  0.00  0.00    +0.016 C 
ENDBRANCH   7   9
BRANCH   6  13
ATOM     13  O   LIG    1       24.483 -22.033   6.607  0.00  0.00    -0.506 OA
ATOM     14  H   LIG    1       23.823 -21.775   5.942  0.00  0.00    +0.292 HD
ENDBRANCH   6  13
BRANCH   3  15
ATOM     15  C   LIG    1       29.229 -21.093   7.663  0.00  0.00    +0.163 C 
BRANCH  15  16
ATOM     16  C   LIG    1       29.914 -19.837   8.169  0.00  0.00    +0.285 C 
ATOM     17  N   LIG    1       31.240 -19.547   7.942  0.00  0.00    -0.234 N 
ATOM     18  H   LIG    1       31.883 -20.309   7.763  0.00  0.00    +0.291 HD
ATOM     19  C   LIG    1       31.622 -18.483   8.833  0.00  0.00    +0.272 C 
ATOM     20  C   LIG    1       30.251 -17.894   9.176  0.00  0.00    +0.333 C 
ATOM     21  N   LIG    1       29.254 -18.971   8.893  0.00  0.00    -0.084 NA
ENDBRANCH  15  16
ENDBRANCH   3  15
TORSDOF 4
ENDMDL
MODEL 5
REMARK VINA RESULT:      -7.4      1.812      2.796
REMARK  Name = *****
REMARK                            x       y       z     vdW  Elec       q    Type
REMARK                         _______ _______ _______ _____ _____    ______ ____
ROOT
ATOM      1  C   LIG    1       26.407 -22.397   8.418  0.00  0.00    +0.044 C 
ATOM      2  C   LIG    1       26.521 -21.452   7.248  0.00  0.00    -0.046 A 
ATOM      3  C   LIG    1       27.744 -20.842   6.888  0.00  0.00    -0.027 A 
ATOM      4  C   LIG    1       27.767 -19.978   5.767  0.00  0.00    -0.005 A 
ATOM      5  C   LIG    1       29.042 -19.322   5.291  0.00  0.00    +0.048 C 
ATOM      6  C   LIG    1       26.560 -19.705   5.077  0.00  0.00    +0.124 A 
ATOM      7  C   LIG    1       25.340 -20.330   5.385  0.00  0.00    -0.000 A 
ATOM      8  C   LIG    1       25.360 -21.200   6.489  0.00  0.00    +0.011 A 
ENDROOT
BRANCH   7   9
ATOM      9  C   LIG    1       24.050 -20.103   4.561  0.00  0.00    -0.009 C 
ATOM     10  C   LIG    1       22.806 -20.252   5.467  0.00  0.00    +0.016 C 
ATOM     11  C   LIG    1       23.940 -21.095   3.381  0.00  0.00    +0.016 C 
ATOM     12  C   LIG    1       23.966 -18.686   3.935  0.00  0.00    +0.016 C 
ENDBRANCH   7   9
BRANCH   6  13
ATOM     13  O   LIG    1       26.583 -18.787   4.059  0.00  0.00    -0.506 OA
ATOM     14  H   LIG    1       26.496 -17.909   4.467  0.00  0.00    +0.292 HD
ENDBRANCH   6  13
BRANCH   3  15
ATOM     15  C   LIG    1       29.010 -21.146   7.673  0.00  0.00    +0.163 C 
BRANCH  15  16
ATOM     16  C   LIG    1       29.797 -19.933   8.130  0.00  0.00    +0.285 C 
ATOM     17  N   LIG    1       31.130 -19.737   7.845  0.00  0.00    -0.234 N 
ATOM     18  H   LIG    1       31.713 -20.543   7.656  0.00  0.00    +0.291 HD
ATOM     19  C   LIG    1       31.619 -18.687   8.702  0.00  0.00    +0.272 C 
ATOM     20  C   LIG    1       30.305 -18.001   9.087  0.00  0.00    +0.333 C 
ATOM     21  N   LIG    1       29.227 -19.012   8.862  0.00  0.00    -0.084 NA
ENDBRANCH  15  16
ENDBRANCH   3  15
TORSDOF 4
ENDMDL
MODEL 6
REMARK VINA RESULT:      -7.3      3.544      6.962
REMARK  Name = *****
REMARK                            x       y       z     vdW  Elec       q    Type
REMARK                         _______ _______ _______ _____ _____    ______ ____
ROOT
ATOM      1  C   LIG    1       25.321 -20.035   4.124  0.00  0.00    +0.044 C 
ATOM      2  C   LIG    1       26.068 -20.381   5.388  0.00  0.00    -0.046 A 
ATOM      3  C   LIG    1       25.572 -21.314   6.326  0.00  0.00    -0.027 A 
ATOM      4  C   LIG    1       26.344 -21.590   7.480  0.00  0.00    -0.005 A 
ATOM      5  C   LIG    1       25.905 -22.607   8.507  0.00  0.00    +0.048 C 
ATOM      6  C   LIG    1       27.556 -20.887   7.689  0.00  0.00    +0.124 A 
ATOM      7  C   LIG    1       28.094 -19.987   6.754  0.00  0.00    -0.000 A 
ATOM      8  C   LIG    1       27.312 -19.755   5.609  0.00  0.00    +0.011 A 
ENDROOT
BRANCH   7   9
ATOM      9  C   LIG    1       29.467 -19.301   6.946  0.00  0.00    -0.009 C 
ATOM     10  C   LIG    1       29.833 -18.480   5.687  0.00  0.00    +0.016 C 
ATOM     11  C   LIG    1       30.588 -20.327   7.225  0.00  0.00    +0.016 C 
ATOM     12  C   LIG    1       29.493 -18.307   8.136  0.00  0.00    +0.016 C 
ENDBRANCH   7   9
BRANCH   6  13
ATOM     13  O   LIG    1       28.236 -21.092   8.862  0.00  0.00    -0.506 OA
ATOM     14  H   LIG    1       29.097 -20.649   8.772  0.00  0.00    +0.292 HD
ENDBRANCH   6  13
BRANCH   3  15
ATOM     15  C   LIG    1       24.255 -22.028   6.070  0.00  0.00    +0.163 C 
BRANCH  15  16
ATOM     16  C   LIG    1       24.357 -23.530   5.884  0.00  0.00    +0.285 C 
ATOM     17  N   LIG    1       25.178 -24.129   4.957  0.00  0.00    -0.234 N 
ATOM     18  H   LIG    1       25.449 -23.606   4.133  0.00  0.00    +0.291 HD
ATOM     19  C   LIG    1       24.774 -25.506   4.827  0.00  0.00    +0.272 C 
ATOM     20  C   LIG    1       24.015 -25.703   6.142  0.00  0.00    +0.333 C 
ATOM     21  N   LIG    1       23.620 -24.337   6.603  0.00  0.00    -0.084 NA
ENDBRANCH  15  16
ENDBRANCH   3  15
TORSDOF 4
ENDMDL
MODEL 7
REMARK VINA RESULT:      -7.0      4.568      6.671
REMARK  Name = *****
REMARK                            x       y       z     vdW  Elec       q    Type
REMARK                         _______ _______ _______ _____ _____    ______ ____
ROOT
ATOM      1  C   LIG    1       27.077 -21.857   7.213  0.00  0.00    +0.044 C 
ATOM      2  C   LIG    1       26.007 -22.885   6.941  0.00  0.00    -0.046 A 
ATOM      3  C   LIG    1       24.635 -22.551   6.894  0.00  0.00    -0.027 A 
ATOM      4  C   LIG    1       23.697 -23.576   6.619  0.00  0.00    -0.005 A 
ATOM      5  C   LIG    1       22.217 -23.293   6.507  0.00  0.00    +0.048 C 
ATOM      6  C   LIG    1       24.152 -24.908   6.458  0.00  0.00    +0.124 A 
ATOM      7  C   LIG    1       25.511 -25.261   6.458  0.00  0.00    -0.000 A 
ATOM      8  C   LIG    1       26.415 -24.215   6.709  0.00  0.00    +0.011 A 
ENDROOT
BRANCH   7   9
ATOM      9  C   LIG    1       26.002 -26.702   6.180  0.00  0.00    -0.009 C 
ATOM     10  C   LIG    1       25.950 -27.542   7.478  0.00  0.00    +0.016 C 
ATOM     11  C   LIG    1       27.443 -26.720   5.623  0.00  0.00    +0.016 C 
ATOM     12  C   LIG    1       25.133 -27.454   5.140  0.00  0.00    +0.016 C 
ENDBRANCH   7   9
BRANCH   6  13
ATOM     13  O   LIG    1       23.220 -25.901   6.297  0.00  0.00    -0.506 OA
ATOM     14  H   LIG    1       22.448 -25.657   6.835  0.00  0.00    +0.292 HD
ENDBRANCH   6  13
BRANCH   3  15
ATOM     15  C   LIG    1       24.191 -21.111   7.095  0.00  0.00    +0.163 C 
BRANCH  15  16
ATOM     16  C   LIG    1       23.802 -20.370   5.830  0.00  0.00    +0.285 C 
ATOM     17  N   LIG    1       24.583 -20.331   4.698  0.00  0.00    -0.234 N 
ATOM     18  H   LIG    1       25.582 -20.469   4.789  0.00  0.00    +0.291 HD
ATOM     19  C   LIG    1       24.081 -19.285   3.845  0.00  0.00    +0.272 C 
ATOM     20  C   LIG    1       22.659 -19.131   4.394  0.00  0.00    +0.333 C 
ATOM     21  N   LIG    1       22.686 -19.691   5.779  0.00  0.00    -0.084 NA
ENDBRANCH  15  16
ENDBRANCH   3  15
TORSDOF 4
ENDMDL
MODEL 8
REMARK VINA RESULT:      -6.9      4.631      6.818
REMARK  Name = *****
REMARK                            x       y       z     vdW  Elec       q    Type
REMARK                         _______ _______ _______ _____ _____    ______ ____
ROOT
ATOM      1  C   LIG    1       21.806 -23.229   6.665  0.00  0.00    +0.044 C 
ATOM      2  C   LIG    1       23.280 -23.550   6.626  0.00  0.00    -0.046 A 
ATOM      3  C   LIG    1       24.272 -22.556   6.777  0.00  0.00    -0.027 A 
ATOM      4  C   LIG    1       25.633 -22.945   6.742  0.00  0.00    -0.005 A 
ATOM      5  C   LIG    1       26.752 -21.950   6.940  0.00  0.00    +0.048 C 
ATOM      6  C   LIG    1       25.960 -24.303   6.501  0.00  0.00    +0.124 A 
ATOM      7  C   LIG    1       24.995 -25.318   6.391  0.00  0.00    -0.000 A 
ATOM      8  C   LIG    1       23.655 -24.898   6.455  0.00  0.00    +0.011 A 
ENDROOT
BRANCH   7   9
ATOM      9  C   LIG    1       25.366 -26.811   6.229  0.00  0.00    -0.009 C 
ATOM     10  C   LIG    1       26.135 -27.307   7.476  0.00  0.00    +0.016 C 
ATOM     11  C   LIG    1       26.229 -27.056   4.971  0.00  0.00    +0.016 C 
ATOM     12  C   LIG    1       24.129 -27.736   6.084  0.00  0.00    +0.016 C 
ENDBRANCH   7   9
BRANCH   6  13
ATOM     13  O   LIG    1       27.282 -24.642   6.367  0.00  0.00    -0.506 OA
ATOM     14  H   LIG    1       27.413 -25.471   6.857  0.00  0.00    +0.292 HD
ENDBRANCH   6  13
BRANCH   3  15
ATOM     15  C   LIG    1       23.874 -21.107   7.011  0.00  0.00    +0.163 C 
BRANCH  15  16
ATOM     16  C   LIG    1       23.580 -20.305   5.757  0.00  0.00    +0.285 C 
ATOM     17  N   LIG    1       24.397 -20.296   4.649  0.00  0.00    -0.234 N 
ATOM     18  H   LIG    1       25.379 -20.511   4.765  0.00  0.00    +0.291 HD
ATOM     19  C   LIG    1       24.001 -19.192   3.813  0.00  0.00    +0.272 C 
ATOM     20  C   LIG    1       22.579 -18.946   4.325  0.00  0.00    +0.333 C 
ATOM     21  N   LIG    1       22.520 -19.542   5.694  0.00  0.00    -0.084 NA
ENDBRANCH  15  16
ENDBRANCH   3  15
TORSDOF 4
ENDMDL
MODEL 9
REMARK VINA RESULT:      -6.2      3.210      6.109
REMARK  Name = *****
REMARK                            x       y       z     vdW  Elec       q    Type
REMARK                         _______ _______ _______ _____ _____    ______ ____
ROOT
ATOM      1  C   LIG    1       26.016 -23.001   7.860  0.00  0.00    +0.044 C 
ATOM      2  C   LIG    1       26.705 -21.862   7.151  0.00  0.00    -0.046 A 
ATOM      3  C   LIG    1       26.177 -21.272   5.981  0.00  0.00    -0.027 A 
ATOM      4  C   LIG    1       26.882 -20.198   5.387  0.00  0.00    -0.005 A 
ATOM      5  C   LIG    1       26.361 -19.484   4.160  0.00  0.00    +0.048 C 
ATOM      6  C   LIG    1       28.117 -19.785   5.944  0.00  0.00    +0.124 A 
ATOM      7  C   LIG    1       28.644 -20.324   7.129  0.00  0.00    -0.000 A 
ATOM      8  C   LIG    1       27.905 -21.372   7.706  0.00  0.00    +0.011 A 
ENDROOT
BRANCH   7   9
ATOM      9  C   LIG    1       29.942 -19.796   7.785  0.00  0.00    -0.009 C 
ATOM     10  C   LIG    1       30.602 -20.910   8.631  0.00  0.00    +0.016 C 
ATOM     11  C   LIG    1       29.674 -18.569   8.684  0.00  0.00    +0.016 C 
ATOM     12  C   LIG    1       31.008 -19.344   6.753  0.00  0.00    +0.016 C 
ENDBRANCH   7   9
BRANCH   6  13
ATOM     13  O   LIG    1       28.835 -18.814   5.294  0.00  0.00    -0.506 OA
ATOM     14  H   LIG    1       29.622 -18.633   5.835  0.00  0.00    +0.292 HD
ENDBRANCH   6  13
BRANCH   3  15
ATOM     15  C   LIG    1       24.859 -21.764   5.405  0.00  0.00    +0.163 C 
BRANCH  15  16
ATOM     16  C   LIG    1       23.840 -20.681   5.102  0.00  0.00    +0.285 C 
ATOM     17  N   LIG    1       23.562 -20.231   3.831  0.00  0.00    -0.234 N 
ATOM     18  H   LIG    1       24.270 -20.326   3.113  0.00  0.00    +0.291 HD
ATOM     19  C   LIG    1       22.823 -18.999   3.947  0.00  0.00    +0.272 C 
ATOM     20  C   LIG    1       22.293 -19.122   5.378  0.00  0.00    +0.333 C 
ATOM     21  N   LIG    1       23.190 -20.095   6.073  0.00  0.00    -0.084 NA
ENDBRANCH  15  16
ENDBRANCH   3  15
TORSDOF 4
ENDMDL
