MODEL 1
REMARK VINA RESULT:      -5.6      0.000      0.000
REMARK  Name = *****
REMARK                            x       y       z     vdW  Elec       q    Type
REMARK                         _______ _______ _______ _____ _____    ______ ____
ROOT
ATOM      1  N   LIG    1       24.951 -17.087   3.266  0.00  0.00    -0.314 N 
ATOM      2  H   LIG    1       24.147 -16.835   2.691  0.00  0.00    +0.152 HD
ENDROOT
BRANCH   1   5
ATOM      3  C   LIG    1       22.281 -18.060   4.105  0.00  0.00    +0.047 C 
ATOM      4  C   LIG    1       23.538 -18.888   4.193  0.00  0.00    -0.011 A 
ATOM      5  C   LIG    1       24.816 -18.371   3.859  0.00  0.00    +0.036 A 
ATOM      6  C   LIG    1       25.938 -19.197   4.061  0.00  0.00    +0.023 A 
ATOM      7  C   LIG    1       25.816 -20.517   4.504  0.00  0.00    +0.003 A 
ATOM      8  C   LIG    1       24.560 -21.045   4.752  0.00  0.00    +0.020 A 
ATOM      9  C   LIG    1       23.431 -20.238   4.605  0.00  0.00    +0.046 A 
ATOM     10 CL   LIG    1       21.898 -20.977   4.930  0.00  0.00    -0.083 Cl
ENDBRANCH   1   5
BRANCH   1  11
ATOM     11  C   LIG    1       25.713 -15.945   3.626  0.00  0.00    +0.045 A 
ATOM     12  C   LIG    1       25.109 -14.721   3.998  0.00  0.00    +0.080 A 
ATOM     13  C   LIG    1       25.897 -13.614   4.375  0.00  0.00    +0.017 A 
ATOM     14  C   LIG    1       27.287 -13.690   4.352  0.00  0.00    +0.001 A 
ATOM     15  C   LIG    1       27.897 -14.864   3.933  0.00  0.00    +0.002 A 
ATOM     16  C   LIG    1       27.120 -15.971   3.572  0.00  0.00    +0.024 A 
BRANCH  12  17
ATOM     17  C   LIG    1       23.644 -14.471   3.981  0.00  0.00    +0.339 C 
ATOM     18  O   LIG    1       22.824 -15.027   4.678  0.00  0.00    -0.245 OA
BRANCH  17  19
ATOM     19  O   LIG    1       23.262 -13.570   3.053  0.00  0.00    -0.477 OA
ATOM     20  H   LIG    1       23.136 -12.753   3.584  0.00  0.00    +0.295 HD
ENDBRANCH  17  19
ENDBRANCH  12  17
ENDBRANCH   1  11
TORSDOF 4
ENDMDL
MODEL 2
REMARK VINA RESULT:      -5.1      1.022      1.906
REMARK  Name = *****
REMARK                            x       y       z     vdW  Elec       q    Type
REMARK                         _______ _______ _______ _____ _____    ______ ____
ROOT
ATOM      1  N   LIG    1       25.049 -17.177   3.146  0.00  0.00    -0.314 N 
ATOM      2  H   LIG    1       24.699 -17.027   2.199  0.00  0.00    +0.152 HD
ENDROOT
BRANCH   1   5
ATOM      3  C   LIG    1       26.604 -19.462   4.213  0.00  0.00    +0.047 C 
ATOM      4  C   LIG    1       25.117 -19.302   4.402  0.00  0.00    -0.011 A 
ATOM      5  C   LIG    1       24.384 -18.240   3.813  0.00  0.00    +0.036 A 
ATOM      6  C   LIG    1       22.986 -18.231   3.975  0.00  0.00    +0.023 A 
ATOM      7  C   LIG    1       22.323 -19.185   4.751  0.00  0.00    +0.003 A 
ATOM      8  C   LIG    1       23.051 -20.175   5.392  0.00  0.00    +0.020 A 
ATOM      9  C   LIG    1       24.433 -20.238   5.215  0.00  0.00    +0.046 A 
ATOM     10 CL   LIG    1       25.269 -21.503   6.055  0.00  0.00    -0.083 Cl
ENDBRANCH   1   5
BRANCH   1  11
ATOM     11  C   LIG    1       25.755 -16.041   3.625  0.00  0.00    +0.045 A 
ATOM     12  C   LIG    1       25.093 -14.866   4.050  0.00  0.00    +0.080 A 
ATOM     13  C   LIG    1       25.824 -13.766   4.545  0.00  0.00    +0.017 A 
ATOM     14  C   LIG    1       27.215 -13.800   4.591  0.00  0.00    +0.001 A 
ATOM     15  C   LIG    1       27.884 -14.924   4.123  0.00  0.00    +0.002 A 
ATOM     16  C   LIG    1       27.162 -16.024   3.645  0.00  0.00    +0.024 A 
BRANCH  12  17
ATOM     17  C   LIG    1       23.624 -14.658   3.972  0.00  0.00    +0.339 C 
ATOM     18  O   LIG    1       22.789 -15.259   4.613  0.00  0.00    -0.245 OA
BRANCH  17  19
ATOM     19  O   LIG    1       23.257 -13.738   3.055  0.00  0.00    -0.477 OA
ATOM     20  H   LIG    1       23.631 -12.907   3.421  0.00  0.00    +0.295 HD
ENDBRANCH  17  19
ENDBRANCH  12  17
ENDBRANCH   1  11
TORSDOF 4
ENDMDL
MODEL 3
REMARK VINA RESULT:      -5.1      3.405      6.273
REMARK  Name = *****
REMARK                            x       y       z     vdW  Elec       q    Type
REMARK                         _______ _______ _______ _____ _____    ______ ____
ROOT
ATOM      1  N   LIG    1       24.543 -18.426   3.699  0.00  0.00    -0.314 N 
ATOM      2  H   LIG    1       25.346 -18.753   3.161  0.00  0.00    +0.152 HD
ENDROOT
BRANCH   1   5
ATOM      3  C   LIG    1       27.056 -16.889   3.383  0.00  0.00    +0.047 C 
ATOM      4  C   LIG    1       25.714 -16.253   3.647  0.00  0.00    -0.011 A 
ATOM      5  C   LIG    1       24.540 -17.016   3.873  0.00  0.00    +0.036 A 
ATOM      6  C   LIG    1       23.357 -16.329   4.200  0.00  0.00    +0.023 A 
ATOM      7  C   LIG    1       23.294 -14.933   4.232  0.00  0.00    +0.003 A 
ATOM      8  C   LIG    1       24.423 -14.188   3.931  0.00  0.00    +0.020 A 
ATOM      9  C   LIG    1       25.624 -14.840   3.648  0.00  0.00    +0.046 A 
ATOM     10 CL   LIG    1       26.986 -13.836   3.277  0.00  0.00    -0.083 Cl
ENDBRANCH   1   5
BRANCH   1  11
ATOM     11  C   LIG    1       23.948 -19.481   4.441  0.00  0.00    +0.045 A 
ATOM     12  C   LIG    1       24.696 -20.304   5.315  0.00  0.00    +0.080 A 
ATOM     13  C   LIG    1       24.068 -21.326   6.056  0.00  0.00    +0.017 A 
ATOM     14  C   LIG    1       22.705 -21.572   5.914  0.00  0.00    +0.001 A 
ATOM     15  C   LIG    1       21.967 -20.812   5.017  0.00  0.00    +0.002 A 
ATOM     16  C   LIG    1       22.582 -19.786   4.290  0.00  0.00    +0.024 A 
BRANCH  12  17
ATOM     17  C   LIG    1       26.169 -20.213   5.495  0.00  0.00    +0.339 C 
ATOM     18  O   LIG    1       26.747 -20.112   6.555  0.00  0.00    -0.245 OA
BRANCH  17  19
ATOM     19  O   LIG    1       26.854 -20.200   4.333  0.00  0.00    -0.477 OA
ATOM     20  H   LIG    1       26.876 -21.150   4.084  0.00  0.00    +0.295 HD
ENDBRANCH  17  19
ENDBRANCH  12  17
ENDBRANCH   1  11
TORSDOF 4
ENDMDL
MODEL 4
REMARK VINA RESULT:      -5.0      2.452      5.352
REMARK  Name = *****
REMARK                            x       y       z     vdW  Elec       q    Type
REMARK                         _______ _______ _______ _____ _____    ______ ____
ROOT
ATOM      1  N   LIG    1       24.701 -17.097   3.229  0.00  0.00    -0.314 N 
ATOM      2  H   LIG    1       24.401 -17.107   2.253  0.00  0.00    +0.152 HD
ENDROOT
BRANCH   1   5
ATOM      3  C   LIG    1       23.348 -14.573   3.989  0.00  0.00    +0.047 C 
ATOM      4  C   LIG    1       24.845 -14.755   3.997  0.00  0.00    -0.011 A 
ATOM      5  C   LIG    1       25.470 -15.948   3.553  0.00  0.00    +0.036 A 
ATOM      6  C   LIG    1       26.877 -15.984   3.515  0.00  0.00    +0.023 A 
ATOM      7  C   LIG    1       27.658 -14.918   3.967  0.00  0.00    +0.003 A 
ATOM      8  C   LIG    1       27.045 -13.785   4.477  0.00  0.00    +0.020 A 
ATOM      9  C   LIG    1       25.652 -13.700   4.486  0.00  0.00    +0.046 A 
ATOM     10 CL   LIG    1       24.965 -12.252   5.144  0.00  0.00    -0.083 Cl
ENDBRANCH   1   5
BRANCH   1  11
ATOM     11  C   LIG    1       24.626 -18.391   3.809  0.00  0.00    +0.045 A 
ATOM     12  C   LIG    1       23.409 -18.942   4.271  0.00  0.00    +0.080 A 
ATOM     13  C   LIG    1       23.367 -20.242   4.818  0.00  0.00    +0.017 A 
ATOM     14  C   LIG    1       24.530 -20.995   4.949  0.00  0.00    +0.001 A 
ATOM     15  C   LIG    1       25.743 -20.447   4.555  0.00  0.00    +0.002 A 
ATOM     16  C   LIG    1       25.788 -19.164   3.998  0.00  0.00    +0.024 A 
BRANCH  12  17
ATOM     17  C   LIG    1       22.110 -18.218   4.276  0.00  0.00    +0.339 C 
ATOM     18  O   LIG    1       21.105 -18.564   3.694  0.00  0.00    -0.245 OA
BRANCH  17  19
ATOM     19  O   LIG    1       22.141 -17.061   4.969  0.00  0.00    -0.477 OA
ATOM     20  H   LIG    1       23.097 -16.837   4.974  0.00  0.00    +0.295 HD
ENDBRANCH  17  19
ENDBRANCH  12  17
ENDBRANCH   1  11
TORSDOF 4
ENDMDL
MODEL 5
REMARK VINA RESULT:      -4.9      3.090      5.874
REMARK  Name = *****
REMARK                            x       y       z     vdW  Elec       q    Type
REMARK                         _______ _______ _______ _____ _____    ______ ____
ROOT
ATOM      1  N   LIG    1       25.207 -17.641   3.290  0.00  0.00    -0.314 N 
ATOM      2  H   LIG    1       25.830 -18.166   2.674  0.00  0.00    +0.152 HD
ENDROOT
BRANCH   1   5
ATOM      3  C   LIG    1       23.279 -15.472   3.891  0.00  0.00    +0.047 C 
ATOM      4  C   LIG    1       24.776 -15.292   3.918  0.00  0.00    -0.011 A 
ATOM      5  C   LIG    1       25.675 -16.326   3.548  0.00  0.00    +0.036 A 
ATOM      6  C   LIG    1       27.051 -16.028   3.520  0.00  0.00    +0.023 A 
ATOM      7  C   LIG    1       27.548 -14.782   3.913  0.00  0.00    +0.003 A 
ATOM      8  C   LIG    1       26.674 -13.801   4.351  0.00  0.00    +0.020 A 
ATOM      9  C   LIG    1       25.301 -14.049   4.347  0.00  0.00    +0.046 A 
ATOM     10 CL   LIG    1       24.277 -12.771   4.915  0.00  0.00    -0.083 Cl
ENDBRANCH   1   5
BRANCH   1  11
ATOM     11  C   LIG    1       24.337 -18.504   4.008  0.00  0.00    +0.045 A 
ATOM     12  C   LIG    1       24.820 -19.548   4.830  0.00  0.00    +0.080 A 
ATOM     13  C   LIG    1       23.928 -20.370   5.550  0.00  0.00    +0.017 A 
ATOM     14  C   LIG    1       22.551 -20.194   5.437  0.00  0.00    +0.001 A 
ATOM     15  C   LIG    1       22.058 -19.211   4.589  0.00  0.00    +0.002 A 
ATOM     16  C   LIG    1       22.940 -18.383   3.884  0.00  0.00    +0.024 A 
BRANCH  12  17
ATOM     17  C   LIG    1       26.255 -19.906   4.972  0.00  0.00    +0.339 C 
ATOM     18  O   LIG    1       27.193 -19.218   4.633  0.00  0.00    -0.245 OA
BRANCH  17  19
ATOM     19  O   LIG    1       26.455 -21.138   5.487  0.00  0.00    -0.477 OA
ATOM     20  H   LIG    1       27.273 -21.020   6.018  0.00  0.00    +0.295 HD
ENDBRANCH  17  19
ENDBRANCH  12  17
ENDBRANCH   1  11
TORSDOF 4
ENDMDL
MODEL 6
REMARK VINA RESULT:      -4.8      2.799      5.532
REMARK  Name = *****
REMARK                            x       y       z     vdW  Elec       q    Type
REMARK                         _______ _______ _______ _____ _____    ______ ____
ROOT
ATOM      1  N   LIG    1       24.601 -18.160   3.665  0.00  0.00    -0.314 N 
ATOM      2  H   LIG    1       24.155 -18.437   2.789  0.00  0.00    +0.152 HD
ENDROOT
BRANCH   1   5
ATOM      3  C   LIG    1       22.869 -15.829   4.250  0.00  0.00    +0.047 C 
ATOM      4  C   LIG    1       24.346 -15.722   3.969  0.00  0.00    -0.011 A 
ATOM      5  C   LIG    1       25.137 -16.846   3.613  0.00  0.00    +0.036 A 
ATOM      6  C   LIG    1       26.487 -16.626   3.281  0.00  0.00    +0.023 A 
ATOM      7  C   LIG    1       27.075 -15.362   3.366  0.00  0.00    +0.003 A 
ATOM      8  C   LIG    1       26.321 -14.281   3.792  0.00  0.00    +0.020 A 
ATOM      9  C   LIG    1       24.968 -14.456   4.084  0.00  0.00    +0.046 A 
ATOM     10 CL   LIG    1       24.098 -13.055   4.615  0.00  0.00    -0.083 Cl
ENDBRANCH   1   5
BRANCH   1  11
ATOM     11  C   LIG    1       24.913 -19.288   4.469  0.00  0.00    +0.045 A 
ATOM     12  C   LIG    1       23.920 -20.177   4.940  0.00  0.00    +0.080 A 
ATOM     13  C   LIG    1       24.269 -21.303   5.714  0.00  0.00    +0.017 A 
ATOM     14  C   LIG    1       25.595 -21.542   6.063  0.00  0.00    +0.001 A 
ATOM     15  C   LIG    1       26.577 -20.647   5.659  0.00  0.00    +0.002 A 
ATOM     16  C   LIG    1       26.237 -19.537   4.877  0.00  0.00    +0.024 A 
BRANCH  12  17
ATOM     17  C   LIG    1       22.461 -19.996   4.720  0.00  0.00    +0.339 C 
ATOM     18  O   LIG    1       21.907 -18.945   4.484  0.00  0.00    -0.245 OA
BRANCH  17  19
ATOM     19  O   LIG    1       21.750 -21.134   4.858  0.00  0.00    -0.477 OA
ATOM     20  H   LIG    1       22.216 -21.755   4.258  0.00  0.00    +0.295 HD
ENDBRANCH  17  19
ENDBRANCH  12  17
ENDBRANCH   1  11
TORSDOF 4
ENDMDL
MODEL 7
REMARK VINA RESULT:      -4.7      2.002      3.123
REMARK  Name = *****
REMARK                            x       y       z     vdW  Elec       q    Type
REMARK                         _______ _______ _______ _____ _____    ______ ____
ROOT
ATOM      1  N   LIG    1       24.792 -16.821   3.386  0.00  0.00    -0.314 N 
ATOM      2  H   LIG    1       25.129 -16.954   2.431  0.00  0.00    +0.152 HD
ENDROOT
BRANCH   1   5
ATOM      3  C   LIG    1       26.191 -19.341   4.069  0.00  0.00    +0.047 C 
ATOM      4  C   LIG    1       24.713 -19.123   4.275  0.00  0.00    -0.011 A 
ATOM      5  C   LIG    1       24.054 -17.935   3.865  0.00  0.00    +0.036 A 
ATOM      6  C   LIG    1       22.657 -17.867   4.020  0.00  0.00    +0.023 A 
ATOM      7  C   LIG    1       21.927 -18.893   4.625  0.00  0.00    +0.003 A 
ATOM      8  C   LIG    1       22.584 -20.017   5.098  0.00  0.00    +0.020 A 
ATOM      9  C   LIG    1       23.963 -20.136   4.919  0.00  0.00    +0.046 A 
ATOM     10 CL   LIG    1       24.708 -21.570   5.543  0.00  0.00    -0.083 Cl
ENDBRANCH   1   5
BRANCH   1  11
ATOM     11  C   LIG    1       24.796 -15.448   3.751  0.00  0.00    +0.045 A 
ATOM     12  C   LIG    1       25.993 -14.714   3.915  0.00  0.00    +0.080 A 
ATOM     13  C   LIG    1       25.958 -13.345   4.253  0.00  0.00    +0.017 A 
ATOM     14  C   LIG    1       24.746 -12.697   4.469  0.00  0.00    +0.001 A 
ATOM     15  C   LIG    1       23.563 -13.417   4.370  0.00  0.00    +0.002 A 
ATOM     16  C   LIG    1       23.591 -14.772   4.020  0.00  0.00    +0.024 A 
BRANCH  12  17
ATOM     17  C   LIG    1       27.355 -15.298   3.804  0.00  0.00    +0.339 C 
ATOM     18  O   LIG    1       27.619 -16.480   3.785  0.00  0.00    -0.245 OA
BRANCH  17  19
ATOM     19  O   LIG    1       28.337 -14.373   3.774  0.00  0.00    -0.477 OA
ATOM     20  H   LIG    1       29.141 -14.904   3.961  0.00  0.00    +0.295 HD
ENDBRANCH  17  19
ENDBRANCH  12  17
ENDBRANCH   1  11
TORSDOF 4
ENDMDL
MODEL 8
REMARK VINA RESULT:      -4.6      2.258      3.319
REMARK  Name = *****
REMARK                            x       y       z     vdW  Elec       q    Type
REMARK                         _______ _______ _______ _____ _____    ______ ____
ROOT
ATOM      1  N   LIG    1       25.652 -17.453   3.348  0.00  0.00    -0.314 N 
ATOM      2  H   LIG    1       26.131 -17.424   2.447  0.00  0.00    +0.152 HD
ENDROOT
BRANCH   1   5
ATOM      3  C   LIG    1       27.524 -18.931   5.106  0.00  0.00    +0.047 C 
ATOM      4  C   LIG    1       26.186 -19.472   4.666  0.00  0.00    -0.011 A 
ATOM      5  C   LIG    1       25.344 -18.777   3.760  0.00  0.00    +0.036 A 
ATOM      6  C   LIG    1       24.158 -19.409   3.343  0.00  0.00    +0.023 A 
ATOM      7  C   LIG    1       23.760 -20.649   3.848  0.00  0.00    +0.003 A 
ATOM      8  C   LIG    1       24.545 -21.288   4.794  0.00  0.00    +0.020 A 
ATOM      9  C   LIG    1       25.749 -20.710   5.196  0.00  0.00    +0.046 A 
ATOM     10 CL   LIG    1       26.668 -21.571   6.386  0.00  0.00    -0.083 Cl
ENDBRANCH   1   5
BRANCH   1  11
ATOM     11  C   LIG    1       25.084 -16.194   3.676  0.00  0.00    +0.045 A 
ATOM     12  C   LIG    1       25.841 -15.000   3.671  0.00  0.00    +0.080 A 
ATOM     13  C   LIG    1       25.237 -13.762   3.976  0.00  0.00    +0.017 A 
ATOM     14  C   LIG    1       23.892 -13.695   4.326  0.00  0.00    +0.001 A 
ATOM     15  C   LIG    1       23.147 -14.865   4.393  0.00  0.00    +0.002 A 
ATOM     16  C   LIG    1       23.737 -16.094   4.076  0.00  0.00    +0.024 A 
BRANCH  12  17
ATOM     17  C   LIG    1       27.302 -14.936   3.405  0.00  0.00    +0.339 C 
ATOM     18  O   LIG    1       27.855 -14.138   2.679  0.00  0.00    -0.245 OA
BRANCH  17  19
ATOM     19  O   LIG    1       28.005 -15.909   4.020  0.00  0.00    -0.477 OA
ATOM     20  H   LIG    1       28.145 -16.563   3.301  0.00  0.00    +0.295 HD
ENDBRANCH  17  19
ENDBRANCH  12  17
ENDBRANCH   1  11
TORSDOF 4
ENDMDL
MODEL 9
REMARK VINA RESULT:      -4.5      1.821      2.501
REMARK  Name = *****
REMARK                            x       y       z     vdW  Elec       q    Type
REMARK                         _______ _______ _______ _____ _____    ______ ____
ROOT
ATOM      1  N   LIG    1       24.952 -16.967   3.223  0.00  0.00    -0.314 N 
ATOM      2  H   LIG    1       24.756 -17.009   2.221  0.00  0.00    +0.152 HD
ENDROOT
BRANCH   1   5
ATOM      3  C   LIG    1       22.268 -17.957   3.995  0.00  0.00    +0.047 C 
ATOM      4  C   LIG    1       23.535 -18.758   4.163  0.00  0.00    -0.011 A 
ATOM      5  C   LIG    1       24.816 -18.229   3.859  0.00  0.00    +0.036 A 
ATOM      6  C   LIG    1       25.943 -19.026   4.137  0.00  0.00    +0.023 A 
ATOM      7  C   LIG    1       25.828 -20.329   4.626  0.00  0.00    +0.003 A 
ATOM      8  C   LIG    1       24.572 -20.872   4.845  0.00  0.00    +0.020 A 
ATOM      9  C   LIG    1       23.436 -20.093   4.623  0.00  0.00    +0.046 A 
ATOM     10 CL   LIG    1       21.904 -20.848   4.917  0.00  0.00    -0.083 Cl
ENDBRANCH   1   5
BRANCH   1  11
ATOM     11  C   LIG    1       24.871 -15.637   3.713  0.00  0.00    +0.045 A 
ATOM     12  C   LIG    1       26.021 -14.851   3.956  0.00  0.00    +0.080 A 
ATOM     13  C   LIG    1       25.902 -13.523   4.418  0.00  0.00    +0.017 A 
ATOM     14  C   LIG    1       24.652 -12.971   4.680  0.00  0.00    +0.001 A 
ATOM     15  C   LIG    1       23.515 -13.747   4.502  0.00  0.00    +0.002 A 
ATOM     16  C   LIG    1       23.626 -15.060   4.029  0.00  0.00    +0.024 A 
BRANCH  12  17
ATOM     17  C   LIG    1       27.416 -15.340   3.807  0.00  0.00    +0.339 C 
ATOM     18  O   LIG    1       27.762 -16.502   3.802  0.00  0.00    -0.245 OA
BRANCH  17  19
ATOM     19  O   LIG    1       28.329 -14.350   3.723  0.00  0.00    -0.477 OA
ATOM     20  H   LIG    1       29.026 -14.745   3.156  0.00  0.00    +0.295 HD
ENDBRANCH  17  19
ENDBRANCH  12  17
ENDBRANCH   1  11
TORSDOF 4
ENDMDL
