MODEL 1
REMARK VINA RESULT:      -7.4      0.000      0.000
REMARK  Name = *****
REMARK                            x       y       z     vdW  Elec       q    Type
REMARK                         _______ _______ _______ _____ _____    ______ ____
ROOT
ATOM      1  C   LIG    1       29.926 -20.604   8.348  0.00  0.00    +0.263 A 
ATOM      2  C   LIG    1       30.198 -19.558   7.477  0.00  0.00    +0.239 A 
ATOM      3  C   LIG    1       29.213 -19.409   6.517  0.00  0.00    +0.178 A 
ATOM      4 CL   LIG    1       29.275 -18.148   5.340  0.00  0.00    -0.058 Cl
ATOM      5  N   LIG    1       28.118 -20.189   6.375  0.00  0.00    -0.217 NA
ATOM      6  C   LIG    1       27.983 -21.176   7.268  0.00  0.00    +0.132 A 
ATOM      7  C   LIG    1       26.808 -22.090   7.128  0.00  0.00    +0.088 C 
ATOM      8  N   LIG    1       28.857 -21.430   8.255  0.00  0.00    -0.195 NA
ENDROOT
BRANCH   2   9
ATOM      9  N   LIG    1       31.288 -18.660   7.596  0.00  0.00    -0.068 NA
ATOM     10  C   LIG    1       31.376 -17.879   8.604  0.00  0.00    +0.370 C 
ATOM     11  N   LIG    1       30.547 -17.694   9.688  0.00  0.00    -0.235 N 
ATOM     12  H   LIG    1       29.557 -17.760   9.478  0.00  0.00    +0.244 HD
ATOM     13  C   LIG    1       30.967 -16.562  10.506  0.00  0.00    +0.219 C 
ATOM     14  C   LIG    1       32.411 -16.330  10.043  0.00  0.00    +0.219 C 
ATOM     15  N   LIG    1       32.423 -17.014   8.768  0.00  0.00    -0.235 N 
ATOM     16  H   LIG    1       33.286 -17.236   8.290  0.00  0.00    +0.244 HD
ENDBRANCH   2   9
BRANCH   1  18
ATOM     17  C   LIG    1       31.451 -22.159   9.205  0.00  0.00    +0.279 C 
ATOM     18  O   LIG    1       30.856 -20.871   9.340  0.00  0.00    -0.477 OA
ENDBRANCH   1  18
TORSDOF 2
ENDMDL
MODEL 2
REMARK VINA RESULT:      -7.2      1.252      4.810
REMARK  Name = *****
REMARK                            x       y       z     vdW  Elec       q    Type
REMARK                         _______ _______ _______ _____ _____    ______ ____
ROOT
ATOM      1  C   LIG    1       30.587 -20.313   8.749  0.00  0.00    +0.263 A 
ATOM      2  C   LIG    1       29.835 -20.068   7.608  0.00  0.00    +0.239 A 
ATOM      3  C   LIG    1       30.072 -18.807   7.090  0.00  0.00    +0.178 A 
ATOM      4 CL   LIG    1       29.307 -18.262   5.641  0.00  0.00    -0.058 Cl
ATOM      5  N   LIG    1       30.896 -17.874   7.616  0.00  0.00    -0.217 NA
ATOM      6  C   LIG    1       31.548 -18.229   8.729  0.00  0.00    +0.132 A 
ATOM      7  C   LIG    1       32.441 -17.217   9.370  0.00  0.00    +0.088 C 
ATOM      8  N   LIG    1       31.420 -19.421   9.335  0.00  0.00    -0.195 NA
ENDROOT
BRANCH   2   9
ATOM      9  N   LIG    1       28.999 -21.012   6.962  0.00  0.00    -0.068 NA
ATOM     10  C   LIG    1       27.745 -21.038   7.206  0.00  0.00    +0.370 C 
ATOM     11  N   LIG    1       26.966 -20.289   8.060  0.00  0.00    -0.235 N 
ATOM     12  H   LIG    1       27.413 -20.055   8.941  0.00  0.00    +0.244 HD
ATOM     13  C   LIG    1       25.600 -20.793   8.135  0.00  0.00    +0.219 C 
ATOM     14  C   LIG    1       25.504 -21.685   6.890  0.00  0.00    +0.219 C 
ATOM     15  N   LIG    1       26.899 -21.917   6.587  0.00  0.00    -0.235 N 
ATOM     16  H   LIG    1       27.196 -22.297   5.698  0.00  0.00    +0.244 HD
ENDBRANCH   2   9
BRANCH   1  18
ATOM     17  C   LIG    1       31.511 -22.423   9.166  0.00  0.00    +0.279 C 
ATOM     18  O   LIG    1       30.416 -21.536   9.378  0.00  0.00    -0.477 OA
ENDBRANCH   1  18
TORSDOF 2
ENDMDL
MODEL 3
REMARK VINA RESULT:      -7.0      5.695      8.082
REMARK  Name = *****
REMARK                            x       y       z     vdW  Elec       q    Type
REMARK                         _______ _______ _______ _____ _____    ______ ____
ROOT
ATOM      1  C   LIG    1       25.217 -21.071   5.826  0.00  0.00    +0.263 A 
ATOM      2  C   LIG    1       24.580 -22.175   6.374  0.00  0.00    +0.239 A 
ATOM      3  C   LIG    1       23.208 -22.122   6.208  0.00  0.00    +0.178 A 
ATOM      4 CL   LIG    1       22.177 -23.396   6.749  0.00  0.00    -0.058 Cl
ATOM      5  N   LIG    1       22.518 -21.117   5.624  0.00  0.00    -0.217 NA
ATOM      6  C   LIG    1       23.249 -20.100   5.154  0.00  0.00    +0.132 A 
ATOM      7  C   LIG    1       22.528 -18.947   4.535  0.00  0.00    +0.088 C 
ATOM      8  N   LIG    1       24.588 -20.025   5.241  0.00  0.00    -0.195 NA
ENDROOT
BRANCH   2   9
ATOM      9  N   LIG    1       25.235 -23.295   6.946  0.00  0.00    -0.068 NA
ATOM     10  C   LIG    1       25.434 -24.351   6.253  0.00  0.00    +0.370 C 
ATOM     11  N   LIG    1       25.095 -24.667   4.956  0.00  0.00    -0.235 N 
ATOM     12  H   LIG    1       24.195 -24.307   4.656  0.00  0.00    +0.244 HD
ATOM     13  C   LIG    1       25.376 -26.064   4.646  0.00  0.00    +0.219 C 
ATOM     14  C   LIG    1       26.335 -26.471   5.772  0.00  0.00    +0.219 C 
ATOM     15  N   LIG    1       26.082 -25.445   6.758  0.00  0.00    -0.235 N 
ATOM     16  H   LIG    1       26.702 -25.294   7.543  0.00  0.00    +0.244 HD
ENDBRANCH   2   9
BRANCH   1  18
ATOM     17  C   LIG    1       27.001 -20.322   7.143  0.00  0.00    +0.279 C 
ATOM     18  O   LIG    1       26.595 -20.997   5.955  0.00  0.00    -0.477 OA
ENDBRANCH   1  18
TORSDOF 2
ENDMDL
MODEL 4
REMARK VINA RESULT:      -6.9      2.267      5.498
REMARK  Name = *****
REMARK                            x       y       z     vdW  Elec       q    Type
REMARK                         _______ _______ _______ _____ _____    ______ ____
ROOT
ATOM      1  C   LIG    1       29.779 -19.128   7.273  0.00  0.00    +0.263 A 
ATOM      2  C   LIG    1       29.887 -20.450   7.682  0.00  0.00    +0.239 A 
ATOM      3  C   LIG    1       30.863 -20.619   8.648  0.00  0.00    +0.178 A 
ATOM      4 CL   LIG    1       31.169 -22.156   9.372  0.00  0.00    -0.058 Cl
ATOM      5  N   LIG    1       31.670 -19.652   9.138  0.00  0.00    -0.217 NA
ATOM      6  C   LIG    1       31.478 -18.423   8.645  0.00  0.00    +0.132 A 
ATOM      7  C   LIG    1       32.373 -17.328   9.128  0.00  0.00    +0.088 C 
ATOM      8  N   LIG    1       30.563 -18.115   7.712  0.00  0.00    -0.195 NA
ENDROOT
BRANCH   2   9
ATOM      9  N   LIG    1       29.040 -21.506   7.263  0.00  0.00    -0.068 NA
ATOM     10  C   LIG    1       27.780 -21.448   7.475  0.00  0.00    +0.370 C 
ATOM     11  N   LIG    1       27.005 -20.499   8.104  0.00  0.00    -0.235 N 
ATOM     12  H   LIG    1       27.440 -20.067   8.913  0.00  0.00    +0.244 HD
ATOM     13  C   LIG    1       25.625 -20.944   8.265  0.00  0.00    +0.219 C 
ATOM     14  C   LIG    1       25.531 -22.109   7.271  0.00  0.00    +0.219 C 
ATOM     15  N   LIG    1       26.925 -22.435   7.067  0.00  0.00    -0.235 N 
ATOM     16  H   LIG    1       27.229 -23.025   6.304  0.00  0.00    +0.244 HD
ENDBRANCH   2   9
BRANCH   1  18
ATOM     17  C   LIG    1       29.425 -18.150   5.177  0.00  0.00    +0.279 C 
ATOM     18  O   LIG    1       28.852 -18.837   6.285  0.00  0.00    -0.477 OA
ENDBRANCH   1  18
TORSDOF 2
ENDMDL
MODEL 5
REMARK VINA RESULT:      -6.6      1.922      2.726
REMARK  Name = *****
REMARK                            x       y       z     vdW  Elec       q    Type
REMARK                         _______ _______ _______ _____ _____    ______ ____
ROOT
ATOM      1  C   LIG    1       29.483 -19.231   6.757  0.00  0.00    +0.263 A 
ATOM      2  C   LIG    1       30.509 -19.513   7.648  0.00  0.00    +0.239 A 
ATOM      3  C   LIG    1       30.318 -20.719   8.298  0.00  0.00    +0.178 A 
ATOM      4 CL   LIG    1       31.472 -21.339   9.422  0.00  0.00    -0.058 Cl
ATOM      5  N   LIG    1       29.256 -21.542   8.149  0.00  0.00    -0.217 NA
ATOM      6  C   LIG    1       28.326 -21.144   7.273  0.00  0.00    +0.132 A 
ATOM      7  C   LIG    1       27.114 -22.002   7.101  0.00  0.00    +0.088 C 
ATOM      8  N   LIG    1       28.387 -20.003   6.568  0.00  0.00    -0.195 NA
ENDROOT
BRANCH   2   9
ATOM      9  N   LIG    1       31.682 -18.735   7.817  0.00  0.00    -0.068 NA
ATOM     10  C   LIG    1       31.760 -17.879   8.763  0.00  0.00    +0.370 C 
ATOM     11  N   LIG    1       30.851 -17.502   9.728  0.00  0.00    -0.235 N 
ATOM     12  H   LIG    1       29.887 -17.476   9.412  0.00  0.00    +0.244 HD
ATOM     13  C   LIG    1       31.319 -16.352  10.494  0.00  0.00    +0.219 C 
ATOM     14  C   LIG    1       32.821 -16.328  10.180  0.00  0.00    +0.219 C 
ATOM     15  N   LIG    1       32.881 -17.125   8.975  0.00  0.00    -0.235 N 
ATOM     16  H   LIG    1       33.755 -17.486   8.617  0.00  0.00    +0.244 HD
ENDBRANCH   2   9
BRANCH   1  18
ATOM     17  C   LIG    1       28.683 -18.003   4.933  0.00  0.00    +0.279 C 
ATOM     18  O   LIG    1       29.548 -18.032   6.064  0.00  0.00    -0.477 OA
ENDBRANCH   1  18
TORSDOF 2
ENDMDL
MODEL 6
REMARK VINA RESULT:      -6.3      4.349      7.689
REMARK  Name = *****
REMARK                            x       y       z     vdW  Elec       q    Type
REMARK                         _______ _______ _______ _____ _____    ______ ____
ROOT
ATOM      1  C   LIG    1       25.960 -20.320   4.949  0.00  0.00    +0.263 A 
ATOM      2  C   LIG    1       25.743 -21.089   6.083  0.00  0.00    +0.239 A 
ATOM      3  C   LIG    1       26.743 -20.922   7.025  0.00  0.00    +0.178 A 
ATOM      4 CL   LIG    1       26.692 -21.722   8.554  0.00  0.00    -0.058 Cl
ATOM      5  N   LIG    1       27.841 -20.147   6.888  0.00  0.00    -0.217 NA
ATOM      6  C   LIG    1       27.942 -19.472   5.738  0.00  0.00    +0.132 A 
ATOM      7  C   LIG    1       29.159 -18.631   5.524  0.00  0.00    +0.088 C 
ATOM      8  N   LIG    1       27.043 -19.534   4.742  0.00  0.00    -0.195 NA
ENDROOT
BRANCH   2   9
ATOM      9  N   LIG    1       24.590 -21.876   6.327  0.00  0.00    -0.068 NA
ATOM     10  C   LIG    1       24.607 -23.134   6.103  0.00  0.00    +0.370 C 
ATOM     11  N   LIG    1       25.592 -23.958   5.605  0.00  0.00    -0.235 N 
ATOM     12  H   LIG    1       26.162 -23.541   4.876  0.00  0.00    +0.244 HD
ATOM     13  C   LIG    1       25.098 -25.308   5.355  0.00  0.00    +0.219 C 
ATOM     14  C   LIG    1       23.796 -25.343   6.167  0.00  0.00    +0.219 C 
ATOM     15  N   LIG    1       23.524 -23.934   6.347  0.00  0.00    -0.235 N 
ATOM     16  H   LIG    1       22.847 -23.603   7.021  0.00  0.00    +0.244 HD
ENDBRANCH   2   9
BRANCH   1  18
ATOM     17  C   LIG    1       24.230 -19.257   3.785  0.00  0.00    +0.279 C 
ATOM     18  O   LIG    1       25.039 -20.422   3.919  0.00  0.00    -0.477 OA
ENDBRANCH   1  18
TORSDOF 2
ENDMDL
MODEL 7
REMARK VINA RESULT:      -6.1      1.922      2.579
REMARK  Name = *****
REMARK                            x       y       z     vdW  Elec       q    Type
REMARK                         _______ _______ _______ _____ _____    ______ ____
ROOT
ATOM      1  C   LIG    1       27.491 -20.684   7.570  0.00  0.00    +0.263 A 
ATOM      2  C   LIG    1       28.775 -20.212   7.340  0.00  0.00    +0.239 A 
ATOM      3  C   LIG    1       28.894 -19.608   6.100  0.00  0.00    +0.178 A 
ATOM      4 CL   LIG    1       30.373 -18.885   5.580  0.00  0.00    -0.058 Cl
ATOM      5  N   LIG    1       27.918 -19.502   5.172  0.00  0.00    -0.217 NA
ATOM      6  C   LIG    1       26.730 -20.017   5.510  0.00  0.00    +0.132 A 
ATOM      7  C   LIG    1       25.629 -19.958   4.501  0.00  0.00    +0.088 C 
ATOM      8  N   LIG    1       26.472 -20.623   6.681  0.00  0.00    -0.195 NA
ENDROOT
BRANCH   2   9
ATOM      9  N   LIG    1       29.833 -20.230   8.283  0.00  0.00    -0.068 NA
ATOM     10  C   LIG    1       30.183 -19.156   8.882  0.00  0.00    +0.370 C 
ATOM     11  N   LIG    1       29.722 -17.862   8.778  0.00  0.00    -0.235 N 
ATOM     12  H   LIG    1       29.465 -17.581   7.838  0.00  0.00    +0.244 HD
ATOM     13  C   LIG    1       30.547 -16.929   9.537  0.00  0.00    +0.219 C 
ATOM     14  C   LIG    1       31.323 -17.857  10.480  0.00  0.00    +0.219 C 
ATOM     15  N   LIG    1       31.183 -19.134   9.816  0.00  0.00    -0.235 N 
ATOM     16  H   LIG    1       31.400 -20.005  10.281  0.00  0.00    +0.244 HD
ENDBRANCH   2   9
BRANCH   1  18
ATOM     17  C   LIG    1       25.957 -21.925   8.830  0.00  0.00    +0.279 C 
ATOM     18  O   LIG    1       27.253 -21.336   8.770  0.00  0.00    -0.477 OA
ENDBRANCH   1  18
TORSDOF 2
ENDMDL
MODEL 8
REMARK VINA RESULT:      -5.9      4.074      7.222
REMARK  Name = *****
REMARK                            x       y       z     vdW  Elec       q    Type
REMARK                         _______ _______ _______ _____ _____    ______ ____
ROOT
ATOM      1  C   LIG    1       26.730 -21.248   6.854  0.00  0.00    +0.263 A 
ATOM      2  C   LIG    1       25.652 -21.226   5.980  0.00  0.00    +0.239 A 
ATOM      3  C   LIG    1       25.847 -20.341   4.935  0.00  0.00    +0.178 A 
ATOM      4 CL   LIG    1       24.684 -20.155   3.673  0.00  0.00    -0.058 Cl
ATOM      5  N   LIG    1       26.922 -19.540   4.763  0.00  0.00    -0.217 NA
ATOM      6  C   LIG    1       27.883 -19.643   5.688  0.00  0.00    +0.132 A 
ATOM      7  C   LIG    1       29.075 -18.750   5.561  0.00  0.00    +0.088 C 
ATOM      8  N   LIG    1       27.829 -20.465   6.749  0.00  0.00    -0.195 NA
ENDROOT
BRANCH   2   9
ATOM      9  N   LIG    1       24.520 -22.076   6.057  0.00  0.00    -0.068 NA
ATOM     10  C   LIG    1       24.653 -23.342   5.945  0.00  0.00    +0.370 C 
ATOM     11  N   LIG    1       25.764 -24.125   5.721  0.00  0.00    -0.235 N 
ATOM     12  H   LIG    1       26.445 -23.720   5.087  0.00  0.00    +0.244 HD
ATOM     13  C   LIG    1       25.407 -25.521   5.492  0.00  0.00    +0.219 C 
ATOM     14  C   LIG    1       23.973 -25.593   6.031  0.00  0.00    +0.219 C 
ATOM     15  N   LIG    1       23.591 -24.199   6.037  0.00  0.00    -0.235 N 
ATOM     16  H   LIG    1       22.774 -23.871   6.535  0.00  0.00    +0.244 HD
ENDBRANCH   2   9
BRANCH   1  18
ATOM     17  C   LIG    1       25.878 -21.505   9.019  0.00  0.00    +0.279 C 
ATOM     18  O   LIG    1       26.641 -22.078   7.961  0.00  0.00    -0.477 OA
ENDBRANCH   1  18
TORSDOF 2
ENDMDL
MODEL 9
REMARK VINA RESULT:      -5.8      5.679      7.598
REMARK  Name = *****
REMARK                            x       y       z     vdW  Elec       q    Type
REMARK                         _______ _______ _______ _____ _____    ______ ____
ROOT
ATOM      1  C   LIG    1       25.598 -22.426   6.745  0.00  0.00    +0.263 A 
ATOM      2  C   LIG    1       24.220 -22.266   6.694  0.00  0.00    +0.239 A 
ATOM      3  C   LIG    1       23.556 -23.479   6.661  0.00  0.00    +0.178 A 
ATOM      4 CL   LIG    1       21.832 -23.570   6.649  0.00  0.00    -0.058 Cl
ATOM      5  N   LIG    1       24.133 -24.700   6.637  0.00  0.00    -0.217 NA
ATOM      6  C   LIG    1       25.471 -24.716   6.671  0.00  0.00    +0.132 A 
ATOM      7  C   LIG    1       26.157 -26.042   6.608  0.00  0.00    +0.088 C 
ATOM      8  N   LIG    1       26.241 -23.616   6.712  0.00  0.00    -0.195 NA
ENDROOT
BRANCH   2   9
ATOM      9  N   LIG    1       23.538 -21.026   6.776  0.00  0.00    -0.068 NA
ATOM     10  C   LIG    1       23.322 -20.335   5.723  0.00  0.00    +0.370 C 
ATOM     11  N   LIG    1       23.666 -20.550   4.406  0.00  0.00    -0.235 N 
ATOM     12  H   LIG    1       24.575 -20.979   4.272  0.00  0.00    +0.244 HD
ATOM     13  C   LIG    1       23.359 -19.396   3.569  0.00  0.00    +0.219 C 
ATOM     14  C   LIG    1       22.382 -18.598   4.443  0.00  0.00    +0.219 C 
ATOM     15  N   LIG    1       22.648 -19.146   5.755  0.00  0.00    -0.235 N 
ATOM     16  H   LIG    1       22.025 -18.988   6.536  0.00  0.00    +0.244 HD
ENDBRANCH   2   9
BRANCH   1  18
ATOM     17  C   LIG    1       27.632 -21.470   7.400  0.00  0.00    +0.279 C 
ATOM     18  O   LIG    1       26.376 -21.279   6.754  0.00  0.00    -0.477 OA
ENDBRANCH   1  18
TORSDOF 2
ENDMDL
