MODEL 1
REMARK VINA RESULT:      -8.2      0.000      0.000
REMARK  Name = *****
REMARK                            x       y       z     vdW  Elec       q    Type
REMARK                         _______ _______ _______ _____ _____    ______ ____
ROOT
ATOM      1  C   LIG    1       24.420 -22.118   6.450  0.00  0.00    +0.190 C 
ENDROOT
BRANCH   1   2
ATOM      2  C   LIG    1       25.367 -23.177   5.789  0.00  0.00    +0.036 C 
ATOM      3  C   LIG    1       26.301 -23.919   6.773  0.00  0.00    +0.007 C 
ATOM      4  C   LIG    1       25.703 -25.152   7.439  0.00  0.00    +0.000 C 
ATOM      5  C   LIG    1       25.148 -26.125   6.411  0.00  0.00    +0.000 C 
ATOM      6  C   LIG    1       24.112 -25.452   5.524  0.00  0.00    +0.000 C 
ATOM      7  C   LIG    1       24.647 -24.187   4.857  0.00  0.00    +0.007 C 
ENDBRANCH   1   2
BRANCH   1   8
ATOM      8  C   LIG    1       23.925 -20.995   5.523  0.00  0.00    -0.005 A 
ATOM      9  C   LIG    1       22.808 -20.201   5.855  0.00  0.00    +0.007 A 
ATOM     10  C   LIG    1       22.415 -19.129   5.047  0.00  0.00    +0.000 A 
ATOM     11  C   LIG    1       23.128 -18.822   3.892  0.00  0.00    +0.000 A 
ATOM     12  C   LIG    1       24.236 -19.584   3.545  0.00  0.00    +0.000 A 
ATOM     13  C   LIG    1       24.634 -20.651   4.354  0.00  0.00    +0.007 A 
ENDBRANCH   1   8
BRANCH   1  14
ATOM     14  C   LIG    1       25.211 -21.422   7.592  0.00  0.00    +0.344 C 
ATOM     15  O   LIG    1       25.026 -21.571   8.787  0.00  0.00    -0.247 OA
BRANCH  14  16
ATOM     16  O   LIG    1       26.159 -20.533   7.107  0.00  0.00    -0.457 OA
BRANCH  16  17
ATOM     17  C   LIG    1       27.274 -20.313   7.988  0.00  0.00    +0.283 C 
BRANCH  17  18
ATOM     18  C   LIG    1       28.604 -20.762   7.348  0.00  0.00    +0.174 C 
BRANCH  18  19
ATOM     19  N   LIG    1       29.856 -19.922   7.766  0.00  0.00    +0.243 N 
ATOM     20  C   LIG    1       30.883 -20.806   8.469  0.00  0.00    +0.192 C 
BRANCH  19  22
ATOM     21  C   LIG    1       29.486 -18.514   5.620  0.00  0.00    +0.060 C 
ATOM     22  C   LIG    1       30.478 -19.274   6.497  0.00  0.00    +0.129 C 
ENDBRANCH  19  22
BRANCH  19  23
ATOM     23  C   LIG    1       29.357 -18.797   8.720  0.00  0.00    +0.129 C 
ATOM     24  C   LIG    1       30.406 -17.773   9.123  0.00  0.00    +0.060 C 
ENDBRANCH  19  23
ENDBRANCH  18  19
ENDBRANCH  17  18
ENDBRANCH  16  17
ENDBRANCH  14  16
ENDBRANCH   1  14
BRANCH   1  25
ATOM     25  O   LIG    1       23.281 -22.827   6.969  0.00  0.00    -0.373 OA
ATOM     26  H   LIG    1       22.612 -22.867   6.263  0.00  0.00    +0.211 HD
ENDBRANCH   1  25
TORSDOF 10
ENDMDL
MODEL 2
REMARK VINA RESULT:      -7.9      1.336      3.987
REMARK  Name = *****
REMARK                            x       y       z     vdW  Elec       q    Type
REMARK                         _______ _______ _______ _____ _____    ______ ____
ROOT
ATOM      1  C   LIG    1       25.254 -22.485   6.569  0.00  0.00    +0.190 C 
ENDROOT
BRANCH   1   2
ATOM      2  C   LIG    1       23.874 -21.939   7.069  0.00  0.00    +0.036 C 
ATOM      3  C   LIG    1       23.688 -20.409   6.927  0.00  0.00    +0.007 C 
ATOM      4  C   LIG    1       23.169 -19.936   5.575  0.00  0.00    +0.000 C 
ATOM      5  C   LIG    1       21.887 -20.655   5.188  0.00  0.00    +0.000 C 
ATOM      6  C   LIG    1       22.088 -22.163   5.176  0.00  0.00    +0.000 C 
ATOM      7  C   LIG    1       22.642 -22.690   6.498  0.00  0.00    +0.007 C 
ENDBRANCH   1   2
BRANCH   1   8
ATOM      8  C   LIG    1       25.299 -23.987   6.242  0.00  0.00    -0.005 A 
ATOM      9  C   LIG    1       25.010 -24.471   4.950  0.00  0.00    +0.007 A 
ATOM     10  C   LIG    1       25.134 -25.831   4.642  0.00  0.00    +0.000 A 
ATOM     11  C   LIG    1       25.550 -26.737   5.613  0.00  0.00    +0.000 A 
ATOM     12  C   LIG    1       25.846 -26.285   6.892  0.00  0.00    +0.000 A 
ATOM     13  C   LIG    1       25.730 -24.928   7.201  0.00  0.00    +0.007 A 
ENDBRANCH   1   8
BRANCH   1  14
ATOM     14  C   LIG    1       26.293 -22.256   7.701  0.00  0.00    +0.344 C 
ATOM     15  O   LIG    1       26.050 -22.174   8.892  0.00  0.00    -0.247 OA
BRANCH  14  16
ATOM     16  O   LIG    1       27.580 -22.096   7.207  0.00  0.00    -0.457 OA
BRANCH  16  17
ATOM     17  C   LIG    1       28.492 -21.458   8.117  0.00  0.00    +0.283 C 
BRANCH  17  18
ATOM     18  C   LIG    1       28.610 -19.945   7.840  0.00  0.00    +0.174 C 
BRANCH  18  19
ATOM     19  N   LIG    1       30.061 -19.366   7.933  0.00  0.00    +0.243 N 
ATOM     20  C   LIG    1       31.011 -20.400   8.532  0.00  0.00    +0.192 C 
BRANCH  19  22
ATOM     21  C   LIG    1       29.420 -18.477   5.583  0.00  0.00    +0.060 C 
ATOM     22  C   LIG    1       30.534 -18.956   6.510  0.00  0.00    +0.129 C 
ENDBRANCH  19  22
BRANCH  19  23
ATOM     23  C   LIG    1       29.993 -18.098   8.834  0.00  0.00    +0.129 C 
ATOM     24  C   LIG    1       31.004 -18.051   9.969  0.00  0.00    +0.060 C 
ENDBRANCH  19  23
ENDBRANCH  18  19
ENDBRANCH  17  18
ENDBRANCH  16  17
ENDBRANCH  14  16
ENDBRANCH   1  14
BRANCH   1  25
ATOM     25  O   LIG    1       25.606 -21.743   5.388  0.00  0.00    -0.373 OA
ATOM     26  H   LIG    1       26.532 -21.457   5.484  0.00  0.00    +0.211 HD
ENDBRANCH   1  25
TORSDOF 10
ENDMDL
MODEL 3
REMARK VINA RESULT:      -6.9      2.454      6.668
REMARK  Name = *****
REMARK                            x       y       z     vdW  Elec       q    Type
REMARK                         _______ _______ _______ _____ _____    ______ ____
ROOT
ATOM      1  C   LIG    1       24.000 -21.292   6.414  0.00  0.00    +0.190 C 
ENDROOT
BRANCH   1   2
ATOM      2  C   LIG    1       23.661 -21.106   4.896  0.00  0.00    +0.036 C 
ATOM      3  C   LIG    1       22.266 -20.500   4.610  0.00  0.00    +0.007 C 
ATOM      4  C   LIG    1       22.201 -18.978   4.615  0.00  0.00    +0.000 C 
ATOM      5  C   LIG    1       23.235 -18.374   3.678  0.00  0.00    +0.000 C 
ATOM      6  C   LIG    1       24.638 -18.841   4.037  0.00  0.00    +0.000 C 
ATOM      7  C   LIG    1       24.752 -20.363   4.082  0.00  0.00    +0.007 C 
ENDBRANCH   1   2
BRANCH   1   8
ATOM      8  C   LIG    1       25.447 -20.966   6.820  0.00  0.00    -0.005 A 
ATOM      9  C   LIG    1       26.469 -20.821   5.860  0.00  0.00    +0.007 A 
ATOM     10  C   LIG    1       27.764 -20.444   6.232  0.00  0.00    +0.000 A 
ATOM     11  C   LIG    1       28.069 -20.199   7.568  0.00  0.00    +0.000 A 
ATOM     12  C   LIG    1       27.078 -20.329   8.533  0.00  0.00    +0.000 A 
ATOM     13  C   LIG    1       25.784 -20.700   8.163  0.00  0.00    +0.007 A 
ENDBRANCH   1   8
BRANCH   1  14
ATOM     14  C   LIG    1       23.776 -22.788   6.770  0.00  0.00    +0.344 C 
ATOM     15  O   LIG    1       22.723 -23.293   7.118  0.00  0.00    -0.247 OA
BRANCH  14  16
ATOM     16  O   LIG    1       24.950 -23.524   6.703  0.00  0.00    -0.457 OA
BRANCH  16  17
ATOM     17  C   LIG    1       25.026 -24.421   5.581  0.00  0.00    +0.283 C 
BRANCH  17  18
ATOM     18  C   LIG    1       24.333 -25.767   5.878  0.00  0.00    +0.174 C 
BRANCH  18  19
ATOM     19  N   LIG    1       25.300 -26.987   6.038  0.00  0.00    +0.243 N 
ATOM     20  C   LIG    1       26.211 -27.112   4.820  0.00  0.00    +0.192 C 
BRANCH  19  22
ATOM     21  C   LIG    1       26.208 -28.023   8.236  0.00  0.00    +0.060 C 
ATOM     22  C   LIG    1       26.146 -26.796   7.329  0.00  0.00    +0.129 C 
ENDBRANCH  19  22
BRANCH  19  23
ATOM     23  C   LIG    1       24.414 -28.258   6.192  0.00  0.00    +0.129 C 
ATOM     24  C   LIG    1       24.732 -29.393   5.232  0.00  0.00    +0.060 C 
ENDBRANCH  19  23
ENDBRANCH  18  19
ENDBRANCH  17  18
ENDBRANCH  16  17
ENDBRANCH  14  16
ENDBRANCH   1  14
BRANCH   1  25
ATOM     25  O   LIG    1       23.108 -20.445   7.160  0.00  0.00    -0.373 OA
ATOM     26  H   LIG    1       23.484 -19.547   7.160  0.00  0.00    +0.211 HD
ENDBRANCH   1  25
TORSDOF 10
ENDMDL
MODEL 4
REMARK VINA RESULT:      -6.9      2.835      6.329
REMARK  Name = *****
REMARK                            x       y       z     vdW  Elec       q    Type
REMARK                         _______ _______ _______ _____ _____    ______ ____
ROOT
ATOM      1  C   LIG    1       24.543 -22.843   6.076  0.00  0.00    +0.190 C 
ENDROOT
BRANCH   1   2
ATOM      2  C   LIG    1       25.402 -22.783   7.383  0.00  0.00    +0.036 C 
ATOM      3  C   LIG    1       26.930 -22.703   7.155  0.00  0.00    +0.007 C 
ATOM      4  C   LIG    1       27.488 -21.300   6.952  0.00  0.00    +0.000 C 
ATOM      5  C   LIG    1       27.080 -20.370   8.083  0.00  0.00    +0.000 C 
ATOM      6  C   LIG    1       25.567 -20.317   8.229  0.00  0.00    +0.000 C 
ATOM      7  C   LIG    1       24.948 -21.703   8.400  0.00  0.00    +0.007 C 
ENDBRANCH   1   2
BRANCH   1   8
ATOM      8  C   LIG    1       24.105 -21.485   5.501  0.00  0.00    -0.005 A 
ATOM      9  C   LIG    1       24.817 -20.860   4.457  0.00  0.00    +0.007 A 
ATOM     10  C   LIG    1       24.364 -19.665   3.886  0.00  0.00    +0.000 A 
ATOM     11  C   LIG    1       23.192 -19.069   4.340  0.00  0.00    +0.000 A 
ATOM     12  C   LIG    1       22.469 -19.667   5.364  0.00  0.00    +0.000 A 
ATOM     13  C   LIG    1       22.915 -20.863   5.931  0.00  0.00    +0.007 A 
ENDBRANCH   1   8
BRANCH   1  14
ATOM     14  C   LIG    1       23.236 -23.618   6.401  0.00  0.00    +0.344 C 
ATOM     15  O   LIG    1       22.110 -23.152   6.412  0.00  0.00    -0.247 OA
BRANCH  14  16
ATOM     16  O   LIG    1       23.481 -24.939   6.744  0.00  0.00    -0.457 OA
BRANCH  16  17
ATOM     17  C   LIG    1       24.016 -25.742   5.677  0.00  0.00    +0.283 C 
BRANCH  17  18
ATOM     18  C   LIG    1       24.120 -27.228   6.077  0.00  0.00    +0.174 C 
BRANCH  18  19
ATOM     19  N   LIG    1       25.579 -27.789   6.160  0.00  0.00    +0.243 N 
ATOM     20  C   LIG    1       26.407 -27.303   4.974  0.00  0.00    +0.192 C 
BRANCH  19  22
ATOM     21  C   LIG    1       26.190 -28.368   8.613  0.00  0.00    +0.060 C 
ATOM     22  C   LIG    1       26.224 -27.327   7.497  0.00  0.00    +0.129 C 
ENDBRANCH  19  22
BRANCH  19  23
ATOM     23  C   LIG    1       25.474 -29.343   6.155  0.00  0.00    +0.129 C 
ATOM     24  C   LIG    1       24.080 -29.901   5.913  0.00  0.00    +0.060 C 
ENDBRANCH  19  23
ENDBRANCH  18  19
ENDBRANCH  17  18
ENDBRANCH  16  17
ENDBRANCH  14  16
ENDBRANCH   1  14
BRANCH   1  25
ATOM     25  O   LIG    1       25.320 -23.537   5.083  0.00  0.00    -0.373 OA
ATOM     26  H   LIG    1       26.260 -23.416   5.306  0.00  0.00    +0.211 HD
ENDBRANCH   1  25
TORSDOF 10
ENDMDL
MODEL 5
REMARK VINA RESULT:      -6.7      1.292      2.532
REMARK  Name = *****
REMARK                            x       y       z     vdW  Elec       q    Type
REMARK                         _______ _______ _______ _____ _____    ______ ____
ROOT
ATOM      1  C   LIG    1       25.320 -21.240   7.331  0.00  0.00    +0.190 C 
ENDROOT
BRANCH   1   2
ATOM      2  C   LIG    1       24.924 -22.686   7.785  0.00  0.00    +0.036 C 
ATOM      3  C   LIG    1       23.418 -23.017   7.665  0.00  0.00    +0.007 C 
ATOM      4  C   LIG    1       22.968 -23.529   6.303  0.00  0.00    +0.000 C 
ATOM      5  C   LIG    1       23.801 -24.718   5.852  0.00  0.00    +0.000 C 
ATOM      6  C   LIG    1       25.281 -24.368   5.819  0.00  0.00    +0.000 C 
ATOM      7  C   LIG    1       25.780 -23.814   7.152  0.00  0.00    +0.007 C 
ENDBRANCH   1   2
BRANCH   1   8
ATOM      8  C   LIG    1       24.579 -20.703   6.094  0.00  0.00    -0.005 A 
ATOM      9  C   LIG    1       25.061 -20.926   4.789  0.00  0.00    +0.007 A 
ATOM     10  C   LIG    1       24.338 -20.505   3.667  0.00  0.00    +0.000 A 
ATOM     11  C   LIG    1       23.117 -19.856   3.822  0.00  0.00    +0.000 A 
ATOM     12  C   LIG    1       22.616 -19.629   5.097  0.00  0.00    +0.000 A 
ATOM     13  C   LIG    1       23.333 -20.054   6.218  0.00  0.00    +0.007 A 
ENDBRANCH   1   8
BRANCH   1  14
ATOM     14  C   LIG    1       26.829 -21.255   6.959  0.00  0.00    +0.344 C 
ATOM     15  O   LIG    1       27.596 -22.189   7.112  0.00  0.00    -0.247 OA
BRANCH  14  16
ATOM     16  O   LIG    1       27.257 -20.034   6.460  0.00  0.00    -0.457 OA
BRANCH  16  17
ATOM     17  C   LIG    1       28.675 -19.814   6.560  0.00  0.00    +0.283 C 
BRANCH  17  18
ATOM     18  C   LIG    1       29.114 -19.573   8.019  0.00  0.00    +0.174 C 
BRANCH  18  19
ATOM     19  N   LIG    1       30.603 -19.128   8.197  0.00  0.00    +0.243 N 
ATOM     20  C   LIG    1       31.327 -19.132   6.853  0.00  0.00    +0.192 C 
BRANCH  19  22
ATOM     21  C   LIG    1       30.502 -17.678  10.345  0.00  0.00    +0.060 C 
ATOM     22  C   LIG    1       30.635 -17.705   8.825  0.00  0.00    +0.129 C 
ENDBRANCH  19  22
BRANCH  19  23
ATOM     23  C   LIG    1       31.270 -20.134   9.181  0.00  0.00    +0.129 C 
ATOM     24  C   LIG    1       30.936 -21.598   8.941  0.00  0.00    +0.060 C 
ENDBRANCH  19  23
ENDBRANCH  18  19
ENDBRANCH  17  18
ENDBRANCH  16  17
ENDBRANCH  14  16
ENDBRANCH   1  14
BRANCH   1  25
ATOM     25  O   LIG    1       25.070 -20.358   8.439  0.00  0.00    -0.373 OA
ATOM     26  H   LIG    1       24.701 -19.531   8.081  0.00  0.00    +0.211 HD
ENDBRANCH   1  25
TORSDOF 10
ENDMDL
MODEL 6
REMARK VINA RESULT:      -6.6      2.365      6.605
REMARK  Name = *****
REMARK                            x       y       z     vdW  Elec       q    Type
REMARK                         _______ _______ _______ _____ _____    ______ ____
ROOT
ATOM      1  C   LIG    1       25.014 -21.201   6.493  0.00  0.00    +0.190 C 
ENDROOT
BRANCH   1   2
ATOM      2  C   LIG    1       24.367 -21.172   5.067  0.00  0.00    +0.036 C 
ATOM      3  C   LIG    1       22.837 -20.945   5.051  0.00  0.00    +0.007 C 
ATOM      4  C   LIG    1       22.392 -19.488   5.072  0.00  0.00    +0.000 C 
ATOM      5  C   LIG    1       23.050 -18.689   3.959  0.00  0.00    +0.000 C 
ATOM      6  C   LIG    1       24.566 -18.776   4.045  0.00  0.00    +0.000 C 
ATOM      7  C   LIG    1       25.067 -20.219   4.063  0.00  0.00    +0.007 C 
ENDBRANCH   1   2
BRANCH   1   8
ATOM      8  C   LIG    1       26.441 -20.633   6.590  0.00  0.00    -0.005 A 
ATOM      9  C   LIG    1       27.165 -20.254   5.441  0.00  0.00    +0.007 A 
ATOM     10  C   LIG    1       28.429 -19.663   5.545  0.00  0.00    +0.000 A 
ATOM     11  C   LIG    1       28.998 -19.434   6.794  0.00  0.00    +0.000 A 
ATOM     12  C   LIG    1       28.302 -19.792   7.942  0.00  0.00    +0.000 A 
ATOM     13  C   LIG    1       27.038 -20.377   7.841  0.00  0.00    +0.007 A 
ENDBRANCH   1   8
BRANCH   1  14
ATOM     14  C   LIG    1       25.106 -22.685   6.943  0.00  0.00    +0.344 C 
ATOM     15  O   LIG    1       25.590 -23.089   7.986  0.00  0.00    -0.247 OA
BRANCH  14  16
ATOM     16  O   LIG    1       24.610 -23.556   5.984  0.00  0.00    -0.457 OA
BRANCH  16  17
ATOM     17  C   LIG    1       23.899 -24.686   6.518  0.00  0.00    +0.283 C 
BRANCH  17  18
ATOM     18  C   LIG    1       24.014 -25.919   5.598  0.00  0.00    +0.174 C 
BRANCH  18  19
ATOM     19  N   LIG    1       25.101 -26.961   6.023  0.00  0.00    +0.243 N 
ATOM     20  C   LIG    1       26.050 -26.355   7.053  0.00  0.00    +0.192 C 
BRANCH  19  22
ATOM     21  C   LIG    1       24.075 -29.303   5.585  0.00  0.00    +0.060 C 
ATOM     22  C   LIG    1       24.396 -28.217   6.609  0.00  0.00    +0.129 C 
ENDBRANCH  19  22
BRANCH  19  23
ATOM     23  C   LIG    1       25.877 -27.367   4.735  0.00  0.00    +0.129 C 
ATOM     24  C   LIG    1       27.392 -27.291   4.837  0.00  0.00    +0.060 C 
ENDBRANCH  19  23
ENDBRANCH  18  19
ENDBRANCH  17  18
ENDBRANCH  16  17
ENDBRANCH  14  16
ENDBRANCH   1  14
BRANCH   1  25
ATOM     25  O   LIG    1       24.156 -20.448   7.368  0.00  0.00    -0.373 OA
ATOM     26  H   LIG    1       24.558 -20.457   8.255  0.00  0.00    +0.211 HD
ENDBRANCH   1  25
TORSDOF 10
ENDMDL
MODEL 7
REMARK VINA RESULT:      -6.2      2.345      5.939
REMARK  Name = *****
REMARK                            x       y       z     vdW  Elec       q    Type
REMARK                         _______ _______ _______ _____ _____    ______ ____
ROOT
ATOM      1  C   LIG    1       25.300 -21.173   6.339  0.00  0.00    +0.190 C 
ENDROOT
BRANCH   1   2
ATOM      2  C   LIG    1       26.269 -20.382   7.281  0.00  0.00    +0.036 C 
ATOM      3  C   LIG    1       26.774 -21.175   8.510  0.00  0.00    +0.007 C 
ATOM      4  C   LIG    1       28.013 -22.030   8.271  0.00  0.00    +0.000 C 
ATOM      5  C   LIG    1       29.147 -21.213   7.675  0.00  0.00    +0.000 C 
ATOM      6  C   LIG    1       28.716 -20.541   6.380  0.00  0.00    +0.000 C 
ATOM      7  C   LIG    1       27.455 -19.696   6.553  0.00  0.00    +0.007 C 
ENDBRANCH   1   2
BRANCH   1   8
ATOM      8  C   LIG    1       24.337 -20.315   5.500  0.00  0.00    -0.005 A 
ATOM      9  C   LIG    1       24.713 -19.795   4.245  0.00  0.00    +0.007 A 
ATOM     10  C   LIG    1       23.803 -19.086   3.453  0.00  0.00    +0.000 A 
ATOM     11  C   LIG    1       22.499 -18.882   3.892  0.00  0.00    +0.000 A 
ATOM     12  C   LIG    1       22.101 -19.389   5.122  0.00  0.00    +0.000 A 
ATOM     13  C   LIG    1       23.006 -20.103   5.912  0.00  0.00    +0.007 A 
ENDBRANCH   1   8
BRANCH   1  14
ATOM     14  C   LIG    1       24.408 -22.082   7.229  0.00  0.00    +0.344 C 
ATOM     15  O   LIG    1       23.460 -21.718   7.902  0.00  0.00    -0.247 OA
BRANCH  14  16
ATOM     16  O   LIG    1       24.838 -23.400   7.229  0.00  0.00    -0.457 OA
BRANCH  16  17
ATOM     17  C   LIG    1       24.522 -24.129   6.030  0.00  0.00    +0.283 C 
BRANCH  17  18
ATOM     18  C   LIG    1       23.931 -25.519   6.347  0.00  0.00    +0.174 C 
BRANCH  18  19
ATOM     19  N   LIG    1       24.919 -26.717   6.153  0.00  0.00    +0.243 N 
ATOM     20  C   LIG    1       26.015 -26.684   7.215  0.00  0.00    +0.192 C 
BRANCH  19  22
ATOM     21  C   LIG    1       24.718 -29.088   7.184  0.00  0.00    +0.060 C 
ATOM     22  C   LIG    1       24.122 -28.050   6.237  0.00  0.00    +0.129 C 
ENDBRANCH  19  22
BRANCH  19  23
ATOM     23  C   LIG    1       25.534 -26.580   4.728  0.00  0.00    +0.129 C 
ATOM     24  C   LIG    1       26.866 -27.284   4.524  0.00  0.00    +0.060 C 
ENDBRANCH  19  23
ENDBRANCH  18  19
ENDBRANCH  17  18
ENDBRANCH  16  17
ENDBRANCH  14  16
ENDBRANCH   1  14
BRANCH   1  25
ATOM     25  O   LIG    1       26.114 -21.960   5.450  0.00  0.00    -0.373 OA
ATOM     26  H   LIG    1       26.787 -22.411   5.989  0.00  0.00    +0.211 HD
ENDBRANCH   1  25
TORSDOF 10
ENDMDL
MODEL 8
REMARK VINA RESULT:      -5.6      6.477      8.955
REMARK  Name = *****
REMARK                            x       y       z     vdW  Elec       q    Type
REMARK                         _______ _______ _______ _____ _____    ______ ____
ROOT
ATOM      1  C   LIG    1       24.596 -29.845   6.411  0.00  0.00    +0.190 C 
ENDROOT
BRANCH   1   2
ATOM      2  C   LIG    1       25.739 -30.872   6.107  0.00  0.00    +0.036 C 
ATOM      3  C   LIG    1       25.983 -31.922   7.216  0.00  0.00    +0.007 C 
ATOM      4  C   LIG    1       25.107 -33.166   7.143  0.00  0.00    +0.000 C 
ATOM      5  C   LIG    1       25.187 -33.824   5.775  0.00  0.00    +0.000 C 
ATOM      6  C   LIG    1       24.803 -32.846   4.674  0.00  0.00    +0.000 C 
ATOM      7  C   LIG    1       25.628 -31.562   4.721  0.00  0.00    +0.007 C 
ENDBRANCH   1   2
BRANCH   1   8
ATOM      8  C   LIG    1       24.839 -28.409   5.915  0.00  0.00    -0.005 A 
ATOM      9  C   LIG    1       24.044 -27.331   6.353  0.00  0.00    +0.007 A 
ATOM     10  C   LIG    1       24.324 -26.018   5.960  0.00  0.00    +0.000 A 
ATOM     11  C   LIG    1       25.404 -25.749   5.124  0.00  0.00    +0.000 A 
ATOM     12  C   LIG    1       26.207 -26.793   4.683  0.00  0.00    +0.000 A 
ATOM     13  C   LIG    1       25.934 -28.104   5.079  0.00  0.00    +0.007 A 
ENDBRANCH   1   8
BRANCH   1  14
ATOM     14  C   LIG    1       24.442 -29.750   7.955  0.00  0.00    +0.344 C 
ATOM     15  O   LIG    1       23.476 -30.111   8.603  0.00  0.00    -0.247 OA
BRANCH  14  16
ATOM     16  O   LIG    1       25.535 -29.141   8.554  0.00  0.00    -0.457 OA
BRANCH  16  17
ATOM     17  C   LIG    1       25.712 -29.470   9.943  0.00  0.00    +0.283 C 
BRANCH  17  18
ATOM     18  C   LIG    1       26.700 -28.509  10.636  0.00  0.00    +0.174 C 
BRANCH  18  19
ATOM     19  N   LIG    1       26.387 -28.209  12.139  0.00  0.00    +0.243 N 
ATOM     20  C   LIG    1       26.717 -26.758  12.476  0.00  0.00    +0.192 C 
BRANCH  19  22
ATOM     21  C   LIG    1       24.175 -27.446  13.258  0.00  0.00    +0.060 C 
ATOM     22  C   LIG    1       24.884 -28.500  12.411  0.00  0.00    +0.129 C 
ENDBRANCH  19  22
BRANCH  19  23
ATOM     23  C   LIG    1       27.257 -29.180  12.992  0.00  0.00    +0.129 C 
ATOM     24  C   LIG    1       26.531 -30.405  13.526  0.00  0.00    +0.060 C 
ENDBRANCH  19  23
ENDBRANCH  18  19
ENDBRANCH  17  18
ENDBRANCH  16  17
ENDBRANCH  14  16
ENDBRANCH   1  14
BRANCH   1  25
ATOM     25  O   LIG    1       23.394 -30.348   5.803  0.00  0.00    -0.373 OA
ATOM     26  H   LIG    1       23.100 -29.693   5.144  0.00  0.00    +0.211 HD
ENDBRANCH   1  25
TORSDOF 10
ENDMDL
MODEL 9
REMARK VINA RESULT:      -5.5      6.749      9.835
REMARK  Name = *****
REMARK                            x       y       z     vdW  Elec       q    Type
REMARK                         _______ _______ _______ _____ _____    ______ ____
ROOT
ATOM      1  C   LIG    1       24.664 -29.831   6.486  0.00  0.00    +0.190 C 
ENDROOT
BRANCH   1   2
ATOM      2  C   LIG    1       25.783 -30.868   6.132  0.00  0.00    +0.036 C 
ATOM      3  C   LIG    1       26.093 -31.897   7.245  0.00  0.00    +0.007 C 
ATOM      4  C   LIG    1       25.211 -33.139   7.251  0.00  0.00    +0.000 C 
ATOM      5  C   LIG    1       25.205 -33.824   5.894  0.00  0.00    +0.000 C 
ATOM      6  C   LIG    1       24.757 -32.867   4.800  0.00  0.00    +0.000 C 
ATOM      7  C   LIG    1       25.587 -31.585   4.771  0.00  0.00    +0.007 C 
ENDBRANCH   1   2
BRANCH   1   8
ATOM      8  C   LIG    1       24.920 -28.388   6.019  0.00  0.00    -0.005 A 
ATOM      9  C   LIG    1       25.891 -28.088   5.043  0.00  0.00    +0.007 A 
ATOM     10  C   LIG    1       26.060 -26.783   4.565  0.00  0.00    +0.000 A 
ATOM     11  C   LIG    1       25.263 -25.750   5.048  0.00  0.00    +0.000 A 
ATOM     12  C   LIG    1       24.294 -26.020   6.006  0.00  0.00    +0.000 A 
ATOM     13  C   LIG    1       24.120 -27.322   6.479  0.00  0.00    +0.007 A 
ENDBRANCH   1   8
BRANCH   1  14
ATOM     14  C   LIG    1       24.544 -29.771   8.034  0.00  0.00    +0.344 C 
ATOM     15  O   LIG    1       25.394 -29.361   8.804  0.00  0.00    -0.247 OA
BRANCH  14  16
ATOM     16  O   LIG    1       23.343 -30.298   8.487  0.00  0.00    -0.457 OA
BRANCH  16  17
ATOM     17  C   LIG    1       23.390 -30.820   9.826  0.00  0.00    +0.283 C 
BRANCH  17  18
ATOM     18  C   LIG    1       22.227 -30.286  10.688  0.00  0.00    +0.174 C 
BRANCH  18  19
ATOM     19  N   LIG    1       22.630 -29.819  12.126  0.00  0.00    +0.243 N 
ATOM     20  C   LIG    1       22.639 -31.002  13.090  0.00  0.00    +0.192 C 
BRANCH  19  22
ATOM     21  C   LIG    1       25.102 -29.851  12.912  0.00  0.00    +0.060 C 
ATOM     22  C   LIG    1       24.036 -29.157  12.067  0.00  0.00    +0.129 C 
ENDBRANCH  19  22
BRANCH  19  23
ATOM     23  C   LIG    1       21.585 -28.755  12.574  0.00  0.00    +0.129 C 
ATOM     24  C   LIG    1       22.164 -27.429  13.040  0.00  0.00    +0.060 C 
ENDBRANCH  19  23
ENDBRANCH  18  19
ENDBRANCH  17  18
ENDBRANCH  16  17
ENDBRANCH  14  16
ENDBRANCH   1  14
BRANCH   1  25
ATOM     25  O   LIG    1       23.441 -30.300   5.891  0.00  0.00    -0.373 OA
ATOM     26  H   LIG    1       23.512 -30.170   4.929  0.00  0.00    +0.211 HD
ENDBRANCH   1  25
TORSDOF 10
ENDMDL
