MODEL 1
REMARK VINA RESULT:      -1.9      0.000      0.000
REMARK  Name = *****
REMARK                            x       y       z     vdW  Elec       q    Type
REMARK                         _______ _______ _______ _____ _____    ______ ____
ROOT
ATOM      1  N   LIG    1       25.518 -19.624   5.435  0.00  0.00    -0.266 N 
ATOM      2  C   LIG    1       26.672 -19.379   4.678  0.00  0.00    +0.271 C 
ATOM      3  O   LIG    1       27.804 -19.544   5.148  0.00  0.00    -0.270 OA
ATOM      4  C   LIG    1       26.488 -18.937   3.196  0.00  0.00    +0.320 C 
ATOM      5  N   LIG    1       26.130 -17.519   3.203  0.00  0.00    -0.243 NA
ATOM      6  C   LIG    1       24.974 -17.195   3.682  0.00  0.00    +0.081 C 
ATOM      7  C   LIG    1       23.943 -18.204   4.094  0.00  0.00    +0.024 A 
ATOM      8  C   LIG    1       22.658 -18.024   3.547  0.00  0.00    +0.032 A 
ATOM      9  C   LIG    1       21.603 -18.824   3.965  0.00  0.00    +0.042 A 
ATOM     10 CL   LIG    1       20.027 -18.559   3.332  0.00  0.00    -0.084 Cl
ATOM     11  C   LIG    1       21.818 -19.835   4.891  0.00  0.00    +0.022 A 
ATOM     12  C   LIG    1       23.109 -20.071   5.376  0.00  0.00    +0.025 A 
ATOM     13  C   LIG    1       24.204 -19.279   4.978  0.00  0.00    +0.046 A 
ENDROOT
BRANCH   6  14
ATOM     14  C   LIG    1       24.655 -15.724   3.789  0.00  0.00    +0.036 A 
ATOM     15  C   LIG    1       25.482 -14.749   3.222  0.00  0.00    +0.133 A 
ATOM     16  F   LIG    1       26.597 -15.086   2.559  0.00  0.00    -0.205 F 
ATOM     17  C   LIG    1       25.170 -13.391   3.312  0.00  0.00    +0.039 A 
ATOM     18  C   LIG    1       24.005 -12.985   3.956  0.00  0.00    +0.003 A 
ATOM     19  C   LIG    1       23.158 -13.942   4.516  0.00  0.00    +0.001 A 
ATOM     20  C   LIG    1       23.480 -15.304   4.436  0.00  0.00    +0.013 A 
ENDBRANCH   6  14
BRANCH   4  21
ATOM     21  O   LIG    1       25.656 -19.762   2.404  0.00  0.00    -0.364 OA
ATOM     22  H   LIG    1       24.800 -19.732   2.864  0.00  0.00    +0.212 HD
ENDBRANCH   4  21
BRANCH   1  23
ATOM     23  C   LIG    1       25.713 -20.226   6.768  0.00  0.00    +0.128 C 
BRANCH  23  24
ATOM     24  C   LIG    1       26.454 -21.572   6.740  0.00  0.00    +0.138 C 
BRANCH  24  26
ATOM     25  N   LIG    1       29.044 -21.222   7.040  0.00  0.00    -0.197 NA
ATOM     26  C   LIG    1       27.894 -21.375   6.907  0.00  0.00    +0.064 C 
ENDBRANCH  24  26
ENDBRANCH  23  24
ENDBRANCH   1  23
TORSDOF 5
ENDMDL
