MODEL 1
REMARK VINA RESULT:       7.2      0.000      0.000
REMARK  Name = *****
REMARK                            x       y       z     vdW  Elec       q    Type
REMARK                         _______ _______ _______ _____ _____    ______ ____
ROOT
ATOM      1  C   LIG    1       27.100 -15.158   3.695  0.00  0.00    +0.383 C 
ATOM      2  C   LIG    1       26.572 -14.124   2.676  0.00  0.00    +0.284 C 
ATOM      3  O   LIG    1       27.354 -13.594   1.873  0.00  0.00    -0.269 OA
ATOM      4  N   LIG    1       25.221 -13.750   2.722  0.00  0.00    -0.269 N 
ATOM      5  C   LIG    1       24.824 -12.679   1.815  0.00  0.00    +0.138 C 
ATOM      6  C   LIG    1       24.299 -14.195   3.722  0.00  0.00    +0.045 A 
ATOM      7  C   LIG    1       24.336 -15.477   4.302  0.00  0.00    +0.023 A 
ATOM      8  C   LIG    1       23.479 -15.807   5.370  0.00  0.00    +0.032 A 
ATOM      9  C   LIG    1       22.514 -14.903   5.797  0.00  0.00    +0.042 A 
ATOM     10  C   LIG    1       22.404 -13.663   5.186  0.00  0.00    +0.022 A 
ATOM     11 CL   LIG    1       21.432 -15.335   7.061  0.00  0.00    -0.084 Cl
ATOM     12  C   LIG    1       25.188 -16.570   3.749  0.00  0.00    +0.079 C 
ATOM     13  C   LIG    1       23.293 -13.311   4.167  0.00  0.00    +0.025 A 
ATOM     14  N   LIG    1       26.432 -16.437   3.445  0.00  0.00    -0.232 NA
ENDROOT
BRANCH  12  15
ATOM     15  C   LIG    1       24.584 -17.930   3.539  0.00  0.00    +0.001 A 
ATOM     16  C   LIG    1       25.420 -18.983   3.144  0.00  0.00    +0.010 A 
ATOM     17  C   LIG    1       24.906 -20.271   2.995  0.00  0.00    +0.001 A 
ATOM     18  C   LIG    1       23.554 -20.516   3.234  0.00  0.00    +0.000 A 
ATOM     19  C   LIG    1       22.711 -19.467   3.600  0.00  0.00    +0.001 A 
ATOM     20  C   LIG    1       23.219 -18.173   3.739  0.00  0.00    +0.010 A 
ENDBRANCH  12  15
BRANCH   1  21
ATOM     21  O   LIG    1       27.044 -14.627   5.021  0.00  0.00    -0.416 OA
BRANCH  21  24
ATOM     22  C   LIG    1       29.442 -13.887   4.055  0.00  0.00    +0.135 C 
ATOM     23  N   LIG    1       28.503 -12.929   4.623  0.00  0.00    -0.274 N 
ATOM     24  C   LIG    1       27.255 -13.292   5.101  0.00  0.00    +0.405 C 
ATOM     25  O   LIG    1       26.449 -12.480   5.550  0.00  0.00    -0.226 OA
ATOM     26  C   LIG    1       28.949 -11.564   4.801  0.00  0.00    +0.135 C 
ENDBRANCH  21  24
ENDBRANCH   1  21
TORSDOF 3
ENDMDL
MODEL 2
REMARK VINA RESULT:       8.7      2.558      3.536
REMARK  Name = *****
REMARK                            x       y       z     vdW  Elec       q    Type
REMARK                         _______ _______ _______ _____ _____    ______ ____
ROOT
ATOM      1  C   LIG    1       23.774 -13.754   2.598  0.00  0.00    +0.383 C 
ATOM      2  C   LIG    1       23.867 -12.839   3.839  0.00  0.00    +0.284 C 
ATOM      3  O   LIG    1       23.178 -11.810   3.900  0.00  0.00    -0.269 OA
ATOM      4  N   LIG    1       24.786 -13.155   4.851  0.00  0.00    -0.269 N 
ATOM      5  C   LIG    1       24.908 -12.179   5.929  0.00  0.00    +0.138 C 
ATOM      6  C   LIG    1       25.727 -14.231   4.774  0.00  0.00    +0.045 A 
ATOM      7  C   LIG    1       25.457 -15.458   4.139  0.00  0.00    +0.023 A 
ATOM      8  C   LIG    1       26.469 -16.426   3.990  0.00  0.00    +0.032 A 
ATOM      9  C   LIG    1       27.720 -16.223   4.559  0.00  0.00    +0.042 A 
ATOM     10  C   LIG    1       27.985 -15.056   5.261  0.00  0.00    +0.022 A 
ATOM     11 CL   LIG    1       28.933 -17.435   4.424  0.00  0.00    -0.084 Cl
ATOM     12  C   LIG    1       24.082 -15.837   3.703  0.00  0.00    +0.079 C 
ATOM     13  C   LIG    1       27.001 -14.068   5.358  0.00  0.00    +0.025 A 
ATOM     14  N   LIG    1       23.298 -15.070   3.028  0.00  0.00    -0.232 NA
ENDROOT
BRANCH  12  15
ATOM     15  C   LIG    1       23.559 -17.203   4.046  0.00  0.00    +0.001 A 
ATOM     16  C   LIG    1       24.314 -18.324   3.677  0.00  0.00    +0.010 A 
ATOM     17  C   LIG    1       23.890 -19.606   4.029  0.00  0.00    +0.001 A 
ATOM     18  C   LIG    1       22.708 -19.776   4.748  0.00  0.00    +0.000 A 
ATOM     19  C   LIG    1       21.936 -18.667   5.094  0.00  0.00    +0.001 A 
ATOM     20  C   LIG    1       22.352 -17.383   4.733  0.00  0.00    +0.010 A 
ENDBRANCH  12  15
BRANCH   1  21
ATOM     21  O   LIG    1       24.988 -13.700   1.844  0.00  0.00    -0.416 OA
BRANCH  21  24
ATOM     22  C   LIG    1       27.599 -14.259   2.159  0.00  0.00    +0.135 C 
ATOM     23  N   LIG    1       27.077 -12.902   2.252  0.00  0.00    -0.274 N 
ATOM     24  C   LIG    1       25.739 -12.596   2.067  0.00  0.00    +0.405 C 
ATOM     25  O   LIG    1       25.304 -11.448   2.112  0.00  0.00    -0.226 OA
ATOM     26  C   LIG    1       27.982 -11.854   2.673  0.00  0.00    +0.135 C 
ENDBRANCH  21  24
ENDBRANCH   1  21
TORSDOF 3
ENDMDL
MODEL 3
REMARK VINA RESULT:      10.1      3.634      6.874
REMARK  Name = *****
REMARK                            x       y       z     vdW  Elec       q    Type
REMARK                         _______ _______ _______ _____ _____    ______ ____
ROOT
ATOM      1  C   LIG    1       23.614 -18.051   3.846  0.00  0.00    +0.383 C 
ATOM      2  C   LIG    1       23.964 -19.136   2.804  0.00  0.00    +0.284 C 
ATOM      3  O   LIG    1       23.082 -19.577   2.052  0.00  0.00    -0.269 OA
ATOM      4  N   LIG    1       25.267 -19.655   2.772  0.00  0.00    -0.269 N 
ATOM      5  C   LIG    1       25.490 -20.763   1.850  0.00  0.00    +0.138 C 
ATOM      6  C   LIG    1       26.290 -19.313   3.713  0.00  0.00    +0.045 A 
ATOM      7  C   LIG    1       26.428 -18.035   4.286  0.00  0.00    +0.023 A 
ATOM      8  C   LIG    1       27.377 -17.800   5.298  0.00  0.00    +0.032 A 
ATOM      9  C   LIG    1       28.261 -18.804   5.674  0.00  0.00    +0.042 A 
ATOM     10  C   LIG    1       28.200 -20.050   5.065  0.00  0.00    +0.022 A 
ATOM     11 CL   LIG    1       29.458 -18.494   6.869  0.00  0.00    -0.084 Cl
ATOM     12  C   LIG    1       25.668 -16.856   3.777  0.00  0.00    +0.079 C 
ATOM     13  C   LIG    1       27.218 -20.302   4.103  0.00  0.00    +0.025 A 
ATOM     14  N   LIG    1       24.401 -16.853   3.549  0.00  0.00    -0.232 NA
ENDROOT
BRANCH  12  15
ATOM     15  C   LIG    1       26.403 -15.570   3.523  0.00  0.00    +0.001 A 
ATOM     16  C   LIG    1       27.587 -15.322   4.230  0.00  0.00    +0.010 A 
ATOM     17  C   LIG    1       28.327 -14.166   3.979  0.00  0.00    +0.001 A 
ATOM     18  C   LIG    1       27.888 -13.250   3.025  0.00  0.00    +0.000 A 
ATOM     19  C   LIG    1       26.695 -13.476   2.338  0.00  0.00    +0.001 A 
ATOM     20  C   LIG    1       25.945 -14.626   2.595  0.00  0.00    +0.010 A 
ENDBRANCH  12  15
BRANCH   1  21
ATOM     21  O   LIG    1       23.690 -18.585   5.169  0.00  0.00    -0.416 OA
BRANCH  21  24
ATOM     22  C   LIG    1       24.493 -20.525   6.848  0.00  0.00    +0.135 C 
ATOM     23  N   LIG    1       23.134 -20.460   6.329  0.00  0.00    -0.274 N 
ATOM     24  C   LIG    1       22.699 -19.453   5.484  0.00  0.00    +0.405 C 
ATOM     25  O   LIG    1       21.544 -19.378   5.072  0.00  0.00    -0.226 OA
ATOM     26  C   LIG    1       22.243 -21.563   6.617  0.00  0.00    +0.135 C 
ENDBRANCH  21  24
ENDBRANCH   1  21
TORSDOF 3
ENDMDL
