MODEL 1
REMARK VINA RESULT:      -4.9      0.000      0.000
REMARK  Name = *****
REMARK                            x       y       z     vdW  Elec       q    Type
REMARK                         _______ _______ _______ _____ _____    ______ ____
ROOT
ATOM      1  C   LIG    1       25.608 -20.044   5.265  0.00  0.00    +0.136 A 
ATOM      2  C   LIG    1       24.924 -19.186   4.391  0.00  0.00    +0.101 A 
ATOM      3  C   LIG    1       23.532 -19.027   4.511  0.00  0.00    +0.020 A 
ATOM      4  C   LIG    1       22.806 -19.801   5.408  0.00  0.00    +0.024 A 
ATOM      5  C   LIG    1       23.454 -20.769   6.164  0.00  0.00    +0.028 A 
ATOM      6  C   LIG    1       24.854 -20.798   6.177  0.00  0.00    +0.069 A 
ENDROOT
BRANCH   5   7
ATOM      7  N   LIG    1       22.720 -21.572   7.046  0.00  0.00    -0.358 N 
ATOM      8  H   LIG    1       23.080 -21.525   7.996  0.00  0.00    +0.142 HD
ATOM      9  H   LIG    1       21.725 -21.367   7.024  0.00  0.00    +0.142 HD
ENDBRANCH   5   7
BRANCH   2  10
ATOM     10  C   LIG    1       25.523 -18.445   3.248  0.00  0.00    +0.343 C 
ATOM     11  O   LIG    1       25.954 -19.019   2.266  0.00  0.00    -0.245 OA
BRANCH  10  12
ATOM     12  O   LIG    1       25.392 -17.103   3.379  0.00  0.00    -0.460 OA
BRANCH  12  13
ATOM     13  C   LIG    1       26.640 -16.389   3.317  0.00  0.00    +0.247 C 
BRANCH  13  14
ATOM     14  C   LIG    1       26.439 -14.875   3.145  0.00  0.00    +0.125 C 
BRANCH  14  15
ATOM     15  N   LIG    1       26.080 -14.146   4.380  0.00  0.00    -0.300 NA
BRANCH  15  16
ATOM     16  C   LIG    1       27.225 -13.407   4.937  0.00  0.00    +0.081 C 
ATOM     17  C   LIG    1       28.261 -13.025   3.881  0.00  0.00    +0.020 C 
ENDBRANCH  15  16
BRANCH  15  18
ATOM     18  C   LIG    1       24.904 -13.263   4.240  0.00  0.00    +0.081 C 
ATOM     19  C   LIG    1       24.489 -12.859   2.825  0.00  0.00    +0.020 C 
ENDBRANCH  15  18
ENDBRANCH  14  15
ENDBRANCH  13  14
ENDBRANCH  12  13
ENDBRANCH  10  12
ENDBRANCH   2  10
BRANCH   1  20
ATOM     20  O   LIG    1       26.975 -20.122   5.190  0.00  0.00    -0.491 OA
BRANCH  20  21
ATOM     21  C   LIG    1       27.720 -20.386   6.386  0.00  0.00    +0.229 C 
BRANCH  21  23
ATOM     22  C   LIG    1       29.111 -18.475   5.501  0.00  0.00    +0.007 C 
ATOM     23  C   LIG    1       29.105 -19.742   6.335  0.00  0.00    +0.037 C 
ENDBRANCH  21  23
ENDBRANCH  20  21
ENDBRANCH   1  20
TORSDOF 11
ENDMDL
MODEL 2
REMARK VINA RESULT:      -4.8      2.073      6.532
REMARK  Name = *****
REMARK                            x       y       z     vdW  Elec       q    Type
REMARK                         _______ _______ _______ _____ _____    ______ ____
ROOT
ATOM      1  C   LIG    1       25.892 -14.028   2.894  0.00  0.00    +0.136 A 
ATOM      2  C   LIG    1       25.337 -15.215   3.394  0.00  0.00    +0.101 A 
ATOM      3  C   LIG    1       24.111 -15.180   4.083  0.00  0.00    +0.020 A 
ATOM      4  C   LIG    1       23.500 -13.968   4.380  0.00  0.00    +0.024 A 
ATOM      5  C   LIG    1       24.125 -12.778   4.030  0.00  0.00    +0.028 A 
ATOM      6  C   LIG    1       25.243 -12.819   3.189  0.00  0.00    +0.069 A 
ENDROOT
BRANCH   5   7
ATOM      7  N   LIG    1       23.526 -11.555   4.356  0.00  0.00    -0.358 N 
ATOM      8  H   LIG    1       23.480 -10.926   3.558  0.00  0.00    +0.142 HD
ATOM      9  H   LIG    1       22.610 -11.669   4.781  0.00  0.00    +0.142 HD
ENDBRANCH   5   7
BRANCH   2  10
ATOM     10  C   LIG    1       25.963 -16.563   3.340  0.00  0.00    +0.343 C 
ATOM     11  O   LIG    1       27.167 -16.715   3.428  0.00  0.00    -0.245 OA
BRANCH  10  12
ATOM     12  O   LIG    1       25.045 -17.558   3.328  0.00  0.00    -0.460 OA
BRANCH  12  13
ATOM     13  C   LIG    1       25.574 -18.841   3.710  0.00  0.00    +0.247 C 
BRANCH  13  14
ATOM     14  C   LIG    1       24.585 -19.986   3.438  0.00  0.00    +0.125 C 
BRANCH  14  15
ATOM     15  N   LIG    1       24.246 -20.814   4.615  0.00  0.00    -0.300 NA
BRANCH  15  16
ATOM     16  C   LIG    1       25.309 -20.787   5.633  0.00  0.00    +0.081 C 
ATOM     17  C   LIG    1       24.769 -20.799   7.062  0.00  0.00    +0.020 C 
ENDBRANCH  15  16
BRANCH  15  18
ATOM     18  C   LIG    1       22.934 -20.500   5.218  0.00  0.00    +0.081 C 
ATOM     19  C   LIG    1       22.298 -19.157   4.861  0.00  0.00    +0.020 C 
ENDBRANCH  15  18
ENDBRANCH  14  15
ENDBRANCH  13  14
ENDBRANCH  12  13
ENDBRANCH  10  12
ENDBRANCH   2  10
BRANCH   1  20
ATOM     20  O   LIG    1       27.043 -14.090   2.151  0.00  0.00    -0.491 OA
BRANCH  20  21
ATOM     21  C   LIG    1       28.204 -13.388   2.615  0.00  0.00    +0.229 C 
BRANCH  21  23
ATOM     22  C   LIG    1       28.767 -12.241   4.792  0.00  0.00    +0.007 C 
ATOM     23  C   LIG    1       28.388 -13.549   4.124  0.00  0.00    +0.037 C 
ENDBRANCH  21  23
ENDBRANCH  20  21
ENDBRANCH   1  20
TORSDOF 11
ENDMDL
MODEL 3
REMARK VINA RESULT:      -4.7      2.052      6.801
REMARK  Name = *****
REMARK                            x       y       z     vdW  Elec       q    Type
REMARK                         _______ _______ _______ _____ _____    ______ ____
ROOT
ATOM      1  C   LIG    1       24.507 -14.688   3.865  0.00  0.00    +0.136 A 
ATOM      2  C   LIG    1       25.771 -14.980   3.329  0.00  0.00    +0.101 A 
ATOM      3  C   LIG    1       26.430 -14.028   2.531  0.00  0.00    +0.020 A 
ATOM      4  C   LIG    1       25.794 -12.847   2.166  0.00  0.00    +0.024 A 
ATOM      5  C   LIG    1       24.481 -12.623   2.559  0.00  0.00    +0.028 A 
ATOM      6  C   LIG    1       23.896 -13.479   3.499  0.00  0.00    +0.069 A 
ENDROOT
BRANCH   5   7
ATOM      7  N   LIG    1       23.828 -11.448   2.166  0.00  0.00    -0.358 N 
ATOM      8  H   LIG    1       22.871 -11.408   2.511  0.00  0.00    +0.142 HD
ATOM      9  H   LIG    1       24.342 -10.610   2.425  0.00  0.00    +0.142 HD
ENDBRANCH   5   7
BRANCH   2  10
ATOM     10  C   LIG    1       26.496 -16.272   3.455  0.00  0.00    +0.343 C 
ATOM     11  O   LIG    1       27.602 -16.342   3.955  0.00  0.00    -0.245 OA
BRANCH  10  12
ATOM     12  O   LIG    1       25.732 -17.329   3.089  0.00  0.00    -0.460 OA
BRANCH  12  13
ATOM     13  C   LIG    1       26.156 -18.579   3.663  0.00  0.00    +0.247 C 
BRANCH  13  14
ATOM     14  C   LIG    1       25.074 -19.666   3.561  0.00  0.00    +0.125 C 
BRANCH  14  15
ATOM     15  N   LIG    1       25.094 -20.673   4.644  0.00  0.00    -0.300 NA
BRANCH  15  16
ATOM     16  C   LIG    1       25.708 -20.148   5.875  0.00  0.00    +0.081 C 
ATOM     17  C   LIG    1       27.004 -20.865   6.250  0.00  0.00    +0.020 C 
ENDBRANCH  15  16
BRANCH  15  18
ATOM     18  C   LIG    1       23.777 -21.277   4.931  0.00  0.00    +0.081 C 
ATOM     19  C   LIG    1       23.094 -20.892   6.243  0.00  0.00    +0.020 C 
ENDBRANCH  15  18
ENDBRANCH  14  15
ENDBRANCH  13  14
ENDBRANCH  12  13
ENDBRANCH  10  12
ENDBRANCH   2  10
BRANCH   1  20
ATOM     20  O   LIG    1       23.916 -15.592   4.710  0.00  0.00    -0.491 OA
BRANCH  20  21
ATOM     21  C   LIG    1       22.572 -16.012   4.443  0.00  0.00    +0.229 C 
BRANCH  21  23
ATOM     22  C   LIG    1       21.642 -18.255   3.754  0.00  0.00    +0.007 C 
ATOM     23  C   LIG    1       22.354 -17.472   4.840  0.00  0.00    +0.037 C 
ENDBRANCH  21  23
ENDBRANCH  20  21
ENDBRANCH   1  20
TORSDOF 11
ENDMDL
MODEL 4
REMARK VINA RESULT:      -4.6      1.003      1.749
REMARK  Name = *****
REMARK                            x       y       z     vdW  Elec       q    Type
REMARK                         _______ _______ _______ _____ _____    ______ ____
ROOT
ATOM      1  C   LIG    1       25.127 -20.008   4.754  0.00  0.00    +0.136 A 
ATOM      2  C   LIG    1       24.727 -18.863   4.049  0.00  0.00    +0.101 A 
ATOM      3  C   LIG    1       23.359 -18.563   3.919  0.00  0.00    +0.020 A 
ATOM      4  C   LIG    1       22.392 -19.450   4.378  0.00  0.00    +0.024 A 
ATOM      5  C   LIG    1       22.779 -20.662   4.934  0.00  0.00    +0.028 A 
ATOM      6  C   LIG    1       24.131 -20.876   5.228  0.00  0.00    +0.069 A 
ENDROOT
BRANCH   5   7
ATOM      7  N   LIG    1       21.806 -21.571   5.369  0.00  0.00    -0.358 N 
ATOM      8  H   LIG    1       21.724 -22.372   4.748  0.00  0.00    +0.142 HD
ATOM      9  H   LIG    1       21.953 -21.870   6.330  0.00  0.00    +0.142 HD
ENDBRANCH   5   7
BRANCH   2  10
ATOM     10  C   LIG    1       25.625 -17.925   3.325  0.00  0.00    +0.343 C 
ATOM     11  O   LIG    1       26.413 -18.312   2.483  0.00  0.00    -0.245 OA
BRANCH  10  12
ATOM     12  O   LIG    1       25.354 -16.629   3.609  0.00  0.00    -0.460 OA
BRANCH  12  13
ATOM     13  C   LIG    1       26.509 -15.772   3.569  0.00  0.00    +0.247 C 
BRANCH  13  14
ATOM     14  C   LIG    1       26.357 -14.634   2.546  0.00  0.00    +0.125 C 
BRANCH  14  15
ATOM     15  N   LIG    1       25.975 -13.325   3.118  0.00  0.00    -0.300 NA
BRANCH  15  16
ATOM     16  C   LIG    1       24.823 -12.733   2.419  0.00  0.00    +0.081 C 
ATOM     17  C   LIG    1       23.868 -11.996   3.358  0.00  0.00    +0.020 C 
ENDBRANCH  15  16
BRANCH  15  18
ATOM     18  C   LIG    1       25.749 -13.347   4.578  0.00  0.00    +0.081 C 
ATOM     19  C   LIG    1       26.979 -13.301   5.484  0.00  0.00    +0.020 C 
ENDBRANCH  15  18
ENDBRANCH  14  15
ENDBRANCH  13  14
ENDBRANCH  12  13
ENDBRANCH  10  12
ENDBRANCH   2  10
BRANCH   1  20
ATOM     20  O   LIG    1       26.465 -20.241   4.945  0.00  0.00    -0.491 OA
BRANCH  20  21
ATOM     21  C   LIG    1       26.955 -20.405   6.282  0.00  0.00    +0.229 C 
BRANCH  21  23
ATOM     22  C   LIG    1       29.091 -19.079   6.063  0.00  0.00    +0.007 C 
ATOM     23  C   LIG    1       28.482 -20.445   6.316  0.00  0.00    +0.037 C 
ENDBRANCH  21  23
ENDBRANCH  20  21
ENDBRANCH   1  20
TORSDOF 11
ENDMDL
MODEL 5
REMARK VINA RESULT:      -4.4      1.831      3.840
REMARK  Name = *****
REMARK                            x       y       z     vdW  Elec       q    Type
REMARK                         _______ _______ _______ _____ _____    ______ ____
ROOT
ATOM      1  C   LIG    1       26.302 -20.110   5.135  0.00  0.00    +0.136 A 
ATOM      2  C   LIG    1       26.615 -18.947   4.416  0.00  0.00    +0.101 A 
ATOM      3  C   LIG    1       27.915 -18.414   4.479  0.00  0.00    +0.020 A 
ATOM      4  C   LIG    1       28.862 -18.957   5.338  0.00  0.00    +0.024 A 
ATOM      5  C   LIG    1       28.512 -20.010   6.173  0.00  0.00    +0.028 A 
ATOM      6  C   LIG    1       27.284 -20.652   5.978  0.00  0.00    +0.069 A 
ENDROOT
BRANCH   5   7
ATOM      7  N   LIG    1       29.456 -20.538   7.062  0.00  0.00    -0.358 N 
ATOM      8  H   LIG    1       29.641 -19.913   7.842  0.00  0.00    +0.142 HD
ATOM      9  H   LIG    1       29.204 -21.466   7.392  0.00  0.00    +0.142 HD
ENDBRANCH   5   7
BRANCH   2  10
ATOM     10  C   LIG    1       25.663 -18.131   3.616  0.00  0.00    +0.343 C 
ATOM     11  O   LIG    1       24.482 -18.411   3.543  0.00  0.00    -0.245 OA
BRANCH  10  12
ATOM     12  O   LIG    1       26.235 -17.006   3.125  0.00  0.00    -0.460 OA
BRANCH  12  13
ATOM     13  C   LIG    1       25.492 -15.806   3.408  0.00  0.00    +0.247 C 
BRANCH  13  14
ATOM     14  C   LIG    1       26.213 -14.542   2.912  0.00  0.00    +0.125 C 
BRANCH  14  15
ATOM     15  N   LIG    1       25.911 -13.311   3.674  0.00  0.00    -0.300 NA
BRANCH  15  16
ATOM     16  C   LIG    1       24.471 -13.163   3.937  0.00  0.00    +0.081 C 
ATOM     17  C   LIG    1       23.894 -11.858   3.393  0.00  0.00    +0.020 C 
ENDBRANCH  15  16
BRANCH  15  18
ATOM     18  C   LIG    1       26.690 -13.167   4.921  0.00  0.00    +0.081 C 
ATOM     19  C   LIG    1       28.197 -12.944   4.791  0.00  0.00    +0.020 C 
ENDBRANCH  15  18
ENDBRANCH  14  15
ENDBRANCH  13  14
ENDBRANCH  12  13
ENDBRANCH  10  12
ENDBRANCH   2  10
BRANCH   1  20
ATOM     20  O   LIG    1       25.055 -20.665   4.996  0.00  0.00    -0.491 OA
BRANCH  20  21
ATOM     21  C   LIG    1       24.211 -20.767   6.150  0.00  0.00    +0.229 C 
BRANCH  21  23
ATOM     22  C   LIG    1       22.037 -20.822   4.870  0.00  0.00    +0.007 C 
ATOM     23  C   LIG    1       22.859 -20.093   5.915  0.00  0.00    +0.037 C 
ENDBRANCH  21  23
ENDBRANCH  20  21
ENDBRANCH   1  20
TORSDOF 11
ENDMDL
MODEL 6
REMARK VINA RESULT:      -4.1      2.149      7.306
REMARK  Name = *****
REMARK                            x       y       z     vdW  Elec       q    Type
REMARK                         _______ _______ _______ _____ _____    ______ ____
ROOT
ATOM      1  C   LIG    1       26.090 -13.789   2.904  0.00  0.00    +0.136 A 
ATOM      2  C   LIG    1       26.204 -15.013   3.581  0.00  0.00    +0.101 A 
ATOM      3  C   LIG    1       27.347 -15.281   4.356  0.00  0.00    +0.020 A 
ATOM      4  C   LIG    1       28.420 -14.397   4.364  0.00  0.00    +0.024 A 
ATOM      5  C   LIG    1       28.381 -13.259   3.569  0.00  0.00    +0.028 A 
ATOM      6  C   LIG    1       27.179 -12.904   2.948  0.00  0.00    +0.069 A 
ENDROOT
BRANCH   5   7
ATOM      7  N   LIG    1       29.474 -12.384   3.553  0.00  0.00    -0.358 N 
ATOM      8  H   LIG    1       29.628 -11.980   2.632  0.00  0.00    +0.142 HD
ATOM      9  H   LIG    1       29.403 -11.657   4.261  0.00  0.00    +0.142 HD
ENDBRANCH   5   7
BRANCH   2  10
ATOM     10  C   LIG    1       25.242 -16.144   3.508  0.00  0.00    +0.343 C 
ATOM     11  O   LIG    1       24.088 -16.030   3.878  0.00  0.00    -0.245 OA
BRANCH  10  12
ATOM     12  O   LIG    1       25.758 -17.220   2.869  0.00  0.00    -0.460 OA
BRANCH  12  13
ATOM     13  C   LIG    1       25.797 -18.411   3.675  0.00  0.00    +0.247 C 
BRANCH  13  14
ATOM     14  C   LIG    1       24.681 -19.402   3.306  0.00  0.00    +0.125 C 
BRANCH  14  15
ATOM     15  N   LIG    1       24.392 -20.429   4.331  0.00  0.00    -0.300 NA
BRANCH  15  16
ATOM     16  C   LIG    1       25.414 -20.453   5.391  0.00  0.00    +0.081 C 
ATOM     17  C   LIG    1       24.848 -20.833   6.758  0.00  0.00    +0.020 C 
ENDBRANCH  15  16
BRANCH  15  18
ATOM     18  C   LIG    1       23.036 -20.338   4.911  0.00  0.00    +0.081 C 
ATOM     19  C   LIG    1       22.299 -19.006   4.776  0.00  0.00    +0.020 C 
ENDBRANCH  15  18
ENDBRANCH  14  15
ENDBRANCH  13  14
ENDBRANCH  12  13
ENDBRANCH  10  12
ENDBRANCH   2  10
BRANCH   1  20
ATOM     20  O   LIG    1       24.933 -13.508   2.223  0.00  0.00    -0.491 OA
BRANCH  20  21
ATOM     21  C   LIG    1       24.658 -12.149   1.858  0.00  0.00    +0.229 C 
BRANCH  21  23
ATOM     22  C   LIG    1       23.833 -12.182   4.243  0.00  0.00    +0.007 C 
ATOM     23  C   LIG    1       23.807 -11.448   2.916  0.00  0.00    +0.037 C 
ENDBRANCH  21  23
ENDBRANCH  20  21
ENDBRANCH   1  20
TORSDOF 11
ENDMDL
MODEL 7
REMARK VINA RESULT:      -3.5      1.884      7.423
REMARK  Name = *****
REMARK                            x       y       z     vdW  Elec       q    Type
REMARK                         _______ _______ _______ _____ _____    ______ ____
ROOT
ATOM      1  C   LIG    1       26.299 -13.997   2.730  0.00  0.00    +0.136 A 
ATOM      2  C   LIG    1       26.311 -15.064   3.640  0.00  0.00    +0.101 A 
ATOM      3  C   LIG    1       27.295 -15.119   4.644  0.00  0.00    +0.020 A 
ATOM      4  C   LIG    1       28.329 -14.191   4.672  0.00  0.00    +0.024 A 
ATOM      5  C   LIG    1       28.416 -13.226   3.677  0.00  0.00    +0.028 A 
ATOM      6  C   LIG    1       27.343 -13.061   2.794  0.00  0.00    +0.069 A 
ENDROOT
BRANCH   5   7
ATOM      7  N   LIG    1       29.475 -12.309   3.686  0.00  0.00    -0.358 N 
ATOM      8  H   LIG    1       29.690 -11.981   4.624  0.00  0.00    +0.142 HD
ATOM      9  H   LIG    1       30.307 -12.670   3.228  0.00  0.00    +0.142 HD
ENDBRANCH   5   7
BRANCH   2  10
ATOM     10  C   LIG    1       25.402 -16.241   3.618  0.00  0.00    +0.343 C 
ATOM     11  O   LIG    1       24.197 -16.123   3.735  0.00  0.00    -0.245 OA
BRANCH  10  12
ATOM     12  O   LIG    1       26.053 -17.390   3.317  0.00  0.00    -0.460 OA
BRANCH  12  13
ATOM     13  C   LIG    1       25.205 -18.552   3.306  0.00  0.00    +0.247 C 
BRANCH  13  14
ATOM     14  C   LIG    1       25.764 -19.693   4.171  0.00  0.00    +0.125 C 
BRANCH  14  15
ATOM     15  N   LIG    1       24.840 -20.206   5.204  0.00  0.00    -0.300 NA
BRANCH  15  16
ATOM     16  C   LIG    1       23.815 -21.096   4.636  0.00  0.00    +0.081 C 
ATOM     17  C   LIG    1       22.392 -20.685   5.007  0.00  0.00    +0.020 C 
ENDBRANCH  15  16
BRANCH  15  18
ATOM     18  C   LIG    1       25.514 -20.847   6.352  0.00  0.00    +0.081 C 
ATOM     19  C   LIG    1       27.025 -20.656   6.480  0.00  0.00    +0.020 C 
ENDBRANCH  15  18
ENDBRANCH  14  15
ENDBRANCH  13  14
ENDBRANCH  12  13
ENDBRANCH  10  12
ENDBRANCH   2  10
BRANCH   1  20
ATOM     20  O   LIG    1       25.284 -13.913   1.812  0.00  0.00    -0.491 OA
BRANCH  20  21
ATOM     21  C   LIG    1       24.260 -12.928   2.001  0.00  0.00    +0.229 C 
BRANCH  21  23
ATOM     22  C   LIG    1       23.854 -12.354   4.425  0.00  0.00    +0.007 C 
ATOM     23  C   LIG    1       24.598 -11.986   3.156  0.00  0.00    +0.037 C 
ENDBRANCH  21  23
ENDBRANCH  20  21
ENDBRANCH   1  20
TORSDOF 11
ENDMDL
MODEL 8
REMARK VINA RESULT:      -3.0      1.836      6.392
REMARK  Name = *****
REMARK                            x       y       z     vdW  Elec       q    Type
REMARK                         _______ _______ _______ _____ _____    ______ ____
ROOT
ATOM      1  C   LIG    1       25.735 -15.857   3.485  0.00  0.00    +0.136 A 
ATOM      2  C   LIG    1       24.574 -15.216   3.944  0.00  0.00    +0.101 A 
ATOM      3  C   LIG    1       24.544 -13.815   4.052  0.00  0.00    +0.020 A 
ATOM      4  C   LIG    1       25.690 -13.062   3.824  0.00  0.00    +0.024 A 
ATOM      5  C   LIG    1       26.885 -13.701   3.526  0.00  0.00    +0.028 A 
ATOM      6  C   LIG    1       26.871 -15.072   3.240  0.00  0.00    +0.069 A 
ENDROOT
BRANCH   5   7
ATOM      7  N   LIG    1       28.048 -12.947   3.326  0.00  0.00    -0.358 N 
ATOM      8  H   LIG    1       27.867 -11.947   3.362  0.00  0.00    +0.142 HD
ATOM      9  H   LIG    1       28.795 -13.204   3.966  0.00  0.00    +0.142 HD
ENDBRANCH   5   7
BRANCH   2  10
ATOM     10  C   LIG    1       23.337 -15.888   4.423  0.00  0.00    +0.343 C 
ATOM     11  O   LIG    1       22.455 -15.277   4.996  0.00  0.00    -0.245 OA
BRANCH  10  12
ATOM     12  O   LIG    1       23.263 -17.180   4.022  0.00  0.00    -0.460 OA
BRANCH  12  13
ATOM     13  C   LIG    1       22.321 -17.968   4.770  0.00  0.00    +0.247 C 
BRANCH  13  14
ATOM     14  C   LIG    1       22.125 -19.370   4.171  0.00  0.00    +0.125 C 
BRANCH  14  15
ATOM     15  N   LIG    1       22.550 -20.488   5.041  0.00  0.00    -0.300 NA
BRANCH  15  16
ATOM     16  C   LIG    1       23.568 -21.333   4.398  0.00  0.00    +0.081 C 
ATOM     17  C   LIG    1       23.889 -20.899   2.968  0.00  0.00    +0.020 C 
ENDBRANCH  15  16
BRANCH  15  18
ATOM     18  C   LIG    1       22.989 -20.070   6.389  0.00  0.00    +0.081 C 
ATOM     19  C   LIG    1       24.085 -20.897   7.062  0.00  0.00    +0.020 C 
ENDBRANCH  15  18
ENDBRANCH  14  15
ENDBRANCH  13  14
ENDBRANCH  12  13
ENDBRANCH  10  12
ENDBRANCH   2  10
BRANCH   1  20
ATOM     20  O   LIG    1       25.720 -17.216   3.304  0.00  0.00    -0.491 OA
BRANCH  20  21
ATOM     21  C   LIG    1       26.846 -17.985   3.746  0.00  0.00    +0.229 C 
BRANCH  21  23
ATOM     22  C   LIG    1       27.434 -19.748   5.454  0.00  0.00    +0.007 C 
ATOM     23  C   LIG    1       26.404 -19.269   4.449  0.00  0.00    +0.037 C 
ENDBRANCH  21  23
ENDBRANCH  20  21
ENDBRANCH   1  20
TORSDOF 11
ENDMDL
MODEL 9
REMARK VINA RESULT:      -3.0      1.597      3.236
REMARK  Name = *****
REMARK                            x       y       z     vdW  Elec       q    Type
REMARK                         _______ _______ _______ _____ _____    ______ ____
ROOT
ATOM      1  C   LIG    1       23.307 -19.161   4.269  0.00  0.00    +0.136 A 
ATOM      2  C   LIG    1       24.702 -19.229   4.130  0.00  0.00    +0.101 A 
ATOM      3  C   LIG    1       25.433 -20.178   4.867  0.00  0.00    +0.020 A 
ATOM      4  C   LIG    1       24.806 -20.970   5.821  0.00  0.00    +0.024 A 
ATOM      5  C   LIG    1       23.453 -20.796   6.079  0.00  0.00    +0.028 A 
ATOM      6  C   LIG    1       22.696 -19.988   5.223  0.00  0.00    +0.069 A 
ENDROOT
BRANCH   5   7
ATOM      7  N   LIG    1       22.826 -21.572   7.062  0.00  0.00    -0.358 N 
ATOM      8  H   LIG    1       22.586 -21.026   7.886  0.00  0.00    +0.142 HD
ATOM      9  H   LIG    1       22.013 -22.069   6.707  0.00  0.00    +0.142 HD
ENDBRANCH   5   7
BRANCH   2  10
ATOM     10  C   LIG    1       25.544 -18.319   3.309  0.00  0.00    +0.343 C 
ATOM     11  O   LIG    1       25.890 -18.609   2.180  0.00  0.00    -0.245 OA
BRANCH  10  12
ATOM     12  O   LIG    1       25.738 -17.118   3.905  0.00  0.00    -0.460 OA
BRANCH  12  13
ATOM     13  C   LIG    1       26.874 -16.395   3.399  0.00  0.00    +0.247 C 
BRANCH  13  14
ATOM     14  C   LIG    1       26.484 -15.029   2.813  0.00  0.00    +0.125 C 
BRANCH  14  15
ATOM     15  N   LIG    1       25.928 -14.066   3.788  0.00  0.00    -0.300 NA
BRANCH  15  16
ATOM     16  C   LIG    1       26.937 -13.625   4.765  0.00  0.00    +0.081 C 
ATOM     17  C   LIG    1       28.191 -13.048   4.111  0.00  0.00    +0.020 C 
ENDBRANCH  15  16
BRANCH  15  18
ATOM     18  C   LIG    1       25.253 -12.905   3.171  0.00  0.00    +0.081 C 
ATOM     19  C   LIG    1       23.889 -12.502   3.732  0.00  0.00    +0.020 C 
ENDBRANCH  15  18
ENDBRANCH  14  15
ENDBRANCH  13  14
ENDBRANCH  12  13
ENDBRANCH  10  12
ENDBRANCH   2  10
BRANCH   1  20
ATOM     20  O   LIG    1       22.600 -18.289   3.481  0.00  0.00    -0.491 OA
BRANCH  20  21
ATOM     21  C   LIG    1       21.779 -17.298   4.111  0.00  0.00    +0.229 C 
BRANCH  21  23
ATOM     22  C   LIG    1       22.071 -15.568   5.926  0.00  0.00    +0.007 C 
ATOM     23  C   LIG    1       22.614 -16.124   4.624  0.00  0.00    +0.037 C 
ENDBRANCH  21  23
ENDBRANCH  20  21
ENDBRANCH   1  20
TORSDOF 11
ENDMDL
