MODEL 1
REMARK VINA RESULT:      -9.8      0.000      0.000
REMARK  Name = *****
REMARK                            x       y       z     vdW  Elec       q    Type
REMARK                         _______ _______ _______ _____ _____    ______ ____
ROOT
ATOM      1  C   LIG    1       25.371 -21.866   6.850  0.00  0.00    +0.131 C 
ENDROOT
BRANCH   1   2
ATOM      2  C   LIG    1       26.917 -21.448   6.809  0.00  0.00    +0.094 C 
ATOM      3  N   LIG    1       27.529 -21.507   8.175  0.00  0.00    -0.310 NA
ATOM      4  H   LIG    1       27.049 -20.819   8.762  0.00  0.00    +0.122 HD
ATOM      5  C   LIG    1       28.954 -21.159   8.149  0.00  0.00    +0.081 C 
ATOM      6  C   LIG    1       29.179 -19.762   7.578  0.00  0.00    +0.015 C 
ATOM      7  C   LIG    1       28.647 -19.688   6.156  0.00  0.00    +0.003 C 
ATOM      8  C   LIG    1       27.175 -20.084   6.128  0.00  0.00    +0.022 C 
ENDBRANCH   1   2
BRANCH   1   9
ATOM      9  C   LIG    1       24.518 -20.966   5.913  0.00  0.00    -0.010 A 
ATOM     10  C   LIG    1       24.876 -20.769   4.560  0.00  0.00    +0.007 A 
ATOM     11  C   LIG    1       24.110 -19.968   3.708  0.00  0.00    +0.000 A 
ATOM     12  C   LIG    1       22.968 -19.338   4.186  0.00  0.00    +0.000 A 
ATOM     13  C   LIG    1       22.581 -19.525   5.512  0.00  0.00    +0.000 A 
ATOM     14  C   LIG    1       23.343 -20.336   6.362  0.00  0.00    +0.007 A 
ENDBRANCH   1   9
BRANCH   1  15
ATOM     15  C   LIG    1       25.093 -23.375   6.692  0.00  0.00    -0.010 A 
ATOM     16  C   LIG    1       26.155 -24.291   6.670  0.00  0.00    +0.007 A 
ATOM     17  C   LIG    1       25.941 -25.662   6.499  0.00  0.00    +0.000 A 
ATOM     18  C   LIG    1       24.643 -26.155   6.344  0.00  0.00    +0.000 A 
ATOM     19  C   LIG    1       23.576 -25.277   6.345  0.00  0.00    +0.000 A 
ATOM     20  C   LIG    1       23.795 -23.903   6.499  0.00  0.00    +0.007 A 
ENDBRANCH   1  15
BRANCH   1  21
ATOM     21  O   LIG    1       24.927 -21.589   8.204  0.00  0.00    -0.378 OA
ATOM     22  H   LIG    1       25.753 -21.562   8.728  0.00  0.00    +0.211 HD
ENDBRANCH   1  21
TORSDOF 4
ENDMDL
MODEL 2
REMARK VINA RESULT:      -9.8      1.271      5.364
REMARK  Name = *****
REMARK                            x       y       z     vdW  Elec       q    Type
REMARK                         _______ _______ _______ _____ _____    ______ ____
ROOT
ATOM      1  C   LIG    1       25.713 -21.568   6.542  0.00  0.00    +0.131 C 
ENDROOT
BRANCH   1   2
ATOM      2  C   LIG    1       25.780 -23.111   6.115  0.00  0.00    +0.094 C 
ATOM      3  N   LIG    1       24.773 -23.421   5.049  0.00  0.00    -0.310 NA
ATOM      4  H   LIG    1       23.842 -23.261   5.443  0.00  0.00    +0.122 HD
ATOM      5  C   LIG    1       24.846 -24.824   4.625  0.00  0.00    +0.081 C 
ATOM      6  C   LIG    1       24.620 -25.776   5.795  0.00  0.00    +0.015 C 
ATOM      7  C   LIG    1       25.678 -25.550   6.863  0.00  0.00    +0.003 C 
ATOM      8  C   LIG    1       25.669 -24.090   7.306  0.00  0.00    +0.022 C 
ENDBRANCH   1   2
BRANCH   1   9
ATOM      9  C   LIG    1       27.136 -20.965   6.704  0.00  0.00    -0.010 A 
ATOM     10  C   LIG    1       28.025 -21.443   7.693  0.00  0.00    +0.007 A 
ATOM     11  C   LIG    1       29.310 -20.913   7.841  0.00  0.00    +0.000 A 
ATOM     12  C   LIG    1       29.740 -19.886   7.009  0.00  0.00    +0.000 A 
ATOM     13  C   LIG    1       28.889 -19.404   6.015  0.00  0.00    +0.000 A 
ATOM     14  C   LIG    1       27.606 -19.943   5.861  0.00  0.00    +0.007 A 
ENDBRANCH   1   9
BRANCH   1  15
ATOM     15  C   LIG    1       24.754 -20.695   5.705  0.00  0.00    -0.010 A 
ATOM     16  C   LIG    1       23.457 -20.427   6.169  0.00  0.00    +0.007 A 
ATOM     17  C   LIG    1       22.554 -19.663   5.423  0.00  0.00    +0.000 A 
ATOM     18  C   LIG    1       22.930 -19.145   4.181  0.00  0.00    +0.000 A 
ATOM     19  C   LIG    1       24.195 -19.405   3.690  0.00  0.00    +0.000 A 
ATOM     20  C   LIG    1       25.092 -20.183   4.430  0.00  0.00    +0.007 A 
ENDBRANCH   1  15
BRANCH   1  21
ATOM     21  O   LIG    1       25.105 -21.553   7.860  0.00  0.00    -0.378 OA
ATOM     22  H   LIG    1       25.844 -21.755   8.469  0.00  0.00    +0.211 HD
ENDBRANCH   1  21
TORSDOF 4
ENDMDL
MODEL 3
REMARK VINA RESULT:      -9.2      1.314      5.330
REMARK  Name = *****
REMARK                            x       y       z     vdW  Elec       q    Type
REMARK                         _______ _______ _______ _____ _____    ______ ____
ROOT
ATOM      1  C   LIG    1       24.945 -21.320   6.632  0.00  0.00    +0.131 C 
ENDROOT
BRANCH   1   2
ATOM      2  C   LIG    1       24.099 -20.688   5.427  0.00  0.00    +0.094 C 
ATOM      3  N   LIG    1       24.952 -19.793   4.580  0.00  0.00    -0.310 NA
ATOM      4  H   LIG    1       25.265 -19.014   5.166  0.00  0.00    +0.122 HD
ATOM      5  C   LIG    1       24.199 -19.233   3.453  0.00  0.00    +0.081 C 
ATOM      6  C   LIG    1       22.987 -18.438   3.928  0.00  0.00    +0.015 C 
ATOM      7  C   LIG    1       22.052 -19.337   4.721  0.00  0.00    +0.003 C 
ATOM      8  C   LIG    1       22.805 -19.978   5.883  0.00  0.00    +0.022 C 
ENDBRANCH   1   2
BRANCH   1   9
ATOM      9  C   LIG    1       24.890 -22.873   6.607  0.00  0.00    -0.010 A 
ATOM     10  C   LIG    1       23.662 -23.560   6.474  0.00  0.00    +0.007 A 
ATOM     11  C   LIG    1       23.603 -24.957   6.441  0.00  0.00    +0.000 A 
ATOM     12  C   LIG    1       24.769 -25.705   6.546  0.00  0.00    +0.000 A 
ATOM     13  C   LIG    1       25.996 -25.055   6.664  0.00  0.00    +0.000 A 
ATOM     14  C   LIG    1       26.056 -23.656   6.685  0.00  0.00    +0.007 A 
ENDBRANCH   1   9
BRANCH   1  15
ATOM     15  C   LIG    1       26.367 -20.747   6.810  0.00  0.00    -0.010 A 
ATOM     16  C   LIG    1       26.875 -20.507   8.096  0.00  0.00    +0.007 A 
ATOM     17  C   LIG    1       28.148 -19.962   8.293  0.00  0.00    +0.000 A 
ATOM     18  C   LIG    1       28.951 -19.640   7.196  0.00  0.00    +0.000 A 
ATOM     19  C   LIG    1       28.472 -19.850   5.917  0.00  0.00    +0.000 A 
ATOM     20  C   LIG    1       27.192 -20.380   5.722  0.00  0.00    +0.007 A 
ENDBRANCH   1  15
BRANCH   1  21
ATOM     21  O   LIG    1       24.268 -20.904   7.846  0.00  0.00    -0.378 OA
ATOM     22  H   LIG    1       24.406 -19.936   7.880  0.00  0.00    +0.211 HD
ENDBRANCH   1  21
TORSDOF 4
ENDMDL
MODEL 4
REMARK VINA RESULT:      -9.2      1.311      5.310
REMARK  Name = *****
REMARK                            x       y       z     vdW  Elec       q    Type
REMARK                         _______ _______ _______ _____ _____    ______ ____
ROOT
ATOM      1  C   LIG    1       24.882 -21.367   6.665  0.00  0.00    +0.131 C 
ENDROOT
BRANCH   1   2
ATOM      2  C   LIG    1       24.050 -20.739   5.448  0.00  0.00    +0.094 C 
ATOM      3  N   LIG    1       24.935 -19.932   4.548  0.00  0.00    -0.310 NA
ATOM      4  H   LIG    1       25.304 -19.148   5.093  0.00  0.00    +0.122 HD
ATOM      5  C   LIG    1       24.194 -19.378   3.409  0.00  0.00    +0.081 C 
ATOM      6  C   LIG    1       23.039 -18.496   3.870  0.00  0.00    +0.015 C 
ATOM      7  C   LIG    1       22.069 -19.304   4.717  0.00  0.00    +0.003 C 
ATOM      8  C   LIG    1       22.806 -19.937   5.893  0.00  0.00    +0.022 C 
ENDBRANCH   1   2
BRANCH   1   9
ATOM      9  C   LIG    1       24.864 -22.920   6.619  0.00  0.00    -0.010 A 
ATOM     10  C   LIG    1       23.655 -23.635   6.463  0.00  0.00    +0.007 A 
ATOM     11  C   LIG    1       23.631 -25.032   6.412  0.00  0.00    +0.000 A 
ATOM     12  C   LIG    1       24.813 -25.753   6.520  0.00  0.00    +0.000 A 
ATOM     13  C   LIG    1       26.023 -25.075   6.660  0.00  0.00    +0.000 A 
ATOM     14  C   LIG    1       26.048 -23.676   6.700  0.00  0.00    +0.007 A 
ENDBRANCH   1   9
BRANCH   1  15
ATOM     15  C   LIG    1       26.284 -20.763   6.885  0.00  0.00    -0.010 A 
ATOM     16  C   LIG    1       27.102 -20.457   5.787  0.00  0.00    +0.007 A 
ATOM     17  C   LIG    1       28.388 -19.935   5.951  0.00  0.00    +0.000 A 
ATOM     18  C   LIG    1       28.894 -19.705   7.233  0.00  0.00    +0.000 A 
ATOM     19  C   LIG    1       28.119 -20.011   8.336  0.00  0.00    +0.000 A 
ATOM     20  C   LIG    1       26.838 -20.549   8.169  0.00  0.00    +0.007 A 
ENDBRANCH   1  15
BRANCH   1  21
ATOM     21  O   LIG    1       24.165 -20.983   7.867  0.00  0.00    -0.378 OA
ATOM     22  H   LIG    1       24.861 -20.644   8.466  0.00  0.00    +0.211 HD
ENDBRANCH   1  21
TORSDOF 4
ENDMDL
MODEL 5
REMARK VINA RESULT:      -7.6      1.717      4.671
REMARK  Name = *****
REMARK                            x       y       z     vdW  Elec       q    Type
REMARK                         _______ _______ _______ _____ _____    ______ ____
ROOT
ATOM      1  C   LIG    1       24.876 -20.931   5.062  0.00  0.00    +0.131 C 
ENDROOT
BRANCH   1   2
ATOM      2  C   LIG    1       26.027 -20.299   5.980  0.00  0.00    +0.094 C 
ATOM      3  N   LIG    1       27.347 -20.303   5.272  0.00  0.00    -0.310 NA
ATOM      4  H   LIG    1       27.605 -21.279   5.099  0.00  0.00    +0.122 HD
ATOM      5  C   LIG    1       28.404 -19.697   6.088  0.00  0.00    +0.081 C 
ATOM      6  C   LIG    1       28.568 -20.420   7.420  0.00  0.00    +0.015 C 
ATOM      7  C   LIG    1       27.270 -20.362   8.209  0.00  0.00    +0.003 C 
ATOM      8  C   LIG    1       26.130 -20.945   7.381  0.00  0.00    +0.022 C 
ENDBRANCH   1   2
BRANCH   1   9
ATOM      9  C   LIG    1       24.417 -22.314   5.604  0.00  0.00    -0.010 A 
ATOM     10  C   LIG    1       25.125 -23.496   5.288  0.00  0.00    +0.007 A 
ATOM     11  C   LIG    1       24.725 -24.743   5.777  0.00  0.00    +0.000 A 
ATOM     12  C   LIG    1       23.604 -24.844   6.592  0.00  0.00    +0.000 A 
ATOM     13  C   LIG    1       22.895 -23.693   6.932  0.00  0.00    +0.000 A 
ATOM     14  C   LIG    1       23.302 -22.443   6.450  0.00  0.00    +0.007 A 
ENDBRANCH   1   9
BRANCH   1  15
ATOM     15  C   LIG    1       23.714 -19.978   4.714  0.00  0.00    -0.010 A 
ATOM     16  C   LIG    1       22.389 -20.438   4.751  0.00  0.00    +0.007 A 
ATOM     17  C   LIG    1       21.313 -19.610   4.414  0.00  0.00    +0.000 A 
ATOM     18  C   LIG    1       21.541 -18.287   4.025  0.00  0.00    +0.000 A 
ATOM     19  C   LIG    1       22.836 -17.809   3.963  0.00  0.00    +0.000 A 
ATOM     20  C   LIG    1       23.912 -18.645   4.285  0.00  0.00    +0.007 A 
ENDBRANCH   1  15
BRANCH   1  21
ATOM     21  O   LIG    1       25.496 -21.179   3.773  0.00  0.00    -0.378 OA
ATOM     22  H   LIG    1       24.989 -21.928   3.401  0.00  0.00    +0.211 HD
ENDBRANCH   1  21
TORSDOF 4
ENDMDL
MODEL 6
REMARK VINA RESULT:      -7.4      5.659      9.444
REMARK  Name = *****
REMARK                            x       y       z     vdW  Elec       q    Type
REMARK                         _______ _______ _______ _____ _____    ______ ____
ROOT
ATOM      1  C   LIG    1       24.695 -29.663   6.424  0.00  0.00    +0.131 C 
ENDROOT
BRANCH   1   2
ATOM      2  C   LIG    1       25.685 -30.740   5.769  0.00  0.00    +0.094 C 
ATOM      3  N   LIG    1       25.059 -31.393   4.575  0.00  0.00    -0.310 NA
ATOM      4  H   LIG    1       24.232 -31.903   4.896  0.00  0.00    +0.122 HD
ATOM      5  C   LIG    1       25.966 -32.357   3.944  0.00  0.00    +0.081 C 
ATOM      6  C   LIG    1       26.393 -33.447   4.923  0.00  0.00    +0.015 C 
ATOM      7  C   LIG    1       27.112 -32.828   6.111  0.00  0.00    +0.003 C 
ATOM      8  C   LIG    1       26.220 -31.784   6.775  0.00  0.00    +0.022 C 
ENDBRANCH   1   2
BRANCH   1   9
ATOM      9  C   LIG    1       24.689 -29.771   7.974  0.00  0.00    -0.010 A 
ATOM     10  C   LIG    1       25.747 -29.245   8.749  0.00  0.00    +0.007 A 
ATOM     11  C   LIG    1       25.746 -29.329  10.145  0.00  0.00    +0.000 A 
ATOM     12  C   LIG    1       24.691 -29.947  10.804  0.00  0.00    +0.000 A 
ATOM     13  C   LIG    1       23.626 -30.462  10.067  0.00  0.00    +0.000 A 
ATOM     14  C   LIG    1       23.622 -30.367   8.670  0.00  0.00    +0.007 A 
ENDBRANCH   1   9
BRANCH   1  15
ATOM     15  C   LIG    1       24.849 -28.221   5.898  0.00  0.00    -0.010 A 
ATOM     16  C   LIG    1       25.803 -27.927   4.912  0.00  0.00    +0.007 A 
ATOM     17  C   LIG    1       25.990 -26.627   4.433  0.00  0.00    +0.000 A 
ATOM     18  C   LIG    1       25.217 -25.577   4.936  0.00  0.00    +0.000 A 
ATOM     19  C   LIG    1       24.280 -25.831   5.919  0.00  0.00    +0.000 A 
ATOM     20  C   LIG    1       24.107 -27.130   6.409  0.00  0.00    +0.007 A 
ENDBRANCH   1  15
BRANCH   1  21
ATOM     21  O   LIG    1       23.364 -30.035   5.980  0.00  0.00    -0.378 OA
ATOM     22  H   LIG    1       23.272 -29.605   5.106  0.00  0.00    +0.211 HD
ENDBRANCH   1  21
TORSDOF 4
ENDMDL
MODEL 7
REMARK VINA RESULT:      -7.0      2.105      4.537
REMARK  Name = *****
REMARK                            x       y       z     vdW  Elec       q    Type
REMARK                         _______ _______ _______ _____ _____    ______ ____
ROOT
ATOM      1  C   LIG    1       24.778 -21.531   5.373  0.00  0.00    +0.131 C 
ENDROOT
BRANCH   1   2
ATOM      2  C   LIG    1       23.474 -20.602   5.312  0.00  0.00    +0.094 C 
ATOM      3  N   LIG    1       22.348 -21.298   4.610  0.00  0.00    -0.310 NA
ATOM      4  H   LIG    1       22.639 -21.467   3.643  0.00  0.00    +0.122 HD
ATOM      5  C   LIG    1       21.136 -20.472   4.575  0.00  0.00    +0.081 C 
ATOM      6  C   LIG    1       21.387 -19.137   3.880  0.00  0.00    +0.015 C 
ATOM      7  C   LIG    1       22.467 -18.361   4.617  0.00  0.00    +0.003 C 
ATOM      8  C   LIG    1       23.737 -19.200   4.716  0.00  0.00    +0.022 C 
ENDBRANCH   1   2
BRANCH   1   9
ATOM      9  C   LIG    1       25.828 -20.964   6.369  0.00  0.00    -0.010 A 
ATOM     10  C   LIG    1       27.078 -20.481   5.918  0.00  0.00    +0.007 A 
ATOM     11  C   LIG    1       28.026 -19.961   6.805  0.00  0.00    +0.000 A 
ATOM     12  C   LIG    1       27.753 -19.914   8.166  0.00  0.00    +0.000 A 
ATOM     13  C   LIG    1       26.523 -20.370   8.638  0.00  0.00    +0.000 A 
ATOM     14  C   LIG    1       25.570 -20.881   7.748  0.00  0.00    +0.007 A 
ENDBRANCH   1   9
BRANCH   1  15
ATOM     15  C   LIG    1       24.504 -23.039   5.544  0.00  0.00    -0.010 A 
ATOM     16  C   LIG    1       23.630 -23.490   6.545  0.00  0.00    +0.007 A 
ATOM     17  C   LIG    1       23.381 -24.851   6.747  0.00  0.00    +0.000 A 
ATOM     18  C   LIG    1       24.010 -25.805   5.942  0.00  0.00    +0.000 A 
ATOM     19  C   LIG    1       24.888 -25.395   4.958  0.00  0.00    +0.000 A 
ATOM     20  C   LIG    1       25.148 -24.032   4.770  0.00  0.00    +0.007 A 
ENDBRANCH   1  15
BRANCH   1  21
ATOM     21  O   LIG    1       25.377 -21.452   4.053  0.00  0.00    -0.378 OA
ATOM     22  H   LIG    1       25.489 -22.386   3.783  0.00  0.00    +0.211 HD
ENDBRANCH   1  21
TORSDOF 4
ENDMDL
MODEL 8
REMARK VINA RESULT:      -7.0      1.476      4.631
REMARK  Name = *****
REMARK                            x       y       z     vdW  Elec       q    Type
REMARK                         _______ _______ _______ _____ _____    ______ ____
ROOT
ATOM      1  C   LIG    1       25.523 -21.182   5.582  0.00  0.00    +0.131 C 
ENDROOT
BRANCH   1   2
ATOM      2  C   LIG    1       24.930 -22.461   6.344  0.00  0.00    +0.094 C 
ATOM      3  N   LIG    1       25.797 -23.665   6.133  0.00  0.00    -0.310 NA
ATOM      4  H   LIG    1       25.789 -23.884   5.133  0.00  0.00    +0.122 HD
ATOM      5  C   LIG    1       25.285 -24.837   6.852  0.00  0.00    +0.081 C 
ATOM      6  C   LIG    1       23.863 -25.182   6.421  0.00  0.00    +0.015 C 
ATOM      7  C   LIG    1       22.934 -24.012   6.701  0.00  0.00    +0.003 C 
ATOM      8  C   LIG    1       23.452 -22.756   6.006  0.00  0.00    +0.022 C 
ENDBRANCH   1   2
BRANCH   1   9
ATOM      9  C   LIG    1       24.394 -20.197   5.171  0.00  0.00    -0.010 A 
ATOM     10  C   LIG    1       24.490 -19.424   3.991  0.00  0.00    +0.007 A 
ATOM     11  C   LIG    1       23.475 -18.541   3.609  0.00  0.00    +0.000 A 
ATOM     12  C   LIG    1       22.339 -18.403   4.397  0.00  0.00    +0.000 A 
ATOM     13  C   LIG    1       22.211 -19.163   5.558  0.00  0.00    +0.000 A 
ATOM     14  C   LIG    1       23.222 -20.054   5.935  0.00  0.00    +0.007 A 
ENDBRANCH   1   9
BRANCH   1  15
ATOM     15  C   LIG    1       26.726 -20.504   6.270  0.00  0.00    -0.010 A 
ATOM     16  C   LIG    1       27.730 -19.898   5.501  0.00  0.00    +0.007 A 
ATOM     17  C   LIG    1       28.847 -19.299   6.090  0.00  0.00    +0.000 A 
ATOM     18  C   LIG    1       28.989 -19.295   7.481  0.00  0.00    +0.000 A 
ATOM     19  C   LIG    1       28.025 -19.898   8.266  0.00  0.00    +0.000 A 
ATOM     20  C   LIG    1       26.916 -20.511   7.672  0.00  0.00    +0.007 A 
ENDBRANCH   1  15
BRANCH   1  21
ATOM     21  O   LIG    1       26.094 -21.692   4.349  0.00  0.00    -0.378 OA
ATOM     22  H   LIG    1       25.320 -21.856   3.774  0.00  0.00    +0.211 HD
ENDBRANCH   1  21
TORSDOF 4
ENDMDL
MODEL 9
REMARK VINA RESULT:      -6.9      5.657      9.297
REMARK  Name = *****
REMARK                            x       y       z     vdW  Elec       q    Type
REMARK                         _______ _______ _______ _____ _____    ______ ____
ROOT
ATOM      1  C   LIG    1       24.682 -30.191   6.374  0.00  0.00    +0.131 C 
ENDROOT
BRANCH   1   2
ATOM      2  C   LIG    1       24.880 -28.805   5.595  0.00  0.00    +0.094 C 
ATOM      3  N   LIG    1       26.334 -28.484   5.424  0.00  0.00    -0.310 NA
ATOM      4  H   LIG    1       26.738 -28.363   6.356  0.00  0.00    +0.122 HD
ATOM      5  C   LIG    1       26.531 -27.234   4.683  0.00  0.00    +0.081 C 
ATOM      6  C   LIG    1       25.855 -26.058   5.378  0.00  0.00    +0.015 C 
ATOM      7  C   LIG    1       24.360 -26.308   5.493  0.00  0.00    +0.003 C 
ATOM      8  C   LIG    1       24.106 -27.624   6.222  0.00  0.00    +0.022 C 
ENDBRANCH   1   2
BRANCH   1   9
ATOM      9  C   LIG    1       25.629 -31.291   5.819  0.00  0.00    -0.010 A 
ATOM     10  C   LIG    1       26.562 -31.945   6.655  0.00  0.00    +0.007 A 
ATOM     11  C   LIG    1       27.412 -32.942   6.167  0.00  0.00    +0.000 A 
ATOM     12  C   LIG    1       27.357 -33.309   4.828  0.00  0.00    +0.000 A 
ATOM     13  C   LIG    1       26.436 -32.692   3.982  0.00  0.00    +0.000 A 
ATOM     14  C   LIG    1       25.578 -31.701   4.475  0.00  0.00    +0.007 A 
ENDBRANCH   1   9
BRANCH   1  15
ATOM     15  C   LIG    1       24.679 -30.087   7.913  0.00  0.00    -0.010 A 
ATOM     16  C   LIG    1       23.603 -30.599   8.654  0.00  0.00    +0.007 A 
ATOM     17  C   LIG    1       23.554 -30.496  10.047  0.00  0.00    +0.000 A 
ATOM     18  C   LIG    1       24.592 -29.870  10.741  0.00  0.00    +0.000 A 
ATOM     19  C   LIG    1       25.659 -29.340  10.040  0.00  0.00    +0.000 A 
ATOM     20  C   LIG    1       25.697 -29.430   8.643  0.00  0.00    +0.007 A 
ENDBRANCH   1  15
BRANCH   1  21
ATOM     21  O   LIG    1       23.329 -30.620   6.071  0.00  0.00    -0.378 OA
ATOM     22  H   LIG    1       22.827 -29.787   5.977  0.00  0.00    +0.211 HD
ENDBRANCH   1  21
TORSDOF 4
ENDMDL
