MODEL 1
REMARK VINA RESULT:      -3.9      0.000      0.000
REMARK  Name = *****
REMARK                            x       y       z     vdW  Elec       q    Type
REMARK                         _______ _______ _______ _____ _____    ______ ____
ROOT
ATOM      1  C   LIG    1       22.659 -19.808   5.267  0.00  0.00    +0.418 C 
ATOM      2  F   LIG    1       21.679 -20.632   4.837  0.00  0.00    -0.168 F 
ATOM      3  F   LIG    1       22.161 -18.547   5.250  0.00  0.00    -0.168 F 
ATOM      4  F   LIG    1       22.932 -20.113   6.553  0.00  0.00    -0.168 F 
ENDROOT
BRANCH   1   6
ATOM      5  F   LIG    1       23.933 -18.870   3.500  0.00  0.00    -0.240 F 
ATOM      6  C   LIG    1       23.892 -19.897   4.393  0.00  0.00    +0.326 C 
ENDBRANCH   1   6
TORSDOF 1
ENDMDL
MODEL 2
REMARK VINA RESULT:      -3.9      0.052      1.542
REMARK  Name = *****
REMARK                            x       y       z     vdW  Elec       q    Type
REMARK                         _______ _______ _______ _____ _____    ______ ____
ROOT
ATOM      1  C   LIG    1       22.670 -19.791   5.273  0.00  0.00    +0.418 C 
ATOM      2  F   LIG    1       22.931 -20.118   6.557  0.00  0.00    -0.168 F 
ATOM      3  F   LIG    1       21.691 -20.621   4.837  0.00  0.00    -0.168 F 
ATOM      4  F   LIG    1       22.170 -18.537   5.251  0.00  0.00    -0.168 F 
ENDROOT
BRANCH   1   6
ATOM      5  F   LIG    1       23.912 -18.966   3.428  0.00  0.00    -0.240 F 
ATOM      6  C   LIG    1       23.898 -19.922   4.398  0.00  0.00    +0.326 C 
ENDBRANCH   1   6
TORSDOF 1
ENDMDL
MODEL 3
REMARK VINA RESULT:      -3.8      1.247      1.884
REMARK  Name = *****
REMARK                            x       y       z     vdW  Elec       q    Type
REMARK                         _______ _______ _______ _____ _____    ______ ____
ROOT
ATOM      1  C   LIG    1       22.562 -19.901   5.007  0.00  0.00    +0.418 C 
ATOM      2  F   LIG    1       21.533 -20.742   4.767  0.00  0.00    -0.168 F 
ATOM      3  F   LIG    1       22.745 -19.862   6.349  0.00  0.00    -0.168 F 
ATOM      4  F   LIG    1       23.678 -20.436   4.466  0.00  0.00    -0.168 F 
ENDROOT
BRANCH   1   6
ATOM      5  F   LIG    1       21.086 -18.461   3.834  0.00  0.00    -0.240 F 
ATOM      6  C   LIG    1       22.289 -18.512   4.473  0.00  0.00    +0.326 C 
ENDBRANCH   1   6
TORSDOF 1
ENDMDL
MODEL 4
REMARK VINA RESULT:      -3.7      1.195      2.606
REMARK  Name = *****
REMARK                            x       y       z     vdW  Elec       q    Type
REMARK                         _______ _______ _______ _____ _____    ______ ____
ROOT
ATOM      1  C   LIG    1       22.304 -18.618   4.387  0.00  0.00    +0.418 C 
ATOM      2  F   LIG    1       22.195 -17.612   5.281  0.00  0.00    -0.168 F 
ATOM      3  F   LIG    1       21.207 -18.570   3.592  0.00  0.00    -0.168 F 
ATOM      4  F   LIG    1       23.376 -18.373   3.604  0.00  0.00    -0.168 F 
ENDROOT
BRANCH   1   6
ATOM      5  F   LIG    1       22.758 -19.830   6.374  0.00  0.00    -0.240 F 
ATOM      6  C   LIG    1       22.400 -19.967   5.067  0.00  0.00    +0.326 C 
ENDBRANCH   1   6
TORSDOF 1
ENDMDL
MODEL 5
REMARK VINA RESULT:      -3.6      1.221      2.199
REMARK  Name = *****
REMARK                            x       y       z     vdW  Elec       q    Type
REMARK                         _______ _______ _______ _____ _____    ______ ____
ROOT
ATOM      1  C   LIG    1       22.703 -20.194   5.333  0.00  0.00    +0.418 C 
ATOM      2  F   LIG    1       23.613 -20.170   4.335  0.00  0.00    -0.168 F 
ATOM      3  F   LIG    1       22.290 -18.919   5.531  0.00  0.00    -0.168 F 
ATOM      4  F   LIG    1       21.633 -20.901   4.911  0.00  0.00    -0.168 F 
ENDROOT
BRANCH   1   6
ATOM      5  F   LIG    1       24.590 -20.402   6.756  0.00  0.00    -0.240 F 
ATOM      6  C   LIG    1       23.284 -20.762   6.610  0.00  0.00    +0.326 C 
ENDBRANCH   1   6
TORSDOF 1
ENDMDL
MODEL 6
REMARK VINA RESULT:      -3.6      1.186      2.229
REMARK  Name = *****
REMARK                            x       y       z     vdW  Elec       q    Type
REMARK                         _______ _______ _______ _____ _____    ______ ____
ROOT
ATOM      1  C   LIG    1       22.975 -20.116   5.717  0.00  0.00    +0.418 C 
ATOM      2  F   LIG    1       22.258 -19.004   5.443  0.00  0.00    -0.168 F 
ATOM      3  F   LIG    1       24.231 -19.910   5.250  0.00  0.00    -0.168 F 
ATOM      4  F   LIG    1       23.063 -20.241   7.059  0.00  0.00    -0.168 F 
ENDROOT
BRANCH   1   6
ATOM      5  F   LIG    1       21.074 -21.127   4.722  0.00  0.00    -0.240 F 
ATOM      6  C   LIG    1       22.371 -21.347   5.076  0.00  0.00    +0.326 C 
ENDBRANCH   1   6
TORSDOF 1
ENDMDL
MODEL 7
REMARK VINA RESULT:      -3.5      7.068      7.747
REMARK  Name = *****
REMARK                            x       y       z     vdW  Elec       q    Type
REMARK                         _______ _______ _______ _____ _____    ______ ____
ROOT
ATOM      1  C   LIG    1       27.657 -14.036   3.833  0.00  0.00    +0.418 C 
ATOM      2  F   LIG    1       27.062 -13.409   4.871  0.00  0.00    -0.168 F 
ATOM      3  F   LIG    1       28.864 -13.448   3.645  0.00  0.00    -0.168 F 
ATOM      4  F   LIG    1       27.887 -15.318   4.189  0.00  0.00    -0.168 F 
ENDROOT
BRANCH   1   6
ATOM      5  F   LIG    1       26.277 -12.705   2.436  0.00  0.00    -0.240 F 
ATOM      6  C   LIG    1       26.826 -13.944   2.570  0.00  0.00    +0.326 C 
ENDBRANCH   1   6
TORSDOF 1
ENDMDL
MODEL 8
REMARK VINA RESULT:      -3.5      6.697      7.523
REMARK  Name = *****
REMARK                            x       y       z     vdW  Elec       q    Type
REMARK                         _______ _______ _______ _____ _____    ______ ____
ROOT
ATOM      1  C   LIG    1       27.421 -14.296   3.550  0.00  0.00    +0.418 C 
ATOM      2  F   LIG    1       27.108 -14.171   2.242  0.00  0.00    -0.168 F 
ATOM      3  F   LIG    1       27.536 -15.621   3.811  0.00  0.00    -0.168 F 
ATOM      4  F   LIG    1       28.637 -13.743   3.747  0.00  0.00    -0.168 F 
ENDROOT
BRANCH   1   6
ATOM      5  F   LIG    1       26.776 -13.661   5.742  0.00  0.00    -0.240 F 
ATOM      6  C   LIG    1       26.368 -13.675   4.442  0.00  0.00    +0.326 C 
ENDBRANCH   1   6
TORSDOF 1
ENDMDL
MODEL 9
REMARK VINA RESULT:      -3.4      1.144      2.735
REMARK  Name = *****
REMARK                            x       y       z     vdW  Elec       q    Type
REMARK                         _______ _______ _______ _____ _____    ______ ____
ROOT
ATOM      1  C   LIG    1       24.050 -19.658   4.039  0.00  0.00    +0.418 C 
ATOM      2  F   LIG    1       23.877 -18.370   3.672  0.00  0.00    -0.168 F 
ATOM      3  F   LIG    1       24.113 -20.395   2.904  0.00  0.00    -0.168 F 
ATOM      4  F   LIG    1       25.248 -19.765   4.653  0.00  0.00    -0.168 F 
ENDROOT
BRANCH   1   6
ATOM      5  F   LIG    1       22.350 -19.115   5.602  0.00  0.00    -0.240 F 
ATOM      6  C   LIG    1       22.921 -20.147   4.921  0.00  0.00    +0.326 C 
ENDBRANCH   1   6
TORSDOF 1
ENDMDL
