MODEL 1
REMARK VINA RESULT:      -5.4      0.000      0.000
REMARK  Name = *****
REMARK                            x       y       z     vdW  Elec       q    Type
REMARK                         _______ _______ _______ _____ _____    ______ ____
ROOT
ATOM      1  O   LIG    1       27.887 -18.496   4.673  0.00  0.00    -0.268 OA
ATOM      2  C   LIG    1       27.296 -19.402   5.242  0.00  0.00    +0.252 C 
ATOM      3  N   LIG    1       26.066 -19.935   4.838  0.00  0.00    -0.312 N 
ATOM      4  C   LIG    1       25.480 -19.352   3.641  0.00  0.00    +0.130 C 
ATOM      5  C   LIG    1       24.008 -19.689   3.405  0.00  0.00    +0.023 C 
ATOM      6  C   LIG    1       23.859 -21.199   3.518  0.00  0.00    +0.017 C 
ATOM      7  C   LIG    1       24.128 -21.555   4.977  0.00  0.00    +0.050 C 
ATOM      8  C   LIG    1       22.956 -20.986   5.799  0.00  0.00    +0.090 C 
ATOM      9  N   LIG    1       22.779 -19.539   5.681  0.00  0.00    -0.315 NA
ATOM     10  H   LIG    1       21.838 -19.283   5.981  0.00  0.00    +0.122 HD
ATOM     11  C   LIG    1       23.062 -18.945   4.374  0.00  0.00    +0.086 C 
ATOM     12  C   LIG    1       25.468 -21.025   5.480  0.00  0.00    +0.026 C 
ATOM     13  C   LIG    1       26.070 -21.572   6.553  0.00  0.00    +0.022 C 
ATOM     14  C   LIG    1       27.307 -21.039   7.062  0.00  0.00    +0.007 C 
ATOM     15  C   LIG    1       27.904 -20.009   6.457  0.00  0.00    +0.070 C 
ENDROOT
TORSDOF 0
ENDMDL
MODEL 2
REMARK VINA RESULT:      -4.0      1.233      1.537
REMARK  Name = *****
REMARK                            x       y       z     vdW  Elec       q    Type
REMARK                         _______ _______ _______ _____ _____    ______ ____
ROOT
ATOM      1  O   LIG    1       26.439 -17.346   3.293  0.00  0.00    -0.268 OA
ATOM      2  C   LIG    1       26.624 -18.280   4.058  0.00  0.00    +0.252 C 
ATOM      3  N   LIG    1       25.714 -19.318   4.292  0.00  0.00    -0.312 N 
ATOM      4  C   LIG    1       24.468 -19.254   3.543  0.00  0.00    +0.130 C 
ATOM      5  C   LIG    1       23.357 -20.177   4.045  0.00  0.00    +0.023 C 
ATOM      6  C   LIG    1       23.948 -21.572   4.185  0.00  0.00    +0.017 C 
ATOM      7  C   LIG    1       24.963 -21.503   5.322  0.00  0.00    +0.050 C 
ATOM      8  C   LIG    1       24.165 -21.287   6.621  0.00  0.00    +0.090 C 
ATOM      9  N   LIG    1       23.345 -20.077   6.634  0.00  0.00    -0.315 NA
ATOM     10  H   LIG    1       22.631 -20.154   7.358  0.00  0.00    +0.122 HD
ATOM     11  C   LIG    1       22.725 -19.686   5.367  0.00  0.00    +0.086 C 
ATOM     12  C   LIG    1       26.006 -20.406   5.121  0.00  0.00    +0.026 C 
ATOM     13  C   LIG    1       27.192 -20.455   5.754  0.00  0.00    +0.022 C 
ATOM     14  C   LIG    1       28.156 -19.395   5.609  0.00  0.00    +0.007 C 
ATOM     15  C   LIG    1       27.905 -18.353   4.812  0.00  0.00    +0.070 C 
ENDROOT
TORSDOF 0
ENDMDL
MODEL 3
REMARK VINA RESULT:      -3.8      4.949      6.613
REMARK  Name = *****
REMARK                            x       y       z     vdW  Elec       q    Type
REMARK                         _______ _______ _______ _____ _____    ______ ____
ROOT
ATOM      1  O   LIG    1       25.953 -17.804   3.106  0.00  0.00    -0.268 OA
ATOM      2  C   LIG    1       25.173 -16.944   3.487  0.00  0.00    +0.252 C 
ATOM      3  N   LIG    1       25.418 -15.566   3.449  0.00  0.00    -0.312 N 
ATOM      4  C   LIG    1       26.703 -15.162   2.898  0.00  0.00    +0.130 C 
ATOM      5  C   LIG    1       27.102 -13.711   3.171  0.00  0.00    +0.023 C 
ATOM      6  C   LIG    1       25.930 -12.830   2.769  0.00  0.00    +0.017 C 
ATOM      7  C   LIG    1       24.801 -13.132   3.750  0.00  0.00    +0.050 C 
ATOM      8  C   LIG    1       25.244 -12.587   5.121  0.00  0.00    +0.090 C 
ATOM      9  N   LIG    1       26.489 -13.163   5.627  0.00  0.00    -0.315 NA
ATOM     10  H   LIG    1       26.876 -12.559   6.353  0.00  0.00    +0.122 HD
ATOM     11  C   LIG    1       27.522 -13.474   4.639  0.00  0.00    +0.086 C 
ATOM     12  C   LIG    1       24.461 -14.618   3.826  0.00  0.00    +0.026 C 
ATOM     13  C   LIG    1       23.263 -15.032   4.278  0.00  0.00    +0.022 C 
ATOM     14  C   LIG    1       22.960 -16.434   4.401  0.00  0.00    +0.007 C 
ATOM     15  C   LIG    1       23.853 -17.357   4.034  0.00  0.00    +0.070 C 
ENDROOT
TORSDOF 0
ENDMDL
MODEL 4
REMARK VINA RESULT:      -3.5      2.356      3.805
REMARK  Name = *****
REMARK                            x       y       z     vdW  Elec       q    Type
REMARK                         _______ _______ _______ _____ _____    ______ ____
ROOT
ATOM      1  O   LIG    1       22.726 -15.841   4.402  0.00  0.00    -0.268 OA
ATOM      2  C   LIG    1       23.686 -16.537   4.106  0.00  0.00    +0.252 C 
ATOM      3  N   LIG    1       23.693 -17.937   4.107  0.00  0.00    -0.312 N 
ATOM      4  C   LIG    1       22.442 -18.580   4.482  0.00  0.00    +0.130 C 
ATOM      5  C   LIG    1       22.548 -20.069   4.811  0.00  0.00    +0.023 C 
ATOM      6  C   LIG    1       23.293 -20.739   3.666  0.00  0.00    +0.017 C 
ATOM      7  C   LIG    1       24.724 -20.212   3.710  0.00  0.00    +0.050 C 
ATOM      8  C   LIG    1       25.373 -20.784   4.984  0.00  0.00    +0.090 C 
ATOM      9  N   LIG    1       24.689 -20.425   6.225  0.00  0.00    -0.315 NA
ATOM     10  H   LIG    1       24.968 -21.066   6.969  0.00  0.00    +0.122 HD
ATOM     11  C   LIG    1       23.229 -20.333   6.172  0.00  0.00    +0.086 C 
ATOM     12  C   LIG    1       24.795 -18.687   3.687  0.00  0.00    +0.026 C 
ATOM     13  C   LIG    1       25.916 -18.053   3.295  0.00  0.00    +0.022 C 
ATOM     14  C   LIG    1       26.005 -16.616   3.323  0.00  0.00    +0.007 C 
ATOM     15  C   LIG    1       24.959 -15.878   3.708  0.00  0.00    +0.070 C 
ENDROOT
TORSDOF 0
ENDMDL
MODEL 5
REMARK VINA RESULT:      -2.6      5.045      6.427
REMARK  Name = *****
REMARK                            x       y       z     vdW  Elec       q    Type
REMARK                         _______ _______ _______ _____ _____    ______ ____
ROOT
ATOM      1  O   LIG    1       23.605 -17.602   3.748  0.00  0.00    -0.268 OA
ATOM      2  C   LIG    1       24.690 -17.042   3.698  0.00  0.00    +0.252 C 
ATOM      3  N   LIG    1       24.890 -15.665   3.854  0.00  0.00    -0.312 N 
ATOM      4  C   LIG    1       23.696 -14.872   4.105  0.00  0.00    +0.130 C 
ATOM      5  C   LIG    1       23.869 -13.362   3.934  0.00  0.00    +0.023 C 
ATOM      6  C   LIG    1       25.092 -12.947   4.737  0.00  0.00    +0.017 C 
ATOM      7  C   LIG    1       26.300 -13.574   4.046  0.00  0.00    +0.050 C 
ATOM      8  C   LIG    1       26.461 -12.858   2.692  0.00  0.00    +0.090 C 
ATOM      9  N   LIG    1       25.298 -12.957   1.812  0.00  0.00    -0.315 NA
ATOM     10  H   LIG    1       25.345 -12.229   1.098  0.00  0.00    +0.122 HD
ATOM     11  C   LIG    1       23.982 -12.938   2.453  0.00  0.00    +0.086 C 
ATOM     12  C   LIG    1       26.162 -15.083   3.864  0.00  0.00    +0.026 C 
ATOM     13  C   LIG    1       27.246 -15.860   3.683  0.00  0.00    +0.022 C 
ATOM     14  C   LIG    1       27.115 -17.275   3.457  0.00  0.00    +0.007 C 
ATOM     15  C   LIG    1       25.912 -17.856   3.457  0.00  0.00    +0.070 C 
ENDROOT
TORSDOF 0
ENDMDL
