MODEL 1
REMARK VINA RESULT:     -10.5      0.000      0.000
REMARK  Name = *****
REMARK                            x       y       z     vdW  Elec       q    Type
REMARK                         _______ _______ _______ _____ _____    ______ ____
ROOT
ATOM      1  N   LIG    1       24.372 -22.583   6.877  0.00  0.00    -0.299 NA
ATOM      2  C   LIG    1       24.728 -21.732   5.726  0.00  0.00    +0.103 C 
ATOM      3  C   LIG    1       25.836 -20.699   6.004  0.00  0.00    +0.120 C 
ATOM      4  N   LIG    1       27.044 -21.289   6.624  0.00  0.00    -0.327 NA
ATOM      5  C   LIG    1       26.715 -22.197   7.750  0.00  0.00    +0.120 C 
ATOM      6  C   LIG    1       25.611 -23.209   7.389  0.00  0.00    +0.103 C 
ENDROOT
BRANCH   4   7
ATOM      7  C   LIG    1       28.107 -20.381   6.864  0.00  0.00    +0.030 C 
ATOM      8  C   LIG    1       28.710 -20.276   8.138  0.00  0.00    +0.034 C 
ATOM      9  C   LIG    1       29.738 -19.344   8.379  0.00  0.00    +0.023 C 
ATOM     10  C   LIG    1       30.171 -18.554   7.329  0.00  0.00    +0.136 C 
ATOM     11  O   LIG    1       31.144 -17.702   7.742  0.00  0.00    -0.450 OA
ATOM     12  C   LIG    1       31.346 -17.940   9.077  0.00  0.00    +0.190 C 
ATOM     13  C   LIG    1       29.670 -18.636   6.042  0.00  0.00    +0.049 C 
ATOM     14  C   LIG    1       30.511 -18.956   9.502  0.00  0.00    +0.063 C 
ATOM     15  C   LIG    1       28.643 -19.569   5.838  0.00  0.00    +0.027 C 
BRANCH  12  16
ATOM     16  C   LIG    1       32.318 -17.149   9.786  0.00  0.00    +0.277 C 
ATOM     17  O   LIG    1       32.797 -17.439  10.878  0.00  0.00    -0.267 OA
ATOM     18  N   LIG    1       32.688 -15.998   9.148  0.00  0.00    -0.323 N 
ATOM     19  H   LIG    1       33.358 -15.388   9.591  0.00  0.00    +0.145 HD
ATOM     20  H   LIG    1       32.287 -15.757   8.252  0.00  0.00    +0.145 HD
ENDBRANCH  12  16
ENDBRANCH   4   7
BRANCH   1  21
ATOM     21  C   LIG    1       23.407 -23.634   6.507  0.00  0.00    +0.084 C 
BRANCH  21  22
ATOM     22  C   LIG    1       24.017 -25.043   6.512  0.00  0.00    +0.016 C 
BRANCH  22  23
ATOM     23  C   LIG    1       24.497 -25.523   5.139  0.00  0.00    +0.006 C 
BRANCH  23  24
ATOM     24  C   LIG    1       25.522 -26.659   5.194  0.00  0.00    +0.037 C 
BRANCH  24  33
ATOM     25  C   LIG    1       25.971 -28.860   9.331  0.00  0.00    +0.052 C 
ATOM     26  C   LIG    1       26.030 -28.125   8.136  0.00  0.00    +0.029 C 
ATOM     27  C   LIG    1       25.186 -28.473   7.063  0.00  0.00    +0.004 C 
ATOM     28  C   LIG    1       24.348 -29.581   7.209  0.00  0.00    +0.047 C 
ATOM     29  N   LIG    1       23.667 -29.730   6.024  0.00  0.00    -0.360 NA
ATOM     30  H   LIG    1       22.996 -30.462   5.836  0.00  0.00    +0.165 HD
ATOM     31  C   LIG    1       24.010 -28.732   5.152  0.00  0.00    +0.087 C 
ATOM     32  C   LIG    1       24.278 -30.332   8.387  0.00  0.00    +0.027 C 
ATOM     33  C   LIG    1       24.933 -27.911   5.769  0.00  0.00    -0.022 C 
ATOM     34  C   LIG    1       25.098 -29.945   9.453  0.00  0.00    +0.021 C 
BRANCH  25  36
ATOM     35  N   LIG    1       27.470 -28.177  11.337  0.00  0.00    -0.191 NA
ATOM     36  C   LIG    1       26.799 -28.478  10.433  0.00  0.00    +0.099 C 
ENDBRANCH  25  36
ENDBRANCH  24  33
ENDBRANCH  23  24
ENDBRANCH  22  23
ENDBRANCH  21  22
ENDBRANCH   1  21
TORSDOF 8
ENDMDL
MODEL 2
REMARK VINA RESULT:      -9.6      1.119      2.373
REMARK  Name = *****
REMARK                            x       y       z     vdW  Elec       q    Type
REMARK                         _______ _______ _______ _____ _____    ______ ____
ROOT
ATOM      1  N   LIG    1       24.406 -22.688   6.853  0.00  0.00    -0.299 NA
ATOM      2  C   LIG    1       24.728 -21.803   5.717  0.00  0.00    +0.103 C 
ATOM      3  C   LIG    1       25.820 -20.756   6.003  0.00  0.00    +0.120 C 
ATOM      4  N   LIG    1       27.049 -21.336   6.591  0.00  0.00    -0.327 NA
ATOM      5  C   LIG    1       26.754 -22.277   7.700  0.00  0.00    +0.120 C 
ATOM      6  C   LIG    1       25.664 -23.302   7.331  0.00  0.00    +0.103 C 
ENDROOT
BRANCH   4   7
ATOM      7  C   LIG    1       28.098 -20.414   6.837  0.00  0.00    +0.030 C 
ATOM      8  C   LIG    1       28.714 -20.323   8.106  0.00  0.00    +0.034 C 
ATOM      9  C   LIG    1       29.727 -19.377   8.354  0.00  0.00    +0.023 C 
ATOM     10  C   LIG    1       30.134 -18.560   7.315  0.00  0.00    +0.136 C 
ATOM     11  O   LIG    1       31.096 -17.698   7.733  0.00  0.00    -0.450 OA
ATOM     12  C   LIG    1       31.318 -17.958   9.061  0.00  0.00    +0.190 C 
ATOM     13  C   LIG    1       29.619 -18.625   6.032  0.00  0.00    +0.049 C 
ATOM     14  C   LIG    1       30.506 -18.997   9.475  0.00  0.00    +0.063 C 
ATOM     15  C   LIG    1       28.607 -19.573   5.822  0.00  0.00    +0.027 C 
BRANCH  12  16
ATOM     16  C   LIG    1       32.284 -17.163   9.775  0.00  0.00    +0.277 C 
ATOM     17  O   LIG    1       32.762 -17.454  10.866  0.00  0.00    -0.267 OA
ATOM     18  N   LIG    1       32.647 -16.007   9.142  0.00  0.00    -0.323 N 
ATOM     19  H   LIG    1       33.312 -15.395   9.588  0.00  0.00    +0.145 HD
ATOM     20  H   LIG    1       32.246 -15.766   8.245  0.00  0.00    +0.145 HD
ENDBRANCH  12  16
ENDBRANCH   4   7
BRANCH   1  21
ATOM     21  C   LIG    1       23.455 -23.748   6.472  0.00  0.00    +0.084 C 
BRANCH  21  22
ATOM     22  C   LIG    1       24.071 -25.154   6.514  0.00  0.00    +0.016 C 
BRANCH  22  23
ATOM     23  C   LIG    1       24.209 -25.819   5.140  0.00  0.00    +0.006 C 
BRANCH  23  24
ATOM     24  C   LIG    1       25.336 -26.852   5.053  0.00  0.00    +0.037 C 
BRANCH  24  33
ATOM     25  C   LIG    1       24.250 -31.130   6.692  0.00  0.00    +0.052 C 
ATOM     26  C   LIG    1       24.409 -29.880   6.072  0.00  0.00    +0.029 C 
ATOM     27  C   LIG    1       25.143 -28.869   6.724  0.00  0.00    +0.004 C 
ATOM     28  C   LIG    1       25.648 -29.132   7.999  0.00  0.00    +0.047 C 
ATOM     29  N   LIG    1       26.280 -27.988   8.426  0.00  0.00    -0.360 NA
ATOM     30  H   LIG    1       26.731 -27.882   9.324  0.00  0.00    +0.165 HD
ATOM     31  C   LIG    1       26.232 -27.029   7.451  0.00  0.00    +0.087 C 
ATOM     32  C   LIG    1       25.495 -30.367   8.639  0.00  0.00    +0.027 C 
ATOM     33  C   LIG    1       25.556 -27.546   6.363  0.00  0.00    -0.022 C 
ATOM     34  C   LIG    1       24.795 -31.368   7.957  0.00  0.00    +0.021 C 
BRANCH  25  36
ATOM     35  N   LIG    1       22.967 -33.021   5.461  0.00  0.00    -0.191 NA
ATOM     36  C   LIG    1       23.540 -32.168   6.009  0.00  0.00    +0.099 C 
ENDBRANCH  25  36
ENDBRANCH  24  33
ENDBRANCH  23  24
ENDBRANCH  22  23
ENDBRANCH  21  22
ENDBRANCH   1  21
TORSDOF 8
ENDMDL
MODEL 3
REMARK VINA RESULT:      -9.0      1.949      2.760
REMARK  Name = *****
REMARK                            x       y       z     vdW  Elec       q    Type
REMARK                         _______ _______ _______ _____ _____    ______ ____
ROOT
ATOM      1  N   LIG    1       25.454 -20.908   6.024  0.00  0.00    -0.299 NA
ATOM      2  C   LIG    1       26.405 -20.269   5.096  0.00  0.00    +0.103 C 
ATOM      3  C   LIG    1       27.557 -19.505   5.776  0.00  0.00    +0.120 C 
ATOM      4  N   LIG    1       28.267 -20.304   6.800  0.00  0.00    -0.327 NA
ATOM      5  C   LIG    1       27.333 -21.007   7.715  0.00  0.00    +0.120 C 
ATOM      6  C   LIG    1       26.221 -21.759   6.959  0.00  0.00    +0.103 C 
ENDROOT
BRANCH   4   7
ATOM      7  C   LIG    1       29.360 -19.654   7.427  0.00  0.00    +0.030 C 
ATOM      8  C   LIG    1       29.219 -19.028   8.687  0.00  0.00    +0.034 C 
ATOM      9  C   LIG    1       30.298 -18.349   9.284  0.00  0.00    +0.023 C 
ATOM     10  C   LIG    1       31.515 -18.339   8.627  0.00  0.00    +0.136 C 
ATOM     11  O   LIG    1       32.431 -17.625   9.330  0.00  0.00    -0.450 OA
ATOM     12  C   LIG    1       31.803 -17.165  10.458  0.00  0.00    +0.190 C 
ATOM     13  C   LIG    1       31.747 -18.973   7.419  0.00  0.00    +0.049 C 
ATOM     14  C   LIG    1       30.493 -17.605  10.475  0.00  0.00    +0.063 C 
ATOM     15  C   LIG    1       30.650 -19.633   6.849  0.00  0.00    +0.027 C 
BRANCH  12  16
ATOM     16  C   LIG    1       32.543 -16.346  11.383  0.00  0.00    +0.277 C 
ATOM     17  O   LIG    1       32.743 -16.625  12.561  0.00  0.00    -0.267 OA
ATOM     18  N   LIG    1       33.025 -15.183  10.852  0.00  0.00    -0.323 N 
ATOM     19  H   LIG    1       33.544 -14.554  11.445  0.00  0.00    +0.145 HD
ATOM     20  H   LIG    1       32.853 -14.952   9.882  0.00  0.00    +0.145 HD
ENDBRANCH  12  16
ENDBRANCH   4   7
BRANCH   1  21
ATOM     21  C   LIG    1       24.460 -21.731   5.312  0.00  0.00    +0.084 C 
BRANCH  21  22
ATOM     22  C   LIG    1       23.374 -22.300   6.237  0.00  0.00    +0.016 C 
BRANCH  22  23
ATOM     23  C   LIG    1       23.816 -23.526   7.042  0.00  0.00    +0.006 C 
BRANCH  23  24
ATOM     24  C   LIG    1       23.239 -24.851   6.537  0.00  0.00    +0.037 C 
BRANCH  24  33
ATOM     25  C   LIG    1       24.474 -29.392   6.686  0.00  0.00    +0.052 C 
ATOM     26  C   LIG    1       24.037 -28.067   6.840  0.00  0.00    +0.029 C 
ATOM     27  C   LIG    1       24.543 -27.064   5.989  0.00  0.00    +0.004 C 
ATOM     28  C   LIG    1       25.509 -27.419   5.045  0.00  0.00    +0.047 C 
ATOM     29  N   LIG    1       25.863 -26.270   4.377  0.00  0.00    -0.360 NA
ATOM     30  H   LIG    1       26.555 -26.223   3.643  0.00  0.00    +0.165 HD
ATOM     31  C   LIG    1       25.124 -25.212   4.833  0.00  0.00    +0.087 C 
ATOM     32  C   LIG    1       25.964 -28.732   4.879  0.00  0.00    +0.027 C 
ATOM     33  C   LIG    1       24.270 -25.668   5.818  0.00  0.00    -0.022 C 
ATOM     34  C   LIG    1       25.420 -29.717   5.710  0.00  0.00    +0.021 C 
BRANCH  25  36
ATOM     35  N   LIG    1       23.469 -31.242   8.204  0.00  0.00    -0.191 NA
ATOM     36  C   LIG    1       23.926 -30.414   7.524  0.00  0.00    +0.099 C 
ENDBRANCH  25  36
ENDBRANCH  24  33
ENDBRANCH  23  24
ENDBRANCH  22  23
ENDBRANCH  21  22
ENDBRANCH   1  21
TORSDOF 8
ENDMDL
MODEL 4
REMARK VINA RESULT:      -8.7      4.439     10.344
REMARK  Name = *****
REMARK                            x       y       z     vdW  Elec       q    Type
REMARK                         _______ _______ _______ _____ _____    ______ ____
ROOT
ATOM      1  N   LIG    1       24.592 -22.645   7.560  0.00  0.00    -0.299 NA
ATOM      2  C   LIG    1       25.924 -23.152   7.181  0.00  0.00    +0.103 C 
ATOM      3  C   LIG    1       26.016 -24.683   7.037  0.00  0.00    +0.120 C 
ATOM      4  N   LIG    1       24.961 -25.255   6.169  0.00  0.00    -0.327 NA
ATOM      5  C   LIG    1       23.615 -24.719   6.489  0.00  0.00    +0.120 C 
ATOM      6  C   LIG    1       23.602 -23.182   6.601  0.00  0.00    +0.103 C 
ENDROOT
BRANCH   4   7
ATOM      7  C   LIG    1       25.028 -26.658   5.977  0.00  0.00    +0.030 C 
ATOM      8  C   LIG    1       24.424 -27.555   6.887  0.00  0.00    +0.034 C 
ATOM      9  C   LIG    1       24.529 -28.947   6.711  0.00  0.00    +0.023 C 
ATOM     10  C   LIG    1       25.210 -29.422   5.605  0.00  0.00    +0.136 C 
ATOM     11  O   LIG    1       25.234 -30.780   5.605  0.00  0.00    -0.450 OA
ATOM     12  C   LIG    1       24.561 -31.193   6.725  0.00  0.00    +0.190 C 
ATOM     13  C   LIG    1       25.782 -28.610   4.641  0.00  0.00    +0.049 C 
ATOM     14  C   LIG    1       24.097 -30.095   7.423  0.00  0.00    +0.063 C 
ATOM     15  C   LIG    1       25.664 -27.229   4.851  0.00  0.00    +0.027 C 
BRANCH  12  16
ATOM     16  C   LIG    1       24.454 -32.604   6.993  0.00  0.00    +0.277 C 
ATOM     17  O   LIG    1       25.207 -33.462   6.543  0.00  0.00    -0.267 OA
ATOM     18  N   LIG    1       23.412 -32.951   7.807  0.00  0.00    -0.323 N 
ATOM     19  H   LIG    1       23.270 -33.924   8.030  0.00  0.00    +0.145 HD
ATOM     20  H   LIG    1       22.789 -32.243   8.171  0.00  0.00    +0.145 HD
ENDBRANCH  12  16
ENDBRANCH   4   7
BRANCH   1  21
ATOM     21  C   LIG    1       24.540 -21.172   7.548  0.00  0.00    +0.084 C 
BRANCH  21  22
ATOM     22  C   LIG    1       23.995 -20.599   6.232  0.00  0.00    +0.016 C 
BRANCH  22  23
ATOM     23  C   LIG    1       25.064 -19.971   5.332  0.00  0.00    +0.006 C 
BRANCH  23  24
ATOM     24  C   LIG    1       26.398 -20.723   5.323  0.00  0.00    +0.037 C 
BRANCH  24  33
ATOM     25  C   LIG    1       30.238 -20.658   8.046  0.00  0.00    +0.052 C 
ATOM     26  C   LIG    1       29.004 -20.791   7.390  0.00  0.00    +0.029 C 
ATOM     27  C   LIG    1       28.667 -19.895   6.355  0.00  0.00    +0.004 C 
ATOM     28  C   LIG    1       29.560 -18.865   6.051  0.00  0.00    +0.047 C 
ATOM     29  N   LIG    1       28.987 -18.118   5.049  0.00  0.00    -0.360 NA
ATOM     30  H   LIG    1       29.405 -17.297   4.635  0.00  0.00    +0.165 HD
ATOM     31  C   LIG    1       27.788 -18.664   4.678  0.00  0.00    +0.087 C 
ATOM     32  C   LIG    1       30.791 -18.710   6.697  0.00  0.00    +0.027 C 
ATOM     33  C   LIG    1       27.563 -19.788   5.449  0.00  0.00    -0.022 C 
ATOM     34  C   LIG    1       31.122 -19.633   7.695  0.00  0.00    +0.021 C 
BRANCH  25  36
ATOM     35  N   LIG    1       30.886 -22.366   9.890  0.00  0.00    -0.191 NA
ATOM     36  C   LIG    1       30.595 -21.595   9.067  0.00  0.00    +0.099 C 
ENDBRANCH  25  36
ENDBRANCH  24  33
ENDBRANCH  23  24
ENDBRANCH  22  23
ENDBRANCH  21  22
ENDBRANCH   1  21
TORSDOF 8
ENDMDL
MODEL 5
REMARK VINA RESULT:      -8.6      2.231      3.315
REMARK  Name = *****
REMARK                            x       y       z     vdW  Elec       q    Type
REMARK                         _______ _______ _______ _____ _____    ______ ____
ROOT
ATOM      1  N   LIG    1       25.096 -23.686   5.788  0.00  0.00    -0.299 NA
ATOM      2  C   LIG    1       25.727 -23.658   7.121  0.00  0.00    +0.103 C 
ATOM      3  C   LIG    1       26.932 -22.706   7.246  0.00  0.00    +0.120 C 
ATOM      4  N   LIG    1       26.649 -21.336   6.763  0.00  0.00    -0.327 NA
ATOM      5  C   LIG    1       25.960 -21.332   5.448  0.00  0.00    +0.120 C 
ATOM      6  C   LIG    1       24.759 -22.297   5.408  0.00  0.00    +0.103 C 
ENDROOT
BRANCH   4   7
ATOM      7  C   LIG    1       27.718 -20.413   6.893  0.00  0.00    +0.030 C 
ATOM      8  C   LIG    1       28.339 -20.179   8.141  0.00  0.00    +0.034 C 
ATOM      9  C   LIG    1       29.372 -19.232   8.270  0.00  0.00    +0.023 C 
ATOM     10  C   LIG    1       29.793 -18.558   7.138  0.00  0.00    +0.136 C 
ATOM     11  O   LIG    1       30.775 -17.672   7.447  0.00  0.00    -0.450 OA
ATOM     12  C   LIG    1       30.994 -17.771   8.797  0.00  0.00    +0.190 C 
ATOM     13  C   LIG    1       29.274 -18.770   5.873  0.00  0.00    +0.049 C 
ATOM     14  C   LIG    1       30.163 -18.733   9.336  0.00  0.00    +0.063 C 
ATOM     15  C   LIG    1       28.242 -19.714   5.782  0.00  0.00    +0.027 C 
BRANCH  12  16
ATOM     16  C   LIG    1       31.979 -16.914   9.407  0.00  0.00    +0.277 C 
ATOM     17  O   LIG    1       32.560 -15.997   8.836  0.00  0.00    -0.267 OA
ATOM     18  N   LIG    1       32.248 -17.201  10.716  0.00  0.00    -0.323 N 
ATOM     19  H   LIG    1       32.935 -16.649  11.205  0.00  0.00    +0.145 HD
ATOM     20  H   LIG    1       31.773 -17.962  11.182  0.00  0.00    +0.145 HD
ENDBRANCH  12  16
ENDBRANCH   4   7
BRANCH   1  21
ATOM     21  C   LIG    1       23.874 -24.510   5.775  0.00  0.00    +0.084 C 
BRANCH  21  22
ATOM     22  C   LIG    1       24.049 -25.859   6.488  0.00  0.00    +0.016 C 
BRANCH  22  23
ATOM     23  C   LIG    1       24.875 -26.881   5.699  0.00  0.00    +0.006 C 
BRANCH  23  24
ATOM     24  C   LIG    1       24.200 -28.246   5.541  0.00  0.00    +0.037 C 
BRANCH  24  33
ATOM     25  C   LIG    1       26.263 -32.349   4.504  0.00  0.00    +0.052 C 
ATOM     26  C   LIG    1       25.536 -31.156   4.636  0.00  0.00    +0.029 C 
ATOM     27  C   LIG    1       25.452 -30.527   5.895  0.00  0.00    +0.004 C 
ATOM     28  C   LIG    1       26.061 -31.147   6.988  0.00  0.00    +0.047 C 
ATOM     29  N   LIG    1       25.805 -30.365   8.090  0.00  0.00    -0.360 NA
ATOM     30  H   LIG    1       26.115 -30.576   9.028  0.00  0.00    +0.165 HD
ATOM     31  C   LIG    1       25.096 -29.253   7.725  0.00  0.00    +0.087 C 
ATOM     32  C   LIG    1       26.785 -32.340   6.881  0.00  0.00    +0.027 C 
ATOM     33  C   LIG    1       24.879 -29.301   6.362  0.00  0.00    -0.022 C 
ATOM     34  C   LIG    1       26.886 -32.926   5.614  0.00  0.00    +0.021 C 
BRANCH  25  36
ATOM     35  N   LIG    1       26.486 -33.466   2.172  0.00  0.00    -0.191 NA
ATOM     36  C   LIG    1       26.381 -32.961   3.216  0.00  0.00    +0.099 C 
ENDBRANCH  25  36
ENDBRANCH  24  33
ENDBRANCH  23  24
ENDBRANCH  22  23
ENDBRANCH  21  22
ENDBRANCH   1  21
TORSDOF 8
ENDMDL
MODEL 6
REMARK VINA RESULT:      -8.5      4.126      6.632
REMARK  Name = *****
REMARK                            x       y       z     vdW  Elec       q    Type
REMARK                         _______ _______ _______ _____ _____    ______ ____
ROOT
ATOM      1  N   LIG    1       25.289 -28.751   6.475  0.00  0.00    -0.299 NA
ATOM      2  C   LIG    1       25.973 -28.003   7.547  0.00  0.00    +0.103 C 
ATOM      3  C   LIG    1       26.229 -26.517   7.236  0.00  0.00    +0.120 C 
ATOM      4  N   LIG    1       25.021 -25.798   6.772  0.00  0.00    -0.327 NA
ATOM      5  C   LIG    1       24.278 -26.553   5.733  0.00  0.00    +0.120 C 
ATOM      6  C   LIG    1       24.048 -28.026   6.124  0.00  0.00    +0.103 C 
ENDROOT
BRANCH   4   7
ATOM      7  C   LIG    1       25.200 -24.416   6.509  0.00  0.00    +0.030 C 
ATOM      8  C   LIG    1       24.511 -23.773   5.456  0.00  0.00    +0.034 C 
ATOM      9  C   LIG    1       24.725 -22.410   5.175  0.00  0.00    +0.023 C 
ATOM     10  C   LIG    1       25.601 -21.701   5.978  0.00  0.00    +0.136 C 
ATOM     11  O   LIG    1       25.704 -20.416   5.554  0.00  0.00    -0.450 OA
ATOM     12  C   LIG    1       24.886 -20.286   4.461  0.00  0.00    +0.190 C 
ATOM     13  C   LIG    1       26.271 -22.245   7.060  0.00  0.00    +0.049 C 
ATOM     14  C   LIG    1       24.253 -21.488   4.208  0.00  0.00    +0.063 C 
ATOM     15  C   LIG    1       26.040 -23.606   7.307  0.00  0.00    +0.027 C 
BRANCH  12  16
ATOM     16  C   LIG    1       24.821 -19.016   3.786  0.00  0.00    +0.277 C 
ATOM     17  O   LIG    1       23.786 -18.404   3.542  0.00  0.00    -0.267 OA
ATOM     18  N   LIG    1       26.034 -18.511   3.408  0.00  0.00    -0.323 N 
ATOM     19  H   LIG    1       26.064 -17.629   2.921  0.00  0.00    +0.145 HD
ATOM     20  H   LIG    1       26.885 -19.020   3.605  0.00  0.00    +0.145 HD
ENDBRANCH  12  16
ENDBRANCH   4   7
BRANCH   1  21
ATOM     21  C   LIG    1       24.955 -30.126   6.889  0.00  0.00    +0.084 C 
BRANCH  21  22
ATOM     22  C   LIG    1       25.005 -30.325   8.411  0.00  0.00    +0.016 C 
BRANCH  22  23
ATOM     23  C   LIG    1       23.628 -30.365   9.083  0.00  0.00    +0.006 C 
BRANCH  23  24
ATOM     24  C   LIG    1       23.672 -30.634  10.590  0.00  0.00    +0.037 C 
BRANCH  24  33
ATOM     25  C   LIG    1       23.042 -26.918  13.410  0.00  0.00    +0.052 C 
ATOM     26  C   LIG    1       23.430 -28.023  12.637  0.00  0.00    +0.029 C 
ATOM     27  C   LIG    1       22.449 -28.909  12.148  0.00  0.00    +0.004 C 
ATOM     28  C   LIG    1       21.116 -28.681  12.494  0.00  0.00    +0.047 C 
ATOM     29  N   LIG    1       20.374 -29.693  11.932  0.00  0.00    -0.360 NA
ATOM     30  H   LIG    1       19.373 -29.792  12.027  0.00  0.00    +0.165 HD
ATOM     31  C   LIG    1       21.183 -30.524  11.206  0.00  0.00    +0.087 C 
ATOM     32  C   LIG    1       20.707 -27.590  13.269  0.00  0.00    +0.027 C 
ATOM     33  C   LIG    1       22.480 -30.057  11.292  0.00  0.00    -0.022 C 
ATOM     34  C   LIG    1       21.694 -26.703  13.713  0.00  0.00    +0.021 C 
BRANCH  25  36
ATOM     35  N   LIG    1       24.841 -25.249  14.257  0.00  0.00    -0.191 NA
ATOM     36  C   LIG    1       24.037 -25.998  13.871  0.00  0.00    +0.099 C 
ENDBRANCH  25  36
ENDBRANCH  24  33
ENDBRANCH  23  24
ENDBRANCH  22  23
ENDBRANCH  21  22
ENDBRANCH   1  21
TORSDOF 8
ENDMDL
MODEL 7
REMARK VINA RESULT:      -8.5      4.327     10.848
REMARK  Name = *****
REMARK                            x       y       z     vdW  Elec       q    Type
REMARK                         _______ _______ _______ _____ _____    ______ ____
ROOT
ATOM      1  N   LIG    1       23.816 -22.400   5.982  0.00  0.00    -0.299 NA
ATOM      2  C   LIG    1       23.100 -23.322   6.885  0.00  0.00    +0.103 C 
ATOM      3  C   LIG    1       23.245 -24.814   6.532  0.00  0.00    +0.120 C 
ATOM      4  N   LIG    1       24.651 -25.238   6.344  0.00  0.00    -0.327 NA
ATOM      5  C   LIG    1       25.414 -24.298   5.486  0.00  0.00    +0.120 C 
ATOM      6  C   LIG    1       25.230 -22.828   5.912  0.00  0.00    +0.103 C 
ENDROOT
BRANCH   4   7
ATOM      7  C   LIG    1       24.837 -26.614   6.054  0.00  0.00    +0.030 C 
ATOM      8  C   LIG    1       24.335 -27.620   6.911  0.00  0.00    +0.034 C 
ATOM      9  C   LIG    1       24.558 -28.983   6.638  0.00  0.00    +0.023 C 
ATOM     10  C   LIG    1       25.251 -29.320   5.489  0.00  0.00    +0.136 C 
ATOM     11  O   LIG    1       25.395 -30.666   5.395  0.00  0.00    -0.450 OA
ATOM     12  C   LIG    1       24.788 -31.212   6.496  0.00  0.00    +0.190 C 
ATOM     13  C   LIG    1       25.726 -28.397   4.574  0.00  0.00    +0.049 C 
ATOM     14  C   LIG    1       24.246 -30.209   7.276  0.00  0.00    +0.063 C 
ATOM     15  C   LIG    1       25.493 -27.049   4.880  0.00  0.00    +0.027 C 
BRANCH  12  16
ATOM     16  C   LIG    1       24.812 -32.642   6.668  0.00  0.00    +0.277 C 
ATOM     17  O   LIG    1       23.828 -33.337   6.901  0.00  0.00    -0.267 OA
ATOM     18  N   LIG    1       26.052 -33.206   6.559  0.00  0.00    -0.323 N 
ATOM     19  H   LIG    1       26.147 -34.203   6.678  0.00  0.00    +0.145 HD
ATOM     20  H   LIG    1       26.862 -32.631   6.373  0.00  0.00    +0.145 HD
ENDBRANCH  12  16
ENDBRANCH   4   7
BRANCH   1  21
ATOM     21  C   LIG    1       23.747 -21.005   6.454  0.00  0.00    +0.084 C 
BRANCH  21  22
ATOM     22  C   LIG    1       24.736 -20.702   7.589  0.00  0.00    +0.016 C 
BRANCH  22  23
ATOM     23  C   LIG    1       26.146 -20.340   7.112  0.00  0.00    +0.006 C 
BRANCH  23  24
ATOM     24  C   LIG    1       27.189 -20.269   8.230  0.00  0.00    +0.037 C 
BRANCH  24  33
ATOM     25  C   LIG    1       30.798 -17.651   9.740  0.00  0.00    +0.052 C 
ATOM     26  C   LIG    1       29.600 -18.299   9.401  0.00  0.00    +0.029 C 
ATOM     27  C   LIG    1       29.559 -19.138   8.269  0.00  0.00    +0.004 C 
ATOM     28  C   LIG    1       30.710 -19.257   7.488  0.00  0.00    +0.047 C 
ATOM     29  N   LIG    1       30.401 -20.089   6.438  0.00  0.00    -0.360 NA
ATOM     30  H   LIG    1       31.043 -20.347   5.702  0.00  0.00    +0.165 HD
ATOM     31  C   LIG    1       29.112 -20.535   6.552  0.00  0.00    +0.087 C 
ATOM     32  C   LIG    1       31.913 -18.615   7.803  0.00  0.00    +0.027 C 
ATOM     33  C   LIG    1       28.560 -19.989   7.694  0.00  0.00    -0.022 C 
ATOM     34  C   LIG    1       31.941 -17.817   8.952  0.00  0.00    +0.021 C 
BRANCH  25  36
ATOM     35  N   LIG    1       30.877 -16.171  11.871  0.00  0.00    -0.191 NA
ATOM     36  C   LIG    1       30.848 -16.833  10.913  0.00  0.00    +0.099 C 
ENDBRANCH  25  36
ENDBRANCH  24  33
ENDBRANCH  23  24
ENDBRANCH  22  23
ENDBRANCH  21  22
ENDBRANCH   1  21
TORSDOF 8
ENDMDL
MODEL 8
REMARK VINA RESULT:      -8.5      3.916      7.413
REMARK  Name = *****
REMARK                            x       y       z     vdW  Elec       q    Type
REMARK                         _______ _______ _______ _____ _____    ______ ____
ROOT
ATOM      1  N   LIG    1       24.553 -30.957   8.002  0.00  0.00    -0.299 NA
ATOM      2  C   LIG    1       24.384 -30.736   6.554  0.00  0.00    +0.103 C 
ATOM      3  C   LIG    1       24.281 -29.258   6.133  0.00  0.00    +0.120 C 
ATOM      4  N   LIG    1       25.372 -28.417   6.676  0.00  0.00    -0.327 NA
ATOM      5  C   LIG    1       25.606 -28.660   8.122  0.00  0.00    +0.120 C 
ATOM      6  C   LIG    1       25.712 -30.159   8.459  0.00  0.00    +0.103 C 
ENDROOT
BRANCH   4   7
ATOM      7  C   LIG    1       25.341 -27.054   6.285  0.00  0.00    +0.030 C 
ATOM      8  C   LIG    1       25.792 -26.031   7.149  0.00  0.00    +0.034 C 
ATOM      9  C   LIG    1       25.719 -24.677   6.769  0.00  0.00    +0.023 C 
ATOM     10  C   LIG    1       25.229 -24.370   5.513  0.00  0.00    +0.136 C 
ATOM     11  O   LIG    1       25.209 -23.026   5.322  0.00  0.00    -0.450 OA
ATOM     12  C   LIG    1       25.691 -22.451   6.469  0.00  0.00    +0.190 C 
ATOM     13  C   LIG    1       24.820 -25.317   4.590  0.00  0.00    +0.049 C 
ATOM     14  C   LIG    1       26.033 -23.435   7.377  0.00  0.00    +0.063 C 
ATOM     15  C   LIG    1       24.898 -26.655   5.003  0.00  0.00    +0.027 C 
BRANCH  12  16
ATOM     16  C   LIG    1       25.757 -21.015   6.554  0.00  0.00    +0.277 C 
ATOM     17  O   LIG    1       25.688 -20.371   7.596  0.00  0.00    -0.267 OA
ATOM     18  N   LIG    1       25.897 -20.381   5.352  0.00  0.00    -0.323 N 
ATOM     19  H   LIG    1       25.939 -19.373   5.333  0.00  0.00    +0.145 HD
ATOM     20  H   LIG    1       25.947 -20.914   4.494  0.00  0.00    +0.145 HD
ENDBRANCH  12  16
ENDBRANCH   4   7
BRANCH   1  21
ATOM     21  C   LIG    1       24.779 -32.379   8.319  0.00  0.00    +0.084 C 
BRANCH  21  22
ATOM     22  C   LIG    1       24.476 -32.726   9.784  0.00  0.00    +0.016 C 
BRANCH  22  23
ATOM     23  C   LIG    1       23.232 -32.031  10.348  0.00  0.00    +0.006 C 
BRANCH  23  24
ATOM     24  C   LIG    1       23.486 -31.235  11.631  0.00  0.00    +0.037 C 
BRANCH  24  33
ATOM     25  C   LIG    1       23.160 -26.860  13.339  0.00  0.00    +0.052 C 
ATOM     26  C   LIG    1       23.445 -28.172  12.928  0.00  0.00    +0.029 C 
ATOM     27  C   LIG    1       22.395 -29.012  12.505  0.00  0.00    +0.004 C 
ATOM     28  C   LIG    1       21.089 -28.521  12.558  0.00  0.00    +0.047 C 
ATOM     29  N   LIG    1       20.260 -29.533  12.135  0.00  0.00    -0.360 NA
ATOM     30  H   LIG    1       19.253 -29.465  12.082  0.00  0.00    +0.165 HD
ATOM     31  C   LIG    1       20.996 -30.628  11.776  0.00  0.00    +0.087 C 
ATOM     32  C   LIG    1       20.781 -27.220  12.970  0.00  0.00    +0.027 C 
ATOM     33  C   LIG    1       22.333 -30.337  11.964  0.00  0.00    -0.022 C 
ATOM     34  C   LIG    1       21.843 -26.391  13.350  0.00  0.00    +0.021 C 
BRANCH  25  36
ATOM     35  N   LIG    1       25.106 -25.299  14.056  0.00  0.00    -0.191 NA
ATOM     36  C   LIG    1       24.233 -25.997  13.728  0.00  0.00    +0.099 C 
ENDBRANCH  25  36
ENDBRANCH  24  33
ENDBRANCH  23  24
ENDBRANCH  22  23
ENDBRANCH  21  22
ENDBRANCH   1  21
TORSDOF 8
ENDMDL
MODEL 9
REMARK VINA RESULT:      -8.4      4.518     10.307
REMARK  Name = *****
REMARK                            x       y       z     vdW  Elec       q    Type
REMARK                         _______ _______ _______ _____ _____    ______ ____
ROOT
ATOM      1  N   LIG    1       24.317 -22.577   7.365  0.00  0.00    -0.299 NA
ATOM      2  C   LIG    1       25.644 -22.987   6.867  0.00  0.00    +0.103 C 
ATOM      3  C   LIG    1       25.860 -24.510   6.785  0.00  0.00    +0.120 C 
ATOM      4  N   LIG    1       24.778 -25.218   6.064  0.00  0.00    -0.327 NA
ATOM      5  C   LIG    1       23.428 -24.783   6.503  0.00  0.00    +0.120 C 
ATOM      6  C   LIG    1       23.287 -23.249   6.544  0.00  0.00    +0.103 C 
ENDROOT
BRANCH   4   7
ATOM      7  C   LIG    1       24.952 -26.619   5.930  0.00  0.00    +0.030 C 
ATOM      8  C   LIG    1       24.438 -27.519   6.891  0.00  0.00    +0.034 C 
ATOM      9  C   LIG    1       24.650 -28.906   6.773  0.00  0.00    +0.023 C 
ATOM     10  C   LIG    1       25.346 -29.374   5.673  0.00  0.00    +0.136 C 
ATOM     11  O   LIG    1       25.478 -30.724   5.731  0.00  0.00    -0.450 OA
ATOM     12  C   LIG    1       24.860 -31.139   6.882  0.00  0.00    +0.190 C 
ATOM     13  C   LIG    1       25.833 -28.563   4.664  0.00  0.00    +0.049 C 
ATOM     14  C   LIG    1       24.323 -30.050   7.542  0.00  0.00    +0.063 C 
ATOM     15  C   LIG    1       25.610 -27.188   4.816  0.00  0.00    +0.027 C 
BRANCH  12  16
ATOM     16  C   LIG    1       24.871 -32.541   7.213  0.00  0.00    +0.277 C 
ATOM     17  O   LIG    1       24.287 -33.040   8.169  0.00  0.00    -0.267 OA
ATOM     18  N   LIG    1       25.609 -33.319   6.365  0.00  0.00    -0.323 N 
ATOM     19  H   LIG    1       25.671 -34.310   6.541  0.00  0.00    +0.145 HD
ATOM     20  H   LIG    1       26.095 -32.904   5.581  0.00  0.00    +0.145 HD
ENDBRANCH  12  16
ENDBRANCH   4   7
BRANCH   1  21
ATOM     21  C   LIG    1       24.130 -21.116   7.290  0.00  0.00    +0.084 C 
BRANCH  21  22
ATOM     22  C   LIG    1       23.007 -20.701   6.329  0.00  0.00    +0.016 C 
BRANCH  22  23
ATOM     23  C   LIG    1       23.492 -19.940   5.090  0.00  0.00    +0.006 C 
BRANCH  23  24
ATOM     24  C   LIG    1       24.763 -20.515   4.458  0.00  0.00    +0.037 C 
BRANCH  24  33
ATOM     25  C   LIG    1       28.855 -20.018   6.731  0.00  0.00    +0.052 C 
ATOM     26  C   LIG    1       27.572 -20.275   6.224  0.00  0.00    +0.029 C 
ATOM     27  C   LIG    1       27.061 -19.472   5.184  0.00  0.00    +0.004 C 
ATOM     28  C   LIG    1       27.839 -18.408   4.724  0.00  0.00    +0.047 C 
ATOM     29  N   LIG    1       27.110 -17.767   3.750  0.00  0.00    -0.360 NA
ATOM     30  H   LIG    1       27.420 -16.948   3.246  0.00  0.00    +0.165 HD
ATOM     31  C   LIG    1       25.922 -18.414   3.546  0.00  0.00    +0.087 C 
ATOM     32  C   LIG    1       29.117 -18.129   5.220  0.00  0.00    +0.027 C 
ATOM     33  C   LIG    1       25.863 -19.499   4.400  0.00  0.00    -0.022 C 
ATOM     34  C   LIG    1       29.619 -18.961   6.226  0.00  0.00    +0.021 C 
BRANCH  25  36
ATOM     35  N   LIG    1       29.830 -21.548   8.588  0.00  0.00    -0.191 NA
ATOM     36  C   LIG    1       29.387 -20.861   7.759  0.00  0.00    +0.099 C 
ENDBRANCH  25  36
ENDBRANCH  24  33
ENDBRANCH  23  24
ENDBRANCH  22  23
ENDBRANCH  21  22
ENDBRANCH   1  21
TORSDOF 8
ENDMDL
