MODEL 1
REMARK VINA RESULT:      -4.6      0.000      0.000
REMARK  Name = *****
REMARK                            x       y       z     vdW  Elec       q    Type
REMARK                         _______ _______ _______ _____ _____    ______ ____
ROOT
ATOM      1  N   LIG    1       26.865 -16.934   3.785  0.00  0.00    -0.326 N 
ENDROOT
BRANCH   1   2
ATOM      2  C   LIG    1       27.401 -15.542   3.663  0.00  0.00    +0.082 C 
ATOM      3  C   LIG    1       27.144 -14.596   4.873  0.00  0.00    +0.058 C 
ATOM      4  C   LIG    1       25.973 -13.776   4.420  0.00  0.00    -0.042 A 
ATOM      5  C   LIG    1       25.791 -13.892   3.037  0.00  0.00    -0.042 A 
ATOM      6  C   LIG    1       24.791 -13.198   2.384  0.00  0.00    +0.004 A 
ATOM      7  C   LIG    1       23.939 -12.392   3.132  0.00  0.00    +0.000 A 
ATOM      8  C   LIG    1       24.110 -12.283   4.525  0.00  0.00    +0.000 A 
ATOM      9  C   LIG    1       25.139 -12.971   5.172  0.00  0.00    +0.004 A 
ATOM     10  C   LIG    1       26.803 -14.812   2.433  0.00  0.00    +0.058 C 
ENDBRANCH   1   2
BRANCH   1  11
ATOM     11  C   LIG    1       27.545 -17.887   4.560  0.00  0.00    +0.030 A 
ATOM     12  C   LIG    1       28.802 -17.617   5.142  0.00  0.00    +0.023 A 
ATOM     13  C   LIG    1       29.475 -18.552   5.939  0.00  0.00    +0.002 A 
ATOM     14  C   LIG    1       28.900 -19.774   6.232  0.00  0.00    +0.000 A 
ATOM     15  C   LIG    1       27.663 -20.084   5.676  0.00  0.00    +0.002 A 
ATOM     16  C   LIG    1       27.034 -19.167   4.830  0.00  0.00    +0.023 A 
ENDBRANCH   1  11
BRANCH   1  17
ATOM     17  C   LIG    1       25.727 -17.369   2.946  0.00  0.00    +0.106 C 
BRANCH  17  18
ATOM     18  C   LIG    1       24.664 -18.050   3.809  0.00  0.00    +0.034 C 
BRANCH  18  19
ATOM     19  C   LIG    1       24.170 -19.375   3.240  0.00  0.00    +0.086 C 
BRANCH  19  20
ATOM     20  N   LIG    1       23.370 -20.194   4.164  0.00  0.00    -0.303 NA
BRANCH  20  22
ATOM     21  C   LIG    1       24.024 -20.781   6.547  0.00  0.00    +0.020 C 
ATOM     22  C   LIG    1       24.114 -21.093   5.056  0.00  0.00    +0.081 C 
ENDBRANCH  20  22
BRANCH  20  23
ATOM     23  C   LIG    1       22.325 -19.441   4.885  0.00  0.00    +0.081 C 
ATOM     24  C   LIG    1       21.387 -18.528   4.088  0.00  0.00    +0.020 C 
ENDBRANCH  20  23
ENDBRANCH  19  20
ENDBRANCH  18  19
ENDBRANCH  17  18
ENDBRANCH   1  17
TORSDOF 8
ENDMDL
MODEL 2
REMARK VINA RESULT:      -4.4      1.422      5.623
REMARK  Name = *****
REMARK                            x       y       z     vdW  Elec       q    Type
REMARK                         _______ _______ _______ _____ _____    ______ ____
ROOT
ATOM      1  N   LIG    1       27.107 -18.274   4.220  0.00  0.00    -0.326 N 
ENDROOT
BRANCH   1   2
ATOM      2  C   LIG    1       26.059 -18.632   3.214  0.00  0.00    +0.082 C 
ATOM      3  C   LIG    1       24.694 -17.894   3.348  0.00  0.00    +0.058 C 
ATOM      4  C   LIG    1       23.830 -18.904   4.042  0.00  0.00    -0.042 A 
ATOM      5  C   LIG    1       24.407 -20.177   3.983  0.00  0.00    -0.042 A 
ATOM      6  C   LIG    1       23.776 -21.278   4.526  0.00  0.00    +0.004 A 
ATOM      7  C   LIG    1       22.554 -21.099   5.166  0.00  0.00    +0.000 A 
ATOM      8  C   LIG    1       21.975 -19.818   5.240  0.00  0.00    +0.000 A 
ATOM      9  C   LIG    1       22.612 -18.715   4.666  0.00  0.00    +0.004 A 
ATOM     10  C   LIG    1       25.719 -20.143   3.265  0.00  0.00    +0.058 C 
ENDBRANCH   1   2
BRANCH   1  11
ATOM     11  C   LIG    1       27.514 -19.214   5.181  0.00  0.00    +0.030 A 
ATOM     12  C   LIG    1       26.592 -20.060   5.835  0.00  0.00    +0.023 A 
ATOM     13  C   LIG    1       26.993 -21.019   6.774  0.00  0.00    +0.002 A 
ATOM     14  C   LIG    1       28.331 -21.211   7.062  0.00  0.00    +0.000 A 
ATOM     15  C   LIG    1       29.274 -20.396   6.443  0.00  0.00    +0.002 A 
ATOM     16  C   LIG    1       28.854 -19.399   5.557  0.00  0.00    +0.023 A 
ENDBRANCH   1  11
BRANCH   1  17
ATOM     17  C   LIG    1       27.584 -16.879   4.333  0.00  0.00    +0.106 C 
BRANCH  17  18
ATOM     18  C   LIG    1       26.811 -15.977   3.369  0.00  0.00    +0.034 C 
BRANCH  18  19
ATOM     19  C   LIG    1       27.233 -14.513   3.429  0.00  0.00    +0.086 C 
BRANCH  19  20
ATOM     20  N   LIG    1       26.126 -13.544   3.479  0.00  0.00    -0.303 NA
BRANCH  20  22
ATOM     21  C   LIG    1       24.632 -11.972   2.158  0.00  0.00    +0.020 C 
ATOM     22  C   LIG    1       25.442 -13.264   2.210  0.00  0.00    +0.081 C 
ENDBRANCH  20  22
BRANCH  20  23
ATOM     23  C   LIG    1       25.172 -13.777   4.581  0.00  0.00    +0.081 C 
ATOM     24  C   LIG    1       23.821 -14.427   4.267  0.00  0.00    +0.020 C 
ENDBRANCH  20  23
ENDBRANCH  19  20
ENDBRANCH  18  19
ENDBRANCH  17  18
ENDBRANCH   1  17
TORSDOF 8
ENDMDL
MODEL 3
REMARK VINA RESULT:      -4.2      0.501      1.512
REMARK  Name = *****
REMARK                            x       y       z     vdW  Elec       q    Type
REMARK                         _______ _______ _______ _____ _____    ______ ____
ROOT
ATOM      1  N   LIG    1       26.710 -17.179   3.958  0.00  0.00    -0.326 N 
ENDROOT
BRANCH   1   2
ATOM      2  C   LIG    1       27.305 -15.835   3.674  0.00  0.00    +0.082 C 
ATOM      3  C   LIG    1       27.271 -14.805   4.842  0.00  0.00    +0.058 C 
ATOM      4  C   LIG    1       26.098 -13.937   4.494  0.00  0.00    -0.042 A 
ATOM      5  C   LIG    1       25.724 -14.120   3.158  0.00  0.00    -0.042 A 
ATOM      6  C   LIG    1       24.687 -13.400   2.598  0.00  0.00    +0.004 A 
ATOM      7  C   LIG    1       23.993 -12.497   3.397  0.00  0.00    +0.000 A 
ATOM      8  C   LIG    1       24.357 -12.319   4.744  0.00  0.00    +0.000 A 
ATOM      9  C   LIG    1       25.423 -13.036   5.294  0.00  0.00    +0.004 A 
ATOM     10  C   LIG    1       26.590 -15.139   2.488  0.00  0.00    +0.058 C 
ENDBRANCH   1   2
BRANCH   1  11
ATOM     11  C   LIG    1       27.428 -18.125   4.706  0.00  0.00    +0.030 A 
ATOM     12  C   LIG    1       28.759 -17.897   5.118  0.00  0.00    +0.023 A 
ATOM     13  C   LIG    1       29.473 -18.825   5.888  0.00  0.00    +0.002 A 
ATOM     14  C   LIG    1       28.875 -19.992   6.324  0.00  0.00    +0.000 A 
ATOM     15  C   LIG    1       27.565 -20.259   5.937  0.00  0.00    +0.002 A 
ATOM     16  C   LIG    1       26.887 -19.355   5.114  0.00  0.00    +0.023 A 
ENDBRANCH   1  11
BRANCH   1  17
ATOM     17  C   LIG    1       25.452 -17.589   3.298  0.00  0.00    +0.106 C 
BRANCH  17  18
ATOM     18  C   LIG    1       25.393 -19.113   3.174  0.00  0.00    +0.034 C 
BRANCH  18  19
ATOM     19  C   LIG    1       23.984 -19.682   3.295  0.00  0.00    +0.086 C 
BRANCH  19  20
ATOM     20  N   LIG    1       23.446 -19.738   4.663  0.00  0.00    -0.303 NA
BRANCH  20  22
ATOM     21  C   LIG    1       22.015 -17.642   4.544  0.00  0.00    +0.020 C 
ATOM     22  C   LIG    1       22.127 -19.128   4.875  0.00  0.00    +0.081 C 
ENDBRANCH  20  22
BRANCH  20  23
ATOM     23  C   LIG    1       23.547 -21.068   5.296  0.00  0.00    +0.081 C 
ATOM     24  C   LIG    1       23.881 -21.154   6.789  0.00  0.00    +0.020 C 
ENDBRANCH  20  23
ENDBRANCH  19  20
ENDBRANCH  18  19
ENDBRANCH  17  18
ENDBRANCH   1  17
TORSDOF 8
ENDMDL
MODEL 4
REMARK VINA RESULT:      -3.4      1.663      4.211
REMARK  Name = *****
REMARK                            x       y       z     vdW  Elec       q    Type
REMARK                         _______ _______ _______ _____ _____    ______ ____
ROOT
ATOM      1  N   LIG    1       25.380 -16.647   3.480  0.00  0.00    -0.326 N 
ENDROOT
BRANCH   1   2
ATOM      2  C   LIG    1       25.173 -15.190   3.205  0.00  0.00    +0.082 C 
ATOM      3  C   LIG    1       26.256 -14.493   2.330  0.00  0.00    +0.058 C 
ATOM      4  C   LIG    1       27.109 -13.790   3.344  0.00  0.00    -0.042 A 
ATOM      5  C   LIG    1       26.453 -13.712   4.578  0.00  0.00    -0.042 A 
ATOM      6  C   LIG    1       27.029 -13.077   5.659  0.00  0.00    +0.004 A 
ATOM      7  C   LIG    1       28.300 -12.530   5.513  0.00  0.00    +0.000 A 
ATOM      8  C   LIG    1       28.970 -12.617   4.278  0.00  0.00    +0.000 A 
ATOM      9  C   LIG    1       28.367 -13.242   3.184  0.00  0.00    +0.004 A 
ATOM     10  C   LIG    1       25.111 -14.371   4.519  0.00  0.00    +0.058 C 
ENDBRANCH   1   2
BRANCH   1  11
ATOM     11  C   LIG    1       24.282 -17.477   3.755  0.00  0.00    +0.030 A 
ATOM     12  C   LIG    1       24.258 -18.836   3.372  0.00  0.00    +0.023 A 
ATOM     13  C   LIG    1       23.178 -19.678   3.666  0.00  0.00    +0.002 A 
ATOM     14  C   LIG    1       22.102 -19.217   4.400  0.00  0.00    +0.000 A 
ATOM     15  C   LIG    1       22.082 -17.883   4.795  0.00  0.00    +0.002 A 
ATOM     16  C   LIG    1       23.136 -17.038   4.437  0.00  0.00    +0.023 A 
ENDBRANCH   1  11
BRANCH   1  17
ATOM     17  C   LIG    1       26.747 -17.184   3.652  0.00  0.00    +0.106 C 
BRANCH  17  18
ATOM     18  C   LIG    1       26.691 -18.677   3.980  0.00  0.00    +0.034 C 
BRANCH  18  19
ATOM     19  C   LIG    1       27.523 -19.068   5.197  0.00  0.00    +0.086 C 
BRANCH  19  20
ATOM     20  N   LIG    1       27.268 -20.419   5.721  0.00  0.00    -0.303 NA
BRANCH  20  22
ATOM     21  C   LIG    1       29.424 -20.450   7.062  0.00  0.00    +0.020 C 
ATOM     22  C   LIG    1       27.935 -20.770   6.982  0.00  0.00    +0.081 C 
ENDBRANCH  20  22
BRANCH  20  23
ATOM     23  C   LIG    1       25.842 -20.804   5.725  0.00  0.00    +0.081 C 
ATOM     24  C   LIG    1       25.097 -20.876   7.062  0.00  0.00    +0.020 C 
ENDBRANCH  20  23
ENDBRANCH  19  20
ENDBRANCH  18  19
ENDBRANCH  17  18
ENDBRANCH   1  17
TORSDOF 8
ENDMDL
MODEL 5
REMARK VINA RESULT:      -2.9      1.533      4.023
REMARK  Name = *****
REMARK                            x       y       z     vdW  Elec       q    Type
REMARK                         _______ _______ _______ _____ _____    ______ ____
ROOT
ATOM      1  N   LIG    1       25.949 -16.488   3.587  0.00  0.00    -0.326 N 
ENDROOT
BRANCH   1   2
ATOM      2  C   LIG    1       26.665 -15.184   3.757  0.00  0.00    +0.082 C 
ATOM      3  C   LIG    1       26.116 -14.236   4.864  0.00  0.00    +0.058 C 
ATOM      4  C   LIG    1       25.297 -13.248   4.087  0.00  0.00    -0.042 A 
ATOM      5  C   LIG    1       25.606 -13.309   2.724  0.00  0.00    -0.042 A 
ATOM      6  C   LIG    1       25.000 -12.467   1.812  0.00  0.00    +0.004 A 
ATOM      7  C   LIG    1       24.047 -11.563   2.269  0.00  0.00    +0.000 A 
ATOM      8  C   LIG    1       23.723 -11.507   3.637  0.00  0.00    +0.000 A 
ATOM      9  C   LIG    1       24.359 -12.348   4.554  0.00  0.00    +0.004 A 
ATOM     10  C   LIG    1       26.642 -14.353   2.450  0.00  0.00    +0.058 C 
ENDBRANCH   1   2
BRANCH   1  11
ATOM     11  C   LIG    1       24.598 -16.604   3.950  0.00  0.00    +0.030 A 
ATOM     12  C   LIG    1       23.918 -17.842   3.914  0.00  0.00    +0.023 A 
ATOM     13  C   LIG    1       22.578 -17.971   4.301  0.00  0.00    +0.002 A 
ATOM     14  C   LIG    1       21.876 -16.886   4.789  0.00  0.00    +0.000 A 
ATOM     15  C   LIG    1       22.505 -15.646   4.839  0.00  0.00    +0.002 A 
ATOM     16  C   LIG    1       23.822 -15.519   4.388  0.00  0.00    +0.023 A 
ENDBRANCH   1  11
BRANCH   1  17
ATOM     17  C   LIG    1       26.701 -17.707   3.218  0.00  0.00    +0.106 C 
BRANCH  17  18
ATOM     18  C   LIG    1       27.422 -18.274   4.442  0.00  0.00    +0.034 C 
BRANCH  18  19
ATOM     19  C   LIG    1       26.957 -19.672   4.832  0.00  0.00    +0.086 C 
BRANCH  19  20
ATOM     20  N   LIG    1       27.068 -19.993   6.264  0.00  0.00    -0.303 NA
BRANCH  20  22
ATOM     21  C   LIG    1       24.640 -20.728   6.133  0.00  0.00    +0.020 C 
ATOM     22  C   LIG    1       25.991 -20.808   6.839  0.00  0.00    +0.081 C 
ENDBRANCH  20  22
BRANCH  20  23
ATOM     23  C   LIG    1       28.403 -20.473   6.671  0.00  0.00    +0.081 C 
ATOM     24  C   LIG    1       29.475 -19.448   7.054  0.00  0.00    +0.020 C 
ENDBRANCH  20  23
ENDBRANCH  19  20
ENDBRANCH  18  19
ENDBRANCH  17  18
ENDBRANCH   1  17
TORSDOF 8
ENDMDL
MODEL 6
REMARK VINA RESULT:      -2.9      1.735      6.869
REMARK  Name = *****
REMARK                            x       y       z     vdW  Elec       q    Type
REMARK                         _______ _______ _______ _____ _____    ______ ____
ROOT
ATOM      1  N   LIG    1       25.549 -17.784   3.431  0.00  0.00    -0.326 N 
ENDROOT
BRANCH   1   2
ATOM      2  C   LIG    1       25.761 -19.265   3.394  0.00  0.00    +0.082 C 
ATOM      3  C   LIG    1       24.509 -20.132   3.069  0.00  0.00    +0.058 C 
ATOM      4  C   LIG    1       24.070 -20.612   4.421  0.00  0.00    -0.042 A 
ATOM      5  C   LIG    1       25.084 -20.429   5.367  0.00  0.00    -0.042 A 
ATOM      6  C   LIG    1       24.923 -20.828   6.679  0.00  0.00    +0.004 A 
ATOM      7  C   LIG    1       23.712 -21.398   7.060  0.00  0.00    +0.000 A 
ATOM      8  C   LIG    1       22.684 -21.572   6.115  0.00  0.00    +0.000 A 
ATOM      9  C   LIG    1       22.867 -21.185   4.785  0.00  0.00    +0.004 A 
ATOM     10  C   LIG    1       26.290 -19.793   4.751  0.00  0.00    +0.058 C 
ENDBRANCH   1   2
BRANCH   1  11
ATOM     11  C   LIG    1       24.327 -17.255   3.877  0.00  0.00    +0.030 A 
ATOM     12  C   LIG    1       23.185 -18.066   4.059  0.00  0.00    +0.023 A 
ATOM     13  C   LIG    1       21.970 -17.552   4.530  0.00  0.00    +0.002 A 
ATOM     14  C   LIG    1       21.857 -16.222   4.891  0.00  0.00    +0.000 A 
ATOM     15  C   LIG    1       22.957 -15.386   4.724  0.00  0.00    +0.002 A 
ATOM     16  C   LIG    1       24.143 -15.899   4.191  0.00  0.00    +0.023 A 
ENDBRANCH   1  11
BRANCH   1  17
ATOM     17  C   LIG    1       26.545 -16.875   2.822  0.00  0.00    +0.106 C 
BRANCH  17  18
ATOM     18  C   LIG    1       26.914 -15.762   3.805  0.00  0.00    +0.034 C 
BRANCH  18  19
ATOM     19  C   LIG    1       27.438 -14.499   3.130  0.00  0.00    +0.086 C 
BRANCH  19  20
ATOM     20  N   LIG    1       26.569 -13.318   3.252  0.00  0.00    -0.303 NA
BRANCH  20  22
ATOM     21  C   LIG    1       24.208 -12.512   2.775  0.00  0.00    +0.020 C 
ATOM     22  C   LIG    1       25.474 -13.206   2.280  0.00  0.00    +0.081 C 
ENDBRANCH  20  22
BRANCH  20  23
ATOM     23  C   LIG    1       26.114 -13.045   4.630  0.00  0.00    +0.081 C 
ATOM     24  C   LIG    1       27.011 -13.458   5.802  0.00  0.00    +0.020 C 
ENDBRANCH  20  23
ENDBRANCH  19  20
ENDBRANCH  18  19
ENDBRANCH  17  18
ENDBRANCH   1  17
TORSDOF 8
ENDMDL
MODEL 7
REMARK VINA RESULT:      -2.4      1.833      6.529
REMARK  Name = *****
REMARK                            x       y       z     vdW  Elec       q    Type
REMARK                         _______ _______ _______ _____ _____    ______ ____
ROOT
ATOM      1  N   LIG    1       25.309 -16.613   3.669  0.00  0.00    -0.326 N 
ENDROOT
BRANCH   1   2
ATOM      2  C   LIG    1       25.658 -17.978   3.162  0.00  0.00    +0.082 C 
ATOM      3  C   LIG    1       24.465 -18.945   2.908  0.00  0.00    +0.058 C 
ATOM      4  C   LIG    1       24.468 -19.815   4.130  0.00  0.00    -0.042 A 
ATOM      5  C   LIG    1       25.679 -19.696   4.821  0.00  0.00    -0.042 A 
ATOM      6  C   LIG    1       25.929 -20.430   5.964  0.00  0.00    +0.004 A 
ATOM      7  C   LIG    1       24.938 -21.282   6.441  0.00  0.00    +0.000 A 
ATOM      8  C   LIG    1       23.714 -21.395   5.757  0.00  0.00    +0.000 A 
ATOM      9  C   LIG    1       23.480 -20.665   4.589  0.00  0.00    +0.004 A 
ATOM     10  C   LIG    1       26.594 -18.724   4.146  0.00  0.00    +0.058 C 
ENDBRANCH   1   2
BRANCH   1  11
ATOM     11  C   LIG    1       26.244 -15.570   3.591  0.00  0.00    +0.030 A 
ATOM     12  C   LIG    1       26.460 -14.848   2.397  0.00  0.00    +0.023 A 
ATOM     13  C   LIG    1       27.372 -13.787   2.318  0.00  0.00    +0.002 A 
ATOM     14  C   LIG    1       28.067 -13.368   3.437  0.00  0.00    +0.000 A 
ATOM     15  C   LIG    1       27.888 -14.053   4.634  0.00  0.00    +0.002 A 
ATOM     16  C   LIG    1       27.024 -15.151   4.682  0.00  0.00    +0.023 A 
ENDBRANCH   1  11
BRANCH   1  17
ATOM     17  C   LIG    1       24.055 -16.400   4.425  0.00  0.00    +0.106 C 
BRANCH  17  18
ATOM     18  C   LIG    1       23.449 -15.041   4.068  0.00  0.00    +0.034 C 
BRANCH  18  19
ATOM     19  C   LIG    1       24.048 -13.879   4.853  0.00  0.00    +0.086 C 
BRANCH  19  20
ATOM     20  N   LIG    1       24.191 -12.623   4.100  0.00  0.00    -0.303 NA
BRANCH  20  22
ATOM     21  C   LIG    1       24.427 -11.541   1.814  0.00  0.00    +0.020 C 
ATOM     22  C   LIG    1       23.870 -12.676   2.668  0.00  0.00    +0.081 C 
ENDBRANCH  20  22
BRANCH  20  23
ATOM     23  C   LIG    1       23.579 -11.453   4.760  0.00  0.00    +0.081 C 
ATOM     24  C   LIG    1       22.860 -11.649   6.098  0.00  0.00    +0.020 C 
ENDBRANCH  20  23
ENDBRANCH  19  20
ENDBRANCH  18  19
ENDBRANCH  17  18
ENDBRANCH   1  17
TORSDOF 8
ENDMDL
MODEL 8
REMARK VINA RESULT:      -2.3      1.599      3.499
REMARK  Name = *****
REMARK                            x       y       z     vdW  Elec       q    Type
REMARK                         _______ _______ _______ _____ _____    ______ ____
ROOT
ATOM      1  N   LIG    1       26.910 -15.823   3.899  0.00  0.00    -0.326 N 
ENDROOT
BRANCH   1   2
ATOM      2  C   LIG    1       25.580 -15.749   3.216  0.00  0.00    +0.082 C 
ATOM      3  C   LIG    1       25.405 -14.608   2.171  0.00  0.00    +0.058 C 
ATOM      4  C   LIG    1       24.643 -13.565   2.934  0.00  0.00    -0.042 A 
ATOM      5  C   LIG    1       24.084 -14.108   4.096  0.00  0.00    -0.042 A 
ATOM      6  C   LIG    1       23.308 -13.344   4.944  0.00  0.00    +0.004 A 
ATOM      7  C   LIG    1       23.108 -12.001   4.639  0.00  0.00    +0.000 A 
ATOM      8  C   LIG    1       23.679 -11.447   3.479  0.00  0.00    +0.000 A 
ATOM      9  C   LIG    1       24.444 -12.235   2.615  0.00  0.00    +0.004 A 
ATOM     10  C   LIG    1       24.431 -15.556   4.237  0.00  0.00    +0.058 C 
ENDBRANCH   1   2
BRANCH   1  11
ATOM     11  C   LIG    1       27.595 -14.646   4.240  0.00  0.00    +0.030 A 
ATOM     12  C   LIG    1       28.504 -14.027   3.353  0.00  0.00    +0.023 A 
ATOM     13  C   LIG    1       29.171 -12.838   3.675  0.00  0.00    +0.002 A 
ATOM     14  C   LIG    1       28.921 -12.188   4.869  0.00  0.00    +0.000 A 
ATOM     15  C   LIG    1       28.036 -12.765   5.774  0.00  0.00    +0.002 A 
ATOM     16  C   LIG    1       27.428 -13.985   5.468  0.00  0.00    +0.023 A 
ENDBRANCH   1  11
BRANCH   1  17
ATOM     17  C   LIG    1       27.598 -17.124   4.048  0.00  0.00    +0.106 C 
BRANCH  17  18
ATOM     18  C   LIG    1       26.650 -18.267   3.678  0.00  0.00    +0.034 C 
BRANCH  18  19
ATOM     19  C   LIG    1       26.552 -19.350   4.747  0.00  0.00    +0.086 C 
BRANCH  19  20
ATOM     20  N   LIG    1       25.368 -20.218   4.652  0.00  0.00    -0.303 NA
BRANCH  20  22
ATOM     21  C   LIG    1       25.844 -20.870   7.060  0.00  0.00    +0.020 C 
ATOM     22  C   LIG    1       25.192 -21.207   5.723  0.00  0.00    +0.081 C 
ENDBRANCH  20  22
BRANCH  20  23
ATOM     23  C   LIG    1       24.115 -19.496   4.354  0.00  0.00    +0.081 C 
ATOM     24  C   LIG    1       22.785 -20.100   4.815  0.00  0.00    +0.020 C 
ENDBRANCH  20  23
ENDBRANCH  19  20
ENDBRANCH  18  19
ENDBRANCH  17  18
ENDBRANCH   1  17
TORSDOF 8
ENDMDL
MODEL 9
REMARK VINA RESULT:      -2.1      1.338      6.376
REMARK  Name = *****
REMARK                            x       y       z     vdW  Elec       q    Type
REMARK                         _______ _______ _______ _____ _____    ______ ____
ROOT
ATOM      1  N   LIG    1       24.821 -18.035   3.994  0.00  0.00    -0.326 N 
ENDROOT
BRANCH   1   2
ATOM      2  C   LIG    1       26.045 -18.751   3.514  0.00  0.00    +0.082 C 
ATOM      3  C   LIG    1       26.344 -20.126   4.180  0.00  0.00    +0.058 C 
ATOM      4  C   LIG    1       27.402 -19.790   5.189  0.00  0.00    -0.042 A 
ATOM      5  C   LIG    1       27.960 -18.534   4.925  0.00  0.00    -0.042 A 
ATOM      6  C   LIG    1       28.980 -18.024   5.703  0.00  0.00    +0.004 A 
ATOM      7  C   LIG    1       29.434 -18.773   6.784  0.00  0.00    +0.000 A 
ATOM      8  C   LIG    1       28.868 -20.030   7.061  0.00  0.00    +0.000 A 
ATOM      9  C   LIG    1       27.852 -20.547   6.253  0.00  0.00    +0.004 A 
ATOM     10  C   LIG    1       27.320 -17.898   3.732  0.00  0.00    +0.058 C 
ENDBRANCH   1   2
BRANCH   1  11
ATOM     11  C   LIG    1       23.635 -18.746   4.234  0.00  0.00    +0.030 A 
ATOM     12  C   LIG    1       22.379 -18.275   3.794  0.00  0.00    +0.023 A 
ATOM     13  C   LIG    1       21.194 -18.993   4.005  0.00  0.00    +0.002 A 
ATOM     14  C   LIG    1       21.218 -20.232   4.616  0.00  0.00    +0.000 A 
ATOM     15  C   LIG    1       22.434 -20.733   5.070  0.00  0.00    +0.002 A 
ATOM     16  C   LIG    1       23.599 -19.977   4.910  0.00  0.00    +0.023 A 
ENDBRANCH   1  11
BRANCH   1  17
ATOM     17  C   LIG    1       24.793 -16.557   4.036  0.00  0.00    +0.106 C 
BRANCH  17  18
ATOM     18  C   LIG    1       25.757 -15.980   2.997  0.00  0.00    +0.034 C 
BRANCH  18  19
ATOM     19  C   LIG    1       25.886 -14.462   3.058  0.00  0.00    +0.086 C 
BRANCH  19  20
ATOM     20  N   LIG    1       25.769 -13.878   4.403  0.00  0.00    -0.303 NA
BRANCH  20  22
ATOM     21  C   LIG    1       28.268 -13.495   4.157  0.00  0.00    +0.020 C 
ATOM     22  C   LIG    1       27.005 -13.358   5.003  0.00  0.00    +0.081 C 
ENDBRANCH  20  22
BRANCH  20  23
ATOM     23  C   LIG    1       24.643 -12.934   4.553  0.00  0.00    +0.081 C 
ATOM     24  C   LIG    1       24.022 -12.315   3.297  0.00  0.00    +0.020 C 
ENDBRANCH  20  23
ENDBRANCH  19  20
ENDBRANCH  18  19
ENDBRANCH  17  18
ENDBRANCH   1  17
TORSDOF 8
ENDMDL
