MODEL 1
REMARK VINA RESULT:      -9.1      0.000      0.000
REMARK  Name = *****
REMARK                            x       y       z     vdW  Elec       q    Type
REMARK                         _______ _______ _______ _____ _____    ______ ____
ROOT
ATOM      1  C   LIG    1       30.778 -20.589   8.280  0.00  0.00    +0.216 A 
ATOM      2  N   LIG    1       29.704 -21.312   8.577  0.00  0.00    -0.193 NA
ATOM      3  C   LIG    1       28.598 -21.096   7.873  0.00  0.00    +0.187 A 
ATOM      4  C   LIG    1       28.514 -20.142   6.856  0.00  0.00    +0.148 A 
ATOM      5  N   LIG    1       27.367 -19.911   6.154  0.00  0.00    -0.237 NA
ATOM      6  C   LIG    1       26.287 -20.665   6.478  0.00  0.00    +0.111 A 
ATOM      7  C   LIG    1       26.386 -21.643   7.479  0.00  0.00    +0.145 A 
ATOM      8  C   LIG    1       29.695 -19.435   6.653  0.00  0.00    +0.149 A 
ATOM      9  N   LIG    1       27.527 -21.838   8.173  0.00  0.00    -0.209 NA
ATOM     10  N   LIG    1       30.821 -19.640   7.351  0.00  0.00    -0.198 NA
ENDROOT
BRANCH   6  11
ATOM     11  C   LIG    1       25.070 -20.376   5.694  0.00  0.00    +0.004 A 
ATOM     12  C   LIG    1       25.168 -20.008   4.338  0.00  0.00    +0.010 A 
ATOM     13  C   LIG    1       24.030 -19.728   3.575  0.00  0.00    +0.001 A 
ATOM     14  C   LIG    1       22.768 -19.804   4.155  0.00  0.00    +0.000 A 
ATOM     15  C   LIG    1       22.643 -20.151   5.497  0.00  0.00    +0.001 A 
ATOM     16  C   LIG    1       23.784 -20.429   6.258  0.00  0.00    +0.010 A 
ENDBRANCH   6  11
BRANCH   1  17
ATOM     17  N   LIG    1       31.920 -20.811   9.017  0.00  0.00    -0.327 N 
ATOM     18  H   LIG    1       31.687 -21.012   9.981  0.00  0.00    +0.145 HD
ATOM     19  H   LIG    1       32.605 -20.090   8.843  0.00  0.00    +0.145 HD
ENDBRANCH   1  17
BRANCH   7  20
ATOM     20  N   LIG    1       25.332 -22.477   7.858  0.00  0.00    -0.341 N 
ATOM     21  H   LIG    1       24.558 -21.879   8.143  0.00  0.00    +0.144 HD
ATOM     22  H   LIG    1       25.608 -23.119   8.595  0.00  0.00    +0.144 HD
ENDBRANCH   7  20
BRANCH   8  23
ATOM     23  N   LIG    1       29.789 -18.486   5.622  0.00  0.00    -0.341 N 
ATOM     24  H   LIG    1       30.396 -17.713   5.881  0.00  0.00    +0.144 HD
ATOM     25  H   LIG    1       30.039 -18.950   4.755  0.00  0.00    +0.144 HD
ENDBRANCH   8  23
TORSDOF 4
ENDMDL
MODEL 2
REMARK VINA RESULT:      -7.8      1.953      3.282
REMARK  Name = *****
REMARK                            x       y       z     vdW  Elec       q    Type
REMARK                         _______ _______ _______ _____ _____    ______ ____
ROOT
ATOM      1  C   LIG    1       31.274 -19.292   7.623  0.00  0.00    +0.216 A 
ATOM      2  N   LIG    1       30.315 -19.046   6.738  0.00  0.00    -0.193 NA
ATOM      3  C   LIG    1       29.247 -19.838   6.747  0.00  0.00    +0.187 A 
ATOM      4  C   LIG    1       29.101 -20.912   7.627  0.00  0.00    +0.148 A 
ATOM      5  N   LIG    1       28.012 -21.734   7.614  0.00  0.00    -0.237 NA
ATOM      6  C   LIG    1       27.047 -21.459   6.700  0.00  0.00    +0.111 A 
ATOM      7  C   LIG    1       27.185 -20.358   5.840  0.00  0.00    +0.145 A 
ATOM      8  C   LIG    1       30.179 -21.081   8.490  0.00  0.00    +0.149 A 
ATOM      9  N   LIG    1       28.282 -19.574   5.860  0.00  0.00    -0.209 NA
ATOM     10  N   LIG    1       31.263 -20.292   8.498  0.00  0.00    -0.198 NA
ENDROOT
BRANCH   6  11
ATOM     11  C   LIG    1       25.891 -22.377   6.722  0.00  0.00    +0.004 A 
ATOM     12  C   LIG    1       24.590 -21.879   6.931  0.00  0.00    +0.010 A 
ATOM     13  C   LIG    1       23.480 -22.728   6.957  0.00  0.00    +0.001 A 
ATOM     14  C   LIG    1       23.649 -24.098   6.782  0.00  0.00    +0.000 A 
ATOM     15  C   LIG    1       24.925 -24.619   6.588  0.00  0.00    +0.001 A 
ATOM     16  C   LIG    1       26.034 -23.767   6.564  0.00  0.00    +0.010 A 
ENDBRANCH   6  11
BRANCH   1  17
ATOM     17  N   LIG    1       32.382 -18.473   7.606  0.00  0.00    -0.327 N 
ATOM     18  H   LIG    1       33.173 -18.937   8.034  0.00  0.00    +0.145 HD
ATOM     19  H   LIG    1       32.150 -17.547   7.935  0.00  0.00    +0.145 HD
ENDBRANCH   1  17
BRANCH   7  20
ATOM     20  N   LIG    1       26.231 -19.991   4.889  0.00  0.00    -0.341 N 
ATOM     21  H   LIG    1       26.724 -19.813   4.016  0.00  0.00    +0.144 HD
ATOM     22  H   LIG    1       25.691 -19.186   5.193  0.00  0.00    +0.144 HD
ENDBRANCH   7  20
BRANCH   8  23
ATOM     23  N   LIG    1       30.153 -22.079   9.478  0.00  0.00    -0.341 N 
ATOM     24  H   LIG    1       29.538 -22.845   9.217  0.00  0.00    +0.144 HD
ATOM     25  H   LIG    1       31.102 -22.355   9.707  0.00  0.00    +0.144 HD
ENDBRANCH   8  23
TORSDOF 4
ENDMDL
MODEL 3
REMARK VINA RESULT:      -7.7      4.629      7.207
REMARK  Name = *****
REMARK                            x       y       z     vdW  Elec       q    Type
REMARK                         _______ _______ _______ _____ _____    ______ ____
ROOT
ATOM      1  C   LIG    1       25.029 -28.946   5.613  0.00  0.00    +0.216 A 
ATOM      2  N   LIG    1       24.726 -27.855   4.919  0.00  0.00    -0.193 NA
ATOM      3  C   LIG    1       25.021 -26.677   5.458  0.00  0.00    +0.187 A 
ATOM      4  C   LIG    1       25.617 -26.539   6.714  0.00  0.00    +0.148 A 
ATOM      5  N   LIG    1       25.897 -25.324   7.269  0.00  0.00    -0.237 NA
ATOM      6  C   LIG    1       25.577 -24.227   6.538  0.00  0.00    +0.111 A 
ATOM      7  C   LIG    1       25.007 -24.373   5.263  0.00  0.00    +0.145 A 
ATOM      8  C   LIG    1       25.867 -27.751   7.351  0.00  0.00    +0.149 A 
ATOM      9  N   LIG    1       24.722 -25.585   4.746  0.00  0.00    -0.209 NA
ATOM     10  N   LIG    1       25.578 -28.949   6.823  0.00  0.00    -0.198 NA
ENDROOT
BRANCH   6  11
ATOM     11  C   LIG    1       25.894 -22.937   7.182  0.00  0.00    +0.004 A 
ATOM     12  C   LIG    1       24.873 -22.162   7.764  0.00  0.00    +0.010 A 
ATOM     13  C   LIG    1       25.149 -20.937   8.378  0.00  0.00    +0.001 A 
ATOM     14  C   LIG    1       26.454 -20.457   8.417  0.00  0.00    +0.000 A 
ATOM     15  C   LIG    1       27.480 -21.196   7.836  0.00  0.00    +0.001 A 
ATOM     16  C   LIG    1       27.201 -22.421   7.221  0.00  0.00    +0.010 A 
ENDBRANCH   6  11
BRANCH   1  17
ATOM     17  N   LIG    1       24.715 -30.165   5.054  0.00  0.00    -0.327 N 
ATOM     18  H   LIG    1       23.724 -30.350   5.141  0.00  0.00    +0.145 HD
ATOM     19  H   LIG    1       25.353 -30.881   5.371  0.00  0.00    +0.145 HD
ENDBRANCH   1  17
BRANCH   7  20
ATOM     20  N   LIG    1       24.670 -23.299   4.436  0.00  0.00    -0.341 N 
ATOM     21  H   LIG    1       23.835 -22.865   4.825  0.00  0.00    +0.144 HD
ATOM     22  H   LIG    1       24.531 -23.596   3.475  0.00  0.00    +0.144 HD
ENDBRANCH   7  20
BRANCH   8  23
ATOM     23  N   LIG    1       26.522 -27.781   8.593  0.00  0.00    -0.341 N 
ATOM     24  H   LIG    1       27.106 -28.607   8.686  0.00  0.00    +0.144 HD
ATOM     25  H   LIG    1       27.003 -26.901   8.745  0.00  0.00    +0.144 HD
ENDBRANCH   8  23
TORSDOF 4
ENDMDL
MODEL 4
REMARK VINA RESULT:      -7.5      2.328      6.150
REMARK  Name = *****
REMARK                            x       y       z     vdW  Elec       q    Type
REMARK                         _______ _______ _______ _____ _____    ______ ____
ROOT
ATOM      1  C   LIG    1       22.584 -20.943   4.855  0.00  0.00    +0.216 A 
ATOM      2  N   LIG    1       22.941 -20.963   6.134  0.00  0.00    -0.193 NA
ATOM      3  C   LIG    1       24.223 -20.766   6.422  0.00  0.00    +0.187 A 
ATOM      4  C   LIG    1       25.202 -20.557   5.448  0.00  0.00    +0.148 A 
ATOM      5  N   LIG    1       26.520 -20.379   5.751  0.00  0.00    -0.237 NA
ATOM      6  C   LIG    1       26.855 -20.403   7.066  0.00  0.00    +0.111 A 
ATOM      7  C   LIG    1       25.863 -20.581   8.042  0.00  0.00    +0.145 A 
ATOM      8  C   LIG    1       24.710 -20.580   4.146  0.00  0.00    +0.149 A 
ATOM      9  N   LIG    1       24.569 -20.776   7.714  0.00  0.00    -0.209 NA
ATOM     10  N   LIG    1       23.420 -20.774   3.836  0.00  0.00    -0.198 NA
ENDROOT
BRANCH   6  11
ATOM     11  C   LIG    1       28.292 -20.209   7.344  0.00  0.00    +0.004 A 
ATOM     12  C   LIG    1       28.945 -19.033   6.927  0.00  0.00    +0.010 A 
ATOM     13  C   LIG    1       30.305 -18.828   7.178  0.00  0.00    +0.001 A 
ATOM     14  C   LIG    1       31.044 -19.800   7.846  0.00  0.00    +0.000 A 
ATOM     15  C   LIG    1       30.426 -20.977   8.256  0.00  0.00    +0.001 A 
ATOM     16  C   LIG    1       29.066 -21.181   8.003  0.00  0.00    +0.010 A 
ENDBRANCH   6  11
BRANCH   1  17
ATOM     17  N   LIG    1       21.255 -21.155   4.560  0.00  0.00    -0.327 N 
ATOM     18  H   LIG    1       21.004 -22.120   4.726  0.00  0.00    +0.145 HD
ATOM     19  H   LIG    1       21.019 -20.759   3.661  0.00  0.00    +0.145 HD
ENDBRANCH   1  17
BRANCH   7  20
ATOM     20  N   LIG    1       26.117 -20.594   9.415  0.00  0.00    -0.341 N 
ATOM     21  H   LIG    1       26.725 -21.389   9.605  0.00  0.00    +0.144 HD
ATOM     22  H   LIG    1       25.258 -20.635   9.955  0.00  0.00    +0.144 HD
ENDBRANCH   7  20
BRANCH   8  23
ATOM     23  N   LIG    1       25.559 -20.322   3.058  0.00  0.00    -0.341 N 
ATOM     24  H   LIG    1       25.586 -21.105   2.412  0.00  0.00    +0.144 HD
ATOM     25  H   LIG    1       25.311 -19.433   2.638  0.00  0.00    +0.144 HD
ENDBRANCH   8  23
TORSDOF 4
ENDMDL
MODEL 5
REMARK VINA RESULT:      -7.5      4.257      6.826
REMARK  Name = *****
REMARK                            x       y       z     vdW  Elec       q    Type
REMARK                         _______ _______ _______ _____ _____    ______ ____
ROOT
ATOM      1  C   LIG    1       24.382 -28.301   5.500  0.00  0.00    +0.216 A 
ATOM      2  N   LIG    1       23.632 -27.278   5.894  0.00  0.00    -0.193 NA
ATOM      3  C   LIG    1       24.232 -26.107   6.082  0.00  0.00    +0.187 A 
ATOM      4  C   LIG    1       25.603 -25.913   5.899  0.00  0.00    +0.148 A 
ATOM      5  N   LIG    1       26.215 -24.713   6.117  0.00  0.00    -0.237 NA
ATOM      6  C   LIG    1       25.424 -23.686   6.517  0.00  0.00    +0.111 A 
ATOM      7  C   LIG    1       24.042 -23.879   6.669  0.00  0.00    +0.145 A 
ATOM      8  C   LIG    1       26.284 -27.062   5.507  0.00  0.00    +0.149 A 
ATOM      9  N   LIG    1       23.466 -25.081   6.467  0.00  0.00    -0.209 NA
ATOM     10  N   LIG    1       25.696 -28.251   5.310  0.00  0.00    -0.198 NA
ENDROOT
BRANCH   6  11
ATOM     11  C   LIG    1       26.131 -22.410   6.743  0.00  0.00    +0.004 A 
ATOM     12  C   LIG    1       26.861 -22.201   7.929  0.00  0.00    +0.010 A 
ATOM     13  C   LIG    1       27.538 -21.001   8.166  0.00  0.00    +0.001 A 
ATOM     14  C   LIG    1       27.493 -19.979   7.223  0.00  0.00    +0.000 A 
ATOM     15  C   LIG    1       26.766 -20.153   6.049  0.00  0.00    +0.001 A 
ATOM     16  C   LIG    1       26.089 -21.355   5.815  0.00  0.00    +0.010 A 
ENDBRANCH   6  11
BRANCH   1  17
ATOM     17  N   LIG    1       23.757 -29.515   5.313  0.00  0.00    -0.327 N 
ATOM     18  H   LIG    1       23.154 -29.482   4.501  0.00  0.00    +0.145 HD
ATOM     19  H   LIG    1       23.358 -29.850   6.178  0.00  0.00    +0.145 HD
ENDBRANCH   1  17
BRANCH   7  20
ATOM     20  N   LIG    1       23.155 -22.871   7.054  0.00  0.00    -0.341 N 
ATOM     21  H   LIG    1       22.224 -23.283   7.089  0.00  0.00    +0.144 HD
ATOM     22  H   LIG    1       23.195 -22.076   6.423  0.00  0.00    +0.144 HD
ENDBRANCH   7  20
BRANCH   8  23
ATOM     23  N   LIG    1       27.658 -27.014   5.221  0.00  0.00    -0.341 N 
ATOM     24  H   LIG    1       28.208 -27.443   5.960  0.00  0.00    +0.144 HD
ATOM     25  H   LIG    1       27.824 -27.391   4.294  0.00  0.00    +0.144 HD
ENDBRANCH   8  23
TORSDOF 4
ENDMDL
MODEL 6
REMARK VINA RESULT:      -7.4      3.746      5.042
REMARK  Name = *****
REMARK                            x       y       z     vdW  Elec       q    Type
REMARK                         _______ _______ _______ _____ _____    ______ ____
ROOT
ATOM      1  C   LIG    1       26.011 -26.321   6.841  0.00  0.00    +0.216 A 
ATOM      2  N   LIG    1       25.942 -25.222   7.583  0.00  0.00    -0.193 NA
ATOM      3  C   LIG    1       25.488 -24.114   7.008  0.00  0.00    +0.187 A 
ATOM      4  C   LIG    1       25.100 -24.052   5.668  0.00  0.00    +0.148 A 
ATOM      5  N   LIG    1       24.657 -22.904   5.079  0.00  0.00    -0.237 NA
ATOM      6  C   LIG    1       24.595 -21.798   5.863  0.00  0.00    +0.111 A 
ATOM      7  C   LIG    1       24.957 -21.873   7.217  0.00  0.00    +0.145 A 
ATOM      8  C   LIG    1       25.238 -25.259   4.989  0.00  0.00    +0.149 A 
ATOM      9  N   LIG    1       25.411 -23.017   7.769  0.00  0.00    -0.209 NA
ATOM     10  N   LIG    1       25.691 -26.389   5.553  0.00  0.00    -0.198 NA
ENDROOT
BRANCH   6  11
ATOM     11  C   LIG    1       24.114 -20.580   5.181  0.00  0.00    +0.004 A 
ATOM     12  C   LIG    1       22.823 -20.082   5.442  0.00  0.00    +0.010 A 
ATOM     13  C   LIG    1       22.344 -18.932   4.808  0.00  0.00    +0.001 A 
ATOM     14  C   LIG    1       23.146 -18.258   3.891  0.00  0.00    +0.000 A 
ATOM     15  C   LIG    1       24.421 -18.737   3.604  0.00  0.00    +0.001 A 
ATOM     16  C   LIG    1       24.897 -19.889   4.239  0.00  0.00    +0.010 A 
ENDBRANCH   6  11
BRANCH   1  17
ATOM     17  N   LIG    1       26.489 -27.467   7.439  0.00  0.00    -0.327 N 
ATOM     18  H   LIG    1       26.077 -28.287   7.014  0.00  0.00    +0.145 HD
ATOM     19  H   LIG    1       26.446 -27.391   8.445  0.00  0.00    +0.145 HD
ENDBRANCH   1  17
BRANCH   7  20
ATOM     20  N   LIG    1       24.900 -20.790   8.097  0.00  0.00    -0.341 N 
ATOM     21  H   LIG    1       23.917 -20.585   8.264  0.00  0.00    +0.144 HD
ATOM     22  H   LIG    1       25.400 -19.985   7.732  0.00  0.00    +0.144 HD
ENDBRANCH   7  20
BRANCH   8  23
ATOM     23  N   LIG    1       24.829 -25.376   3.651  0.00  0.00    -0.341 N 
ATOM     24  H   LIG    1       23.828 -25.539   3.581  0.00  0.00    +0.144 HD
ATOM     25  H   LIG    1       25.167 -24.579   3.122  0.00  0.00    +0.144 HD
ENDBRANCH   8  23
TORSDOF 4
ENDMDL
MODEL 7
REMARK VINA RESULT:      -7.4      4.275      6.347
REMARK  Name = *****
REMARK                            x       y       z     vdW  Elec       q    Type
REMARK                         _______ _______ _______ _____ _____    ______ ____
ROOT
ATOM      1  C   LIG    1       22.903 -18.590   4.463  0.00  0.00    +0.216 A 
ATOM      2  N   LIG    1       22.296 -19.558   5.139  0.00  0.00    -0.193 NA
ATOM      3  C   LIG    1       22.941 -20.711   5.283  0.00  0.00    +0.187 A 
ATOM      4  C   LIG    1       24.209 -20.949   4.747  0.00  0.00    +0.148 A 
ATOM      5  N   LIG    1       24.854 -22.144   4.880  0.00  0.00    -0.237 NA
ATOM      6  C   LIG    1       24.210 -23.114   5.577  0.00  0.00    +0.111 A 
ATOM      7  C   LIG    1       22.950 -22.859   6.140  0.00  0.00    +0.145 A 
ATOM      8  C   LIG    1       24.731 -19.869   4.043  0.00  0.00    +0.149 A 
ATOM      9  N   LIG    1       22.325 -21.675   5.976  0.00  0.00    -0.209 NA
ATOM     10  N   LIG    1       24.097 -18.697   3.889  0.00  0.00    -0.198 NA
ENDROOT
BRANCH   6  11
ATOM     11  C   LIG    1       24.946 -24.389   5.691  0.00  0.00    +0.004 A 
ATOM     12  C   LIG    1       25.003 -25.278   4.600  0.00  0.00    +0.010 A 
ATOM     13  C   LIG    1       25.692 -26.491   4.685  0.00  0.00    +0.001 A 
ATOM     14  C   LIG    1       26.335 -26.845   5.866  0.00  0.00    +0.000 A 
ATOM     15  C   LIG    1       26.283 -25.992   6.965  0.00  0.00    +0.001 A 
ATOM     16  C   LIG    1       25.591 -24.779   6.878  0.00  0.00    +0.010 A 
ENDBRANCH   6  11
BRANCH   1  17
ATOM     17  N   LIG    1       22.228 -17.399   4.310  0.00  0.00    -0.327 N 
ATOM     18  H   LIG    1       22.268 -17.090   3.347  0.00  0.00    +0.145 HD
ATOM     19  H   LIG    1       22.500 -16.738   5.024  0.00  0.00    +0.145 HD
ENDBRANCH   1  17
BRANCH   7  20
ATOM     20  N   LIG    1       22.231 -23.791   6.891  0.00  0.00    -0.341 N 
ATOM     21  H   LIG    1       22.645 -24.705   6.717  0.00  0.00    +0.144 HD
ATOM     22  H   LIG    1       21.242 -23.772   6.663  0.00  0.00    +0.144 HD
ENDBRANCH   7  20
BRANCH   8  23
ATOM     23  N   LIG    1       26.025 -19.930   3.499  0.00  0.00    -0.341 N 
ATOM     24  H   LIG    1       26.347 -19.014   3.200  0.00  0.00    +0.144 HD
ATOM     25  H   LIG    1       26.642 -20.407   4.147  0.00  0.00    +0.144 HD
ENDBRANCH   8  23
TORSDOF 4
ENDMDL
MODEL 8
REMARK VINA RESULT:      -7.3      1.968      6.472
REMARK  Name = *****
REMARK                            x       y       z     vdW  Elec       q    Type
REMARK                         _______ _______ _______ _____ _____    ______ ____
ROOT
ATOM      1  C   LIG    1       24.220 -21.350   5.584  0.00  0.00    +0.216 A 
ATOM      2  N   LIG    1       25.180 -20.672   4.965  0.00  0.00    -0.193 NA
ATOM      3  C   LIG    1       26.251 -20.330   5.672  0.00  0.00    +0.187 A 
ATOM      4  C   LIG    1       26.402 -20.637   7.026  0.00  0.00    +0.148 A 
ATOM      5  N   LIG    1       27.496 -20.262   7.751  0.00  0.00    -0.237 NA
ATOM      6  C   LIG    1       28.460 -19.571   7.093  0.00  0.00    +0.111 A 
ATOM      7  C   LIG    1       28.318 -19.294   5.724  0.00  0.00    +0.145 A 
ATOM      8  C   LIG    1       25.323 -21.329   7.567  0.00  0.00    +0.149 A 
ATOM      9  N   LIG    1       27.217 -19.659   5.036  0.00  0.00    -0.209 NA
ATOM     10  N   LIG    1       24.235 -21.685   6.869  0.00  0.00    -0.198 NA
ENDROOT
BRANCH   6  11
ATOM     11  C   LIG    1       29.621 -19.185   7.919  0.00  0.00    +0.004 A 
ATOM     12  C   LIG    1       29.695 -17.897   8.484  0.00  0.00    +0.010 A 
ATOM     13  C   LIG    1       30.784 -17.507   9.269  0.00  0.00    +0.001 A 
ATOM     14  C   LIG    1       31.829 -18.397   9.500  0.00  0.00    +0.000 A 
ATOM     15  C   LIG    1       31.788 -19.671   8.941  0.00  0.00    +0.001 A 
ATOM     16  C   LIG    1       30.697 -20.058   8.155  0.00  0.00    +0.010 A 
ENDBRANCH   6  11
BRANCH   1  17
ATOM     17  N   LIG    1       23.108 -21.697   4.848  0.00  0.00    -0.327 N 
ATOM     18  H   LIG    1       23.286 -22.534   4.309  0.00  0.00    +0.145 HD
ATOM     19  H   LIG    1       22.738 -20.895   4.357  0.00  0.00    +0.145 HD
ENDBRANCH   1  17
BRANCH   7  20
ATOM     20  N   LIG    1       29.272 -18.611   4.966  0.00  0.00    -0.341 N 
ATOM     21  H   LIG    1       29.018 -17.625   4.975  0.00  0.00    +0.144 HD
ATOM     22  H   LIG    1       29.334 -18.980   4.022  0.00  0.00    +0.144 HD
ENDBRANCH   7  20
BRANCH   8  23
ATOM     23  N   LIG    1       25.353 -21.766   8.902  0.00  0.00    -0.341 N 
ATOM     24  H   LIG    1       25.417 -20.985   9.548  0.00  0.00    +0.144 HD
ATOM     25  H   LIG    1       24.575 -22.395   9.071  0.00  0.00    +0.144 HD
ENDBRANCH   8  23
TORSDOF 4
ENDMDL
MODEL 9
REMARK VINA RESULT:      -6.7      6.892      9.116
REMARK  Name = *****
REMARK                            x       y       z     vdW  Elec       q    Type
REMARK                         _______ _______ _______ _____ _____    ______ ____
ROOT
ATOM      1  C   LIG    1       24.931 -31.818   6.351  0.00  0.00    +0.216 A 
ATOM      2  N   LIG    1       25.286 -30.953   5.408  0.00  0.00    -0.193 NA
ATOM      3  C   LIG    1       25.175 -29.657   5.683  0.00  0.00    +0.187 A 
ATOM      4  C   LIG    1       24.692 -29.174   6.901  0.00  0.00    +0.148 A 
ATOM      5  N   LIG    1       24.559 -27.843   7.167  0.00  0.00    -0.237 NA
ATOM      6  C   LIG    1       24.930 -26.981   6.186  0.00  0.00    +0.111 A 
ATOM      7  C   LIG    1       25.444 -27.473   4.976  0.00  0.00    +0.145 A 
ATOM      8  C   LIG    1       24.333 -30.176   7.798  0.00  0.00    +0.149 A 
ATOM      9  N   LIG    1       25.547 -28.795   4.731  0.00  0.00    -0.209 NA
ATOM     10  N   LIG    1       24.441 -31.487   7.540  0.00  0.00    -0.198 NA
ENDROOT
BRANCH   6  11
ATOM     11  C   LIG    1       24.765 -25.553   6.519  0.00  0.00    +0.004 A 
ATOM     12  C   LIG    1       25.865 -24.793   6.962  0.00  0.00    +0.010 A 
ATOM     13  C   LIG    1       25.733 -23.439   7.283  0.00  0.00    +0.001 A 
ATOM     14  C   LIG    1       24.493 -22.816   7.176  0.00  0.00    +0.000 A 
ATOM     15  C   LIG    1       23.386 -23.547   6.755  0.00  0.00    +0.001 A 
ATOM     16  C   LIG    1       23.521 -24.903   6.435  0.00  0.00    +0.010 A 
ENDBRANCH   6  11
BRANCH   1  17
ATOM     17  N   LIG    1       25.042 -33.160   6.059  0.00  0.00    -0.327 N 
ATOM     18  H   LIG    1       24.440 -33.405   5.284  0.00  0.00    +0.145 HD
ATOM     19  H   LIG    1       24.973 -33.717   6.899  0.00  0.00    +0.145 HD
ENDBRANCH   1  17
BRANCH   7  20
ATOM     20  N   LIG    1       25.872 -26.657   3.926  0.00  0.00    -0.341 N 
ATOM     21  H   LIG    1       25.526 -25.717   4.111  0.00  0.00    +0.144 HD
ATOM     22  H   LIG    1       25.556 -27.009   3.027  0.00  0.00    +0.144 HD
ENDBRANCH   7  20
BRANCH   8  23
ATOM     23  N   LIG    1       23.890 -29.850   9.091  0.00  0.00    -0.341 N 
ATOM     24  H   LIG    1       24.484 -29.147   9.522  0.00  0.00    +0.144 HD
ATOM     25  H   LIG    1       22.904 -29.615   9.063  0.00  0.00    +0.144 HD
ENDBRANCH   8  23
TORSDOF 4
ENDMDL
