MODEL 1
REMARK VINA RESULT:      24.8      0.000      0.000
REMARK  Name = *****
REMARK                            x       y       z     vdW  Elec       q    Type
REMARK                         _______ _______ _______ _____ _____    ______ ____
ROOT
ATOM      1  C   LIG    1       25.250 -15.378   4.393  0.00  0.00    +0.380 C 
ATOM      2  N   LIG    1       26.414 -16.023   3.944  0.00  0.00    -0.181 N 
ATOM      3  C   LIG    1       27.582 -15.131   3.671  0.00  0.00    +0.189 C 
ATOM      4  C   LIG    1       27.606 -13.968   4.669  0.00  0.00    +0.033 A 
ATOM      5  C   LIG    1       26.377 -13.423   5.047  0.00  0.00    +0.183 A 
ATOM      6  C   LIG    1       26.359 -12.140   5.620  0.00  0.00    +0.166 A 
ATOM      7  C   LIG    1       27.538 -11.447   5.900  0.00  0.00    +0.042 A 
ATOM      8  C   LIG    1       28.764 -12.054   5.643  0.00  0.00    +0.003 A 
ATOM      9  F   LIG    1       25.194 -11.521   5.869  0.00  0.00    -0.202 F 
ATOM     10  C   LIG    1       28.800 -13.308   5.025  0.00  0.00    +0.010 A 
ATOM     11  N   LIG    1       25.193 -14.146   4.840  0.00  0.00    -0.073 NA
ENDROOT
BRANCH   1  15
ATOM     12  N   LIG    1       21.285 -16.882   4.239  0.00  0.00    -0.324 N 
ATOM     13  C   LIG    1       21.912 -16.447   5.515  0.00  0.00    +0.140 C 
ATOM     14  C   LIG    1       23.433 -16.688   5.467  0.00  0.00    +0.206 C 
ATOM     15  N   LIG    1       24.051 -16.047   4.285  0.00  0.00    -0.221 N 
ATOM     16  C   LIG    1       23.395 -16.348   3.009  0.00  0.00    +0.206 C 
ATOM     17  C   LIG    1       21.871 -16.122   3.101  0.00  0.00    +0.140 C 
BRANCH  12  20
ATOM     18  C   LIG    1       21.023 -20.619   4.636  0.00  0.00    +0.122 A 
ATOM     19  C   LIG    1       21.488 -19.297   4.759  0.00  0.00    +0.068 A 
ATOM     20  C   LIG    1       20.897 -18.217   4.062  0.00  0.00    +0.033 A 
ATOM     21  C   LIG    1       19.813 -18.555   3.228  0.00  0.00    +0.023 A 
ATOM     22  C   LIG    1       19.352 -19.865   3.088  0.00  0.00    +0.005 A 
ATOM     23  C   LIG    1       19.948 -20.890   3.799  0.00  0.00    +0.046 A 
BRANCH  18  25
ATOM     24  C   LIG    1       22.789 -21.070   6.133  0.00  0.00    +0.277 C 
ATOM     25  O   LIG    1       21.680 -21.567   5.383  0.00  0.00    -0.495 OA
ENDBRANCH  18  25
ENDBRANCH  12  20
ENDBRANCH   1  15
BRANCH   2  26
ATOM     26  C   LIG    1       26.668 -17.447   3.990  0.00  0.00    +0.137 A 
ATOM     27  C   LIG    1       27.873 -18.048   4.465  0.00  0.00    +0.157 A 
ATOM     28  C   LIG    1       27.967 -19.448   4.597  0.00  0.00    +0.049 A 
ATOM     29  C   LIG    1       26.966 -20.296   4.160  0.00  0.00    +0.016 A 
ATOM     30  C   LIG    1       25.804 -19.767   3.616  0.00  0.00    +0.058 A 
ATOM     31  C   LIG    1       25.667 -18.360   3.544  0.00  0.00    +0.056 A 
BRANCH  30  32
ATOM     32  C   LIG    1       24.725 -20.742   3.215  0.00  0.00    +0.417 C 
ATOM     33  F   LIG    1       24.395 -21.570   4.249  0.00  0.00    -0.166 F 
ATOM     34  F   LIG    1       25.120 -21.570   2.205  0.00  0.00    -0.166 F 
ATOM     35  F   LIG    1       23.565 -20.167   2.808  0.00  0.00    -0.166 F 
ENDBRANCH  30  32
BRANCH  27  36
ATOM     36  O   LIG    1       28.941 -17.262   4.826  0.00  0.00    -0.492 OA
ATOM     37  C   LIG    1       29.267 -17.172   6.221  0.00  0.00    +0.277 C 
ENDBRANCH  27  36
ENDBRANCH   2  26
BRANCH   3  38
ATOM     38  C   LIG    1       27.424 -14.500   2.264  0.00  0.00    +0.164 C 
BRANCH  38  39
ATOM     39  C   LIG    1       26.516 -13.341   2.242  0.00  0.00    +0.308 C 
ATOM     40  O   LIG    1       26.872 -12.184   2.575  0.00  0.00    -0.251 OA
BRANCH  39  41
ATOM     41  O   LIG    1       25.263 -13.606   1.844  0.00  0.00    -0.480 OA
ATOM     42  H   LIG    1       24.630 -13.800   2.560  0.00  0.00    +0.295 HD
ENDBRANCH  39  41
ENDBRANCH  38  39
ENDBRANCH   3  38
TORSDOF 9
ENDMDL
