MODEL 1
REMARK VINA RESULT:      -8.1      0.000      0.000
REMARK  Name = *****
REMARK                            x       y       z     vdW  Elec       q    Type
REMARK                         _______ _______ _______ _____ _____    ______ ____
ROOT
ATOM      1  C   LIG    1       23.488 -22.440   6.507  0.00  0.00    +0.042 C 
ATOM      2  C   LIG    1       24.718 -21.683   6.013  0.00  0.00    +0.069 C 
ATOM      3  C   LIG    1       25.749 -21.237   7.108  0.00  0.00    -0.000 C 
ATOM      4  C   LIG    1       25.035 -20.645   8.349  0.00  0.00    +0.014 C 
ATOM      5  C   LIG    1       26.534 -20.060   6.410  0.00  0.00    +0.001 C 
ATOM      6  C   LIG    1       27.955 -20.400   5.930  0.00  0.00    -0.004 C 
ATOM      7  C   LIG    1       28.741 -21.220   6.967  0.00  0.00    -0.001 C 
ATOM      8  C   LIG    1       27.989 -22.550   7.120  0.00  0.00    +0.005 C 
ATOM      9  C   LIG    1       29.684 -20.467   8.138  0.00  0.00    -0.022 C 
ATOM     10  C   LIG    1       30.199 -21.653   8.987  0.00  0.00    +0.012 C 
ATOM     11  C   LIG    1       30.653 -19.756   7.123  0.00  0.00    +0.001 C 
ATOM     12  C   LIG    1       31.879 -18.907   7.419  0.00  0.00    +0.059 C 
ATOM     13  C   LIG    1       31.498 -18.006   8.487  0.00  0.00    +0.040 A 
ATOM     14  C   LIG    1       30.381 -18.172   9.332  0.00  0.00    -0.006 A 
ATOM     15  C   LIG    1       30.470 -16.994  10.095  0.00  0.00    +0.138 A 
ATOM     16  N   LIG    1       31.440 -16.143   9.702  0.00  0.00    -0.182 NA
ATOM     17  N   LIG    1       31.991 -16.789   8.666  0.00  0.00    -0.281 N 
ATOM     18  H   LIG    1       32.698 -16.285   8.072  0.00  0.00    +0.189 HD
ATOM     19  C   LIG    1       29.694 -18.700   6.412  0.00  0.00    +0.005 C 
ATOM     20  C   LIG    1       29.324 -19.329   9.239  0.00  0.00    +0.045 C 
ATOM     21  C   LIG    1       28.754 -19.229   5.385  0.00  0.00    +0.004 C 
ATOM     22  C   LIG    1       25.649 -19.619   5.209  0.00  0.00    +0.007 C 
ATOM     23  C   LIG    1       26.592 -22.415   7.662  0.00  0.00    +0.010 C 
ATOM     24  C   LIG    1       24.328 -20.366   5.337  0.00  0.00    +0.035 C 
ENDROOT
BRANCH   2  25
ATOM     25  O   LIG    1       25.329 -22.544   5.043  0.00  0.00    -0.388 OA
ATOM     26  H   LIG    1       24.918 -23.421   5.082  0.00  0.00    +0.210 HD
ENDBRANCH   2  25
TORSDOF 1
ENDMDL
MODEL 2
REMARK VINA RESULT:      -6.4      9.498     11.802
REMARK  Name = *****
REMARK                            x       y       z     vdW  Elec       q    Type
REMARK                         _______ _______ _______ _____ _____    ______ ____
ROOT
ATOM      1  C   LIG    1       26.164 -26.917  15.500  0.00  0.00    +0.042 C 
ATOM      2  C   LIG    1       25.247 -27.713  14.574  0.00  0.00    +0.069 C 
ATOM      3  C   LIG    1       25.725 -27.874  13.089  0.00  0.00    -0.000 C 
ATOM      4  C   LIG    1       26.275 -26.540  12.524  0.00  0.00    +0.014 C 
ATOM      5  C   LIG    1       24.391 -28.200  12.312  0.00  0.00    +0.001 C 
ATOM      6  C   LIG    1       24.211 -29.666  11.884  0.00  0.00    -0.004 C 
ATOM      7  C   LIG    1       25.502 -30.266  11.300  0.00  0.00    -0.001 C 
ATOM      8  C   LIG    1       26.533 -30.254  12.438  0.00  0.00    +0.005 C 
ATOM      9  C   LIG    1       25.834 -30.181   9.653  0.00  0.00    -0.022 C 
ATOM     10  C   LIG    1       27.240 -30.818   9.547  0.00  0.00    +0.012 C 
ATOM     11  C   LIG    1       24.571 -31.000   9.199  0.00  0.00    +0.001 C 
ATOM     12  C   LIG    1       24.178 -31.437   7.796  0.00  0.00    +0.059 C 
ATOM     13  C   LIG    1       24.382 -30.284   6.942  0.00  0.00    +0.040 A 
ATOM     14  C   LIG    1       25.160 -29.155   7.272  0.00  0.00    -0.006 A 
ATOM     15  C   LIG    1       24.934 -28.359   6.135  0.00  0.00    +0.138 A 
ATOM     16  N   LIG    1       24.039 -28.865   5.263  0.00  0.00    -0.182 NA
ATOM     17  N   LIG    1       23.682 -30.016   5.849  0.00  0.00    -0.281 N 
ATOM     18  H   LIG    1       22.879 -30.563   5.447  0.00  0.00    +0.189 HD
ATOM     19  C   LIG    1       23.370 -30.023   9.579  0.00  0.00    +0.005 C 
ATOM     20  C   LIG    1       25.902 -28.918   8.635  0.00  0.00    +0.045 C 
ATOM     21  C   LIG    1       22.995 -29.946  11.019  0.00  0.00    +0.004 C 
ATOM     22  C   LIG    1       23.236 -27.770  13.261  0.00  0.00    +0.007 C 
ATOM     23  C   LIG    1       26.894 -28.881  12.935  0.00  0.00    +0.010 C 
ATOM     24  C   LIG    1       23.878 -27.043  14.435  0.00  0.00    +0.035 C 
ENDROOT
BRANCH   2  25
ATOM     25  O   LIG    1       25.082 -28.988  15.210  0.00  0.00    -0.388 OA
ATOM     26  H   LIG    1       24.898 -28.860  16.152  0.00  0.00    +0.210 HD
ENDBRANCH   2  25
TORSDOF 1
ENDMDL
MODEL 3
REMARK VINA RESULT:      -5.8      9.414     10.764
REMARK  Name = *****
REMARK                            x       y       z     vdW  Elec       q    Type
REMARK                         _______ _______ _______ _____ _____    ______ ____
ROOT
ATOM      1  C   LIG    1       22.954 -32.889   8.376  0.00  0.00    +0.042 C 
ATOM      2  C   LIG    1       24.094 -31.930   8.712  0.00  0.00    +0.069 C 
ATOM      3  C   LIG    1       23.897 -31.032   9.983  0.00  0.00    -0.000 C 
ATOM      4  C   LIG    1       22.467 -30.440  10.041  0.00  0.00    +0.014 C 
ATOM      5  C   LIG    1       24.894 -29.834   9.738  0.00  0.00    +0.001 C 
ATOM      6  C   LIG    1       26.184 -29.859  10.575  0.00  0.00    -0.004 C 
ATOM      7  C   LIG    1       25.920 -30.234  12.043  0.00  0.00    -0.001 C 
ATOM      8  C   LIG    1       25.369 -31.667  12.026  0.00  0.00    +0.005 C 
ATOM      9  C   LIG    1       25.598 -29.055  13.199  0.00  0.00    -0.022 C 
ATOM     10  C   LIG    1       25.318 -29.884  14.474  0.00  0.00    +0.012 C 
ATOM     11  C   LIG    1       26.971 -28.306  13.042  0.00  0.00    +0.001 C 
ATOM     12  C   LIG    1       27.499 -27.118  13.831  0.00  0.00    +0.059 C 
ATOM     13  C   LIG    1       26.403 -26.175  13.923  0.00  0.00    +0.040 A 
ATOM     14  C   LIG    1       25.046 -26.481  13.693  0.00  0.00    -0.006 A 
ATOM     15  C   LIG    1       24.476 -25.204  13.845  0.00  0.00    +0.138 A 
ATOM     16  N   LIG    1       25.368 -24.209  14.026  0.00  0.00    -0.182 NA
ATOM     17  N   LIG    1       26.539 -24.858  13.994  0.00  0.00    -0.281 N 
ATOM     18  H   LIG    1       27.429 -24.299  13.974  0.00  0.00    +0.189 HD
ATOM     19  C   LIG    1       26.867 -27.694  11.573  0.00  0.00    +0.005 C 
ATOM     20  C   LIG    1       24.482 -27.876  13.248  0.00  0.00    +0.045 C 
ATOM     21  C   LIG    1       27.072 -28.635  10.436  0.00  0.00    +0.004 C 
ATOM     22  C   LIG    1       25.234 -29.873   8.220  0.00  0.00    +0.007 C 
ATOM     23  C   LIG    1       24.054 -31.818  11.310  0.00  0.00    +0.010 C 
ATOM     24  C   LIG    1       24.317 -30.913   7.591  0.00  0.00    +0.035 C 
ENDROOT
BRANCH   2  25
ATOM     25  O   LIG    1       25.261 -32.756   8.834  0.00  0.00    -0.388 OA
ATOM     26  H   LIG    1       26.021 -32.210   9.083  0.00  0.00    +0.210 HD
ENDBRANCH   2  25
TORSDOF 1
ENDMDL
MODEL 4
REMARK VINA RESULT:      -5.6     10.170     12.392
REMARK  Name = *****
REMARK                            x       y       z     vdW  Elec       q    Type
REMARK                         _______ _______ _______ _____ _____    ______ ____
ROOT
ATOM      1  C   LIG    1       24.761 -33.151   5.040  0.00  0.00    +0.042 C 
ATOM      2  C   LIG    1       24.026 -32.569   6.246  0.00  0.00    +0.069 C 
ATOM      3  C   LIG    1       24.919 -32.114   7.453  0.00  0.00    -0.000 C 
ATOM      4  C   LIG    1       26.024 -33.155   7.762  0.00  0.00    +0.014 C 
ATOM      5  C   LIG    1       23.914 -32.117   8.668  0.00  0.00    +0.001 C 
ATOM      6  C   LIG    1       23.443 -30.734   9.147  0.00  0.00    -0.004 C 
ATOM      7  C   LIG    1       24.597 -29.718   9.221  0.00  0.00    -0.001 C 
ATOM      8  C   LIG    1       25.108 -29.546   7.783  0.00  0.00    +0.005 C 
ATOM      9  C   LIG    1       25.495 -29.522  10.629  0.00  0.00    -0.022 C 
ATOM     10  C   LIG    1       26.570 -28.489  10.217  0.00  0.00    +0.012 C 
ATOM     11  C   LIG    1       24.283 -29.072  11.524  0.00  0.00    +0.001 C 
ATOM     12  C   LIG    1       24.293 -28.623  12.978  0.00  0.00    +0.059 C 
ATOM     13  C   LIG    1       25.137 -29.564  13.685  0.00  0.00    +0.040 A 
ATOM     14  C   LIG    1       26.063 -30.439  13.081  0.00  0.00    -0.006 A 
ATOM     15  C   LIG    1       26.516 -31.140  14.214  0.00  0.00    +0.138 A 
ATOM     16  N   LIG    1       25.873 -30.831  15.359  0.00  0.00    -0.182 NA
ATOM     17  N   LIG    1       24.989 -29.908  14.957  0.00  0.00    -0.281 N 
ATOM     18  H   LIG    1       24.251 -29.585  15.631  0.00  0.00    +0.189 HD
ATOM     19  C   LIG    1       23.400 -30.396  11.604  0.00  0.00    +0.005 C 
ATOM     20  C   LIG    1       26.313 -30.591  11.539  0.00  0.00    +0.045 C 
ATOM     21  C   LIG    1       22.587 -30.736  10.402  0.00  0.00    +0.004 C 
ATOM     22  C   LIG    1       22.698 -32.971   8.207  0.00  0.00    +0.007 C 
ATOM     23  C   LIG    1       25.685 -30.795   7.175  0.00  0.00    +0.010 C 
ATOM     24  C   LIG    1       23.081 -33.597   6.872  0.00  0.00    +0.035 C 
ENDROOT
BRANCH   2  25
ATOM     25  O   LIG    1       23.254 -31.477   5.728  0.00  0.00    -0.388 OA
ATOM     26  H   LIG    1       22.518 -31.821   5.200  0.00  0.00    +0.210 HD
ENDBRANCH   2  25
TORSDOF 1
ENDMDL
MODEL 5
REMARK VINA RESULT:      -5.3     10.400     12.840
REMARK  Name = *****
REMARK                            x       y       z     vdW  Elec       q    Type
REMARK                         _______ _______ _______ _____ _____    ______ ____
ROOT
ATOM      1  C   LIG    1       22.424 -28.140  15.384  0.00  0.00    +0.042 C 
ATOM      2  C   LIG    1       23.155 -29.277  14.673  0.00  0.00    +0.069 C 
ATOM      3  C   LIG    1       23.386 -29.100  13.131  0.00  0.00    -0.000 C 
ATOM      4  C   LIG    1       22.117 -28.558  12.428  0.00  0.00    +0.014 C 
ATOM      5  C   LIG    1       23.610 -30.578  12.627  0.00  0.00    +0.001 C 
ATOM      6  C   LIG    1       25.063 -30.955  12.292  0.00  0.00    -0.004 C 
ATOM      7  C   LIG    1       25.785 -29.850  11.500  0.00  0.00    -0.001 C 
ATOM      8  C   LIG    1       25.840 -28.627  12.428  0.00  0.00    +0.005 C 
ATOM      9  C   LIG    1       25.761 -29.826   9.819  0.00  0.00    -0.022 C 
ATOM     10  C   LIG    1       26.520 -28.522   9.478  0.00  0.00    +0.012 C 
ATOM     11  C   LIG    1       26.476 -31.215   9.635  0.00  0.00    +0.001 C 
ATOM     12  C   LIG    1       26.904 -31.898   8.346  0.00  0.00    +0.059 C 
ATOM     13  C   LIG    1       25.790 -31.764   7.429  0.00  0.00    +0.040 A 
ATOM     14  C   LIG    1       24.727 -30.848   7.569  0.00  0.00    -0.006 A 
ATOM     15  C   LIG    1       23.936 -31.216   6.466  0.00  0.00    +0.138 A 
ATOM     16  N   LIG    1       24.380 -32.298   5.793  0.00  0.00    -0.182 NA
ATOM     17  N   LIG    1       25.484 -32.632   6.475  0.00  0.00    -0.281 N 
ATOM     18  H   LIG    1       25.966 -33.538   6.248  0.00  0.00    +0.189 HD
ATOM     19  C   LIG    1       25.391 -32.240  10.196  0.00  0.00    +0.005 C 
ATOM     20  C   LIG    1       24.529 -29.846   8.761  0.00  0.00    +0.045 C 
ATOM     21  C   LIG    1       25.253 -32.330  11.677  0.00  0.00    +0.004 C 
ATOM     22  C   LIG    1       23.062 -31.496  13.757  0.00  0.00    +0.007 C 
ATOM     23  C   LIG    1       24.494 -28.067  12.800  0.00  0.00    +0.010 C 
ATOM     24  C   LIG    1       22.371 -30.588  14.766  0.00  0.00    +0.035 C 
ENDROOT
BRANCH   2  25
ATOM     25  O   LIG    1       24.398 -29.424  15.373  0.00  0.00    -0.388 OA
ATOM     26  H   LIG    1       24.681 -30.351  15.342  0.00  0.00    +0.210 HD
ENDBRANCH   2  25
TORSDOF 1
ENDMDL
MODEL 6
REMARK VINA RESULT:      -5.3     10.285     12.071
REMARK  Name = *****
REMARK                            x       y       z     vdW  Elec       q    Type
REMARK                         _______ _______ _______ _____ _____    ______ ____
ROOT
ATOM      1  C   LIG    1       25.199 -33.825   5.086  0.00  0.00    +0.042 C 
ATOM      2  C   LIG    1       25.657 -32.631   5.920  0.00  0.00    +0.069 C 
ATOM      3  C   LIG    1       24.916 -32.408   7.285  0.00  0.00    -0.000 C 
ATOM      4  C   LIG    1       23.385 -32.588   7.133  0.00  0.00    +0.014 C 
ATOM      5  C   LIG    1       25.183 -30.885   7.598  0.00  0.00    +0.001 C 
ATOM      6  C   LIG    1       26.225 -30.603   8.694  0.00  0.00    -0.004 C 
ATOM      7  C   LIG    1       26.056 -31.528   9.912  0.00  0.00    -0.001 C 
ATOM      8  C   LIG    1       26.313 -32.954   9.405  0.00  0.00    +0.005 C 
ATOM      9  C   LIG    1       25.076 -31.091  11.207  0.00  0.00    -0.022 C 
ATOM     10  C   LIG    1       25.141 -32.333  12.127  0.00  0.00    +0.012 C 
ATOM     11  C   LIG    1       25.886 -29.798  11.585  0.00  0.00    +0.001 C 
ATOM     12  C   LIG    1       25.662 -28.845  12.749  0.00  0.00    +0.059 C 
ATOM     13  C   LIG    1       24.236 -28.595  12.798  0.00  0.00    +0.040 A 
ATOM     14  C   LIG    1       23.250 -29.385  12.172  0.00  0.00    -0.006 A 
ATOM     15  C   LIG    1       22.099 -28.642  12.490  0.00  0.00    +0.138 A 
ATOM     16  N   LIG    1       22.341 -27.478  13.126  0.00  0.00    -0.182 NA
ATOM     17  N   LIG    1       23.677 -27.472  13.224  0.00  0.00    -0.281 N 
ATOM     18  H   LIG    1       24.157 -26.600  13.564  0.00  0.00    +0.189 HD
ATOM     19  C   LIG    1       25.619 -28.845  10.334  0.00  0.00    +0.005 C 
ATOM     20  C   LIG    1       23.516 -30.642  11.271  0.00  0.00    +0.045 C 
ATOM     21  C   LIG    1       26.376 -29.144   9.087  0.00  0.00    +0.004 C 
ATOM     22  C   LIG    1       25.633 -30.251   6.250  0.00  0.00    +0.007 C 
ATOM     23  C   LIG    1       25.329 -33.434   8.372  0.00  0.00    +0.010 C 
ATOM     24  C   LIG    1       25.433 -31.312   5.176  0.00  0.00    +0.035 C 
ENDROOT
BRANCH   2  25
ATOM     25  O   LIG    1       27.065 -32.824   6.117  0.00  0.00    -0.388 OA
ATOM     26  H   LIG    1       27.311 -33.720   5.841  0.00  0.00    +0.210 HD
ENDBRANCH   2  25
TORSDOF 1
ENDMDL
MODEL 7
REMARK VINA RESULT:      -5.2     10.245     12.362
REMARK  Name = *****
REMARK                            x       y       z     vdW  Elec       q    Type
REMARK                         _______ _______ _______ _____ _____    ______ ____
ROOT
ATOM      1  C   LIG    1       19.130 -32.643  11.165  0.00  0.00    +0.042 C 
ATOM      2  C   LIG    1       19.920 -31.397  11.560  0.00  0.00    +0.069 C 
ATOM      3  C   LIG    1       21.464 -31.586  11.763  0.00  0.00    -0.000 C 
ATOM      4  C   LIG    1       21.775 -32.876  12.563  0.00  0.00    +0.014 C 
ATOM      5  C   LIG    1       21.863 -30.360  12.670  0.00  0.00    +0.001 C 
ATOM      6  C   LIG    1       22.606 -29.217  11.958  0.00  0.00    -0.004 C 
ATOM      7  C   LIG    1       23.693 -29.736  10.999  0.00  0.00    -0.001 C 
ATOM      8  C   LIG    1       22.959 -30.539   9.916  0.00  0.00    +0.005 C 
ATOM      9  C   LIG    1       25.272 -29.979  11.524  0.00  0.00    -0.022 C 
ATOM     10  C   LIG    1       25.966 -30.574  10.276  0.00  0.00    +0.012 C 
ATOM     11  C   LIG    1       25.535 -28.481  11.923  0.00  0.00    +0.001 C 
ATOM     12  C   LIG    1       26.819 -27.847  12.436  0.00  0.00    +0.059 C 
ATOM     13  C   LIG    1       27.340 -28.750  13.442  0.00  0.00    +0.040 A 
ATOM     14  C   LIG    1       26.959 -30.098  13.601  0.00  0.00    -0.006 A 
ATOM     15  C   LIG    1       27.709 -30.434  14.742  0.00  0.00    +0.138 A 
ATOM     16  N   LIG    1       28.377 -29.403  15.299  0.00  0.00    -0.182 NA
ATOM     17  N   LIG    1       28.054 -28.380  14.496  0.00  0.00    -0.281 N 
ATOM     18  H   LIG    1       28.332 -27.406  14.778  0.00  0.00    +0.189 HD
ATOM     19  C   LIG    1       24.557 -28.277  13.166  0.00  0.00    +0.005 C 
ATOM     20  C   LIG    1       25.873 -30.852  12.755  0.00  0.00    +0.045 C 
ATOM     21  C   LIG    1       23.109 -28.105  12.861  0.00  0.00    +0.004 C 
ATOM     22  C   LIG    1       20.531 -29.838  13.282  0.00  0.00    +0.007 C 
ATOM     23  C   LIG    1       22.233 -31.754  10.427  0.00  0.00    +0.010 C 
ATOM     24  C   LIG    1       19.451 -30.844  12.907  0.00  0.00    +0.035 C 
ENDROOT
BRANCH   2  25
ATOM     25  O   LIG    1       19.643 -30.432  10.536  0.00  0.00    -0.388 OA
ATOM     26  H   LIG    1       20.469 -30.012  10.253  0.00  0.00    +0.210 HD
ENDBRANCH   2  25
TORSDOF 1
ENDMDL
MODEL 8
REMARK VINA RESULT:      -5.2     10.452     13.184
REMARK  Name = *****
REMARK                            x       y       z     vdW  Elec       q    Type
REMARK                         _______ _______ _______ _____ _____    ______ ____
ROOT
ATOM      1  C   LIG    1       27.539 -25.869  14.435  0.00  0.00    +0.042 C 
ATOM      2  C   LIG    1       27.221 -27.348  14.226  0.00  0.00    +0.069 C 
ATOM      3  C   LIG    1       26.135 -27.681  13.144  0.00  0.00    -0.000 C 
ATOM      4  C   LIG    1       24.918 -26.729  13.253  0.00  0.00    +0.014 C 
ATOM      5  C   LIG    1       25.645 -29.123  13.555  0.00  0.00    +0.001 C 
ATOM      6  C   LIG    1       26.152 -30.276  12.674  0.00  0.00    -0.004 C 
ATOM      7  C   LIG    1       26.087 -29.938  11.174  0.00  0.00    -0.001 C 
ATOM      8  C   LIG    1       27.042 -28.755  10.961  0.00  0.00    +0.005 C 
ATOM      9  C   LIG    1       24.720 -30.294  10.261  0.00  0.00    -0.022 C 
ATOM     10  C   LIG    1       25.066 -29.709   8.872  0.00  0.00    +0.012 C 
ATOM     11  C   LIG    1       24.782 -31.848  10.490  0.00  0.00    +0.001 C 
ATOM     12  C   LIG    1       23.889 -32.930   9.902  0.00  0.00    +0.059 C 
ATOM     13  C   LIG    1       22.530 -32.442  10.026  0.00  0.00    +0.040 A 
ATOM     14  C   LIG    1       22.165 -31.100  10.255  0.00  0.00    -0.006 A 
ATOM     15  C   LIG    1       20.769 -31.237  10.356  0.00  0.00    +0.138 A 
ATOM     16  N   LIG    1       20.325 -32.510  10.317  0.00  0.00    -0.182 NA
ATOM     17  N   LIG    1       21.460 -33.209  10.183  0.00  0.00    -0.281 N 
ATOM     18  H   LIG    1       21.423 -34.256  10.264  0.00  0.00    +0.189 HD
ATOM     19  C   LIG    1       24.465 -31.982  12.047  0.00  0.00    +0.005 C 
ATOM     20  C   LIG    1       23.157 -29.902  10.468  0.00  0.00    +0.045 C 
ATOM     21  C   LIG    1       25.568 -31.642  12.989  0.00  0.00    +0.004 C 
ATOM     22  C   LIG    1       26.111 -29.322  15.026  0.00  0.00    +0.007 C 
ATOM     23  C   LIG    1       26.651 -27.500  11.693  0.00  0.00    +0.010 C 
ATOM     24  C   LIG    1       26.658 -27.982  15.500  0.00  0.00    +0.035 C 
ENDROOT
BRANCH   2  25
ATOM     25  O   LIG    1       28.477 -27.964  13.911  0.00  0.00    -0.388 OA
ATOM     26  H   LIG    1       28.334 -28.896  13.687  0.00  0.00    +0.210 HD
ENDBRANCH   2  25
TORSDOF 1
ENDMDL
MODEL 9
REMARK VINA RESULT:      -5.2      4.046      6.863
REMARK  Name = *****
REMARK                            x       y       z     vdW  Elec       q    Type
REMARK                         _______ _______ _______ _____ _____    ______ ____
ROOT
ATOM      1  C   LIG    1       31.514 -18.640   8.095  0.00  0.00    +0.042 C 
ATOM      2  C   LIG    1       30.217 -18.865   7.320  0.00  0.00    +0.069 C 
ATOM      3  C   LIG    1       29.417 -20.169   7.666  0.00  0.00    -0.000 C 
ATOM      4  C   LIG    1       30.358 -21.393   7.794  0.00  0.00    +0.014 C 
ATOM      5  C   LIG    1       28.522 -20.394   6.387  0.00  0.00    +0.001 C 
ATOM      6  C   LIG    1       27.033 -20.042   6.544  0.00  0.00    -0.004 C 
ATOM      7  C   LIG    1       26.452 -20.545   7.877  0.00  0.00    -0.001 C 
ATOM      8  C   LIG    1       27.211 -19.797   8.983  0.00  0.00    +0.005 C 
ATOM      9  C   LIG    1       25.754 -22.070   8.002  0.00  0.00    -0.022 C 
ATOM     10  C   LIG    1       25.402 -22.170   9.505  0.00  0.00    +0.012 C 
ATOM     11  C   LIG    1       24.616 -21.805   6.950  0.00  0.00    +0.001 C 
ATOM     12  C   LIG    1       23.474 -22.721   6.538  0.00  0.00    +0.059 C 
ATOM     13  C   LIG    1       24.057 -24.033   6.349  0.00  0.00    +0.040 A 
ATOM     14  C   LIG    1       25.313 -24.444   6.842  0.00  0.00    -0.006 A 
ATOM     15  C   LIG    1       25.378 -25.741   6.303  0.00  0.00    +0.138 A 
ATOM     16  N   LIG    1       24.358 -26.059   5.480  0.00  0.00    -0.182 NA
ATOM     17  N   LIG    1       23.615 -24.944   5.494  0.00  0.00    -0.281 N 
ATOM     18  H   LIG    1       22.812 -24.861   4.820  0.00  0.00    +0.189 HD
ATOM     19  C   LIG    1       25.429 -21.671   5.585  0.00  0.00    +0.005 C 
ATOM     20  C   LIG    1       26.325 -23.546   7.638  0.00  0.00    +0.045 C 
ATOM     21  C   LIG    1       26.153 -20.390   5.357  0.00  0.00    +0.004 C 
ATOM     22  C   LIG    1       29.166 -19.529   5.265  0.00  0.00    +0.007 C 
ATOM     23  C   LIG    1       28.686 -20.087   9.031  0.00  0.00    +0.010 C 
ATOM     24  C   LIG    1       30.481 -18.998   5.819  0.00  0.00    +0.035 C 
ENDROOT
BRANCH   2  25
ATOM     25  O   LIG    1       29.428 -17.691   7.555  0.00  0.00    -0.388 OA
ATOM     26  H   LIG    1       29.032 -17.737   8.438  0.00  0.00    +0.210 HD
ENDBRANCH   2  25
TORSDOF 1
ENDMDL
