MODEL 1
REMARK VINA RESULT:      -8.9      0.000      0.000
REMARK  Name = *****
REMARK                            x       y       z     vdW  Elec       q    Type
REMARK                         _______ _______ _______ _____ _____    ______ ____
ROOT
ATOM      1  N   LIG    1       26.672 -20.063   4.899  0.00  0.00    -0.310 N 
ATOM      2  H   LIG    1       26.347 -20.795   5.518  0.00  0.00    +0.149 HD
ATOM      3  C   LIG    1       27.777 -19.334   5.283  0.00  0.00    +0.248 C 
ATOM      4  O   LIG    1       28.148 -18.326   4.678  0.00  0.00    -0.270 OA
ENDROOT
BRANCH   3   5
ATOM      5  C   LIG    1       28.590 -19.846   6.436  0.00  0.00    +0.080 A 
ATOM      6  C   LIG    1       28.286 -21.019   7.165  0.00  0.00    +0.134 A 
ATOM      7  C   LIG    1       29.135 -21.439   8.206  0.00  0.00    +0.078 A 
ATOM      8  C   LIG    1       30.301 -20.706   8.478  0.00  0.00    +0.116 A 
ATOM      9  C   LIG    1       30.569 -19.556   7.755  0.00  0.00    +0.087 A 
ATOM     10  N   LIG    1       31.754 -19.125   8.283  0.00  0.00    -0.257 N 
ATOM     11  H   LIG    1       32.307 -18.313   8.040  0.00  0.00    +0.191 HD
ATOM     12  N   LIG    1       32.198 -19.949   9.246  0.00  0.00    -0.067 NA
ATOM     13  N   LIG    1       31.306 -20.922   9.382  0.00  0.00    -0.130 NA
ATOM     14  C   LIG    1       29.733 -19.071   6.744  0.00  0.00    +0.046 A 
BRANCH   6  15
ATOM     15  O   LIG    1       27.159 -21.714   6.793  0.00  0.00    -0.494 OA
ATOM     16  C   LIG    1       26.368 -22.333   7.803  0.00  0.00    +0.277 C 
ENDBRANCH   6  15
ENDBRANCH   3   5
BRANCH   1  17
ATOM     17  C   LIG    1       25.834 -19.700   3.770  0.00  0.00    +0.123 C 
BRANCH  17  19
ATOM     18  N   LIG    1       23.945 -20.468   5.322  0.00  0.00    -0.294 NA
ATOM     19  C   LIG    1       24.321 -19.930   3.983  0.00  0.00    +0.074 C 
ATOM     20  C   LIG    1       23.495 -18.657   3.821  0.00  0.00    +0.021 C 
ATOM     21  C   LIG    1       22.203 -19.014   4.513  0.00  0.00    +0.017 C 
ATOM     22  C   LIG    1       22.670 -19.828   5.704  0.00  0.00    +0.085 C 
BRANCH  18  23
ATOM     23  C   LIG    1       23.848 -21.938   5.299  0.00  0.00    +0.111 C 
BRANCH  23  25
ATOM     24  C   LIG    1       22.944 -23.761   6.786  0.00  0.00    +0.005 C 
ATOM     25  C   LIG    1       22.994 -22.473   6.417  0.00  0.00    -0.019 C 
ENDBRANCH  23  25
ENDBRANCH  18  23
ENDBRANCH  17  19
ENDBRANCH   1  17
TORSDOF 6
ENDMDL
MODEL 2
REMARK VINA RESULT:      -8.5      2.833      7.456
REMARK  Name = *****
REMARK                            x       y       z     vdW  Elec       q    Type
REMARK                         _______ _______ _______ _____ _____    ______ ____
ROOT
ATOM      1  N   LIG    1       27.200 -20.808   7.349  0.00  0.00    -0.310 N 
ATOM      2  H   LIG    1       27.244 -21.105   6.381  0.00  0.00    +0.149 HD
ATOM      3  C   LIG    1       26.175 -21.295   8.129  0.00  0.00    +0.248 C 
ATOM      4  O   LIG    1       25.946 -20.870   9.264  0.00  0.00    -0.270 OA
ENDROOT
BRANCH   3   5
ATOM      5  C   LIG    1       25.363 -22.437   7.591  0.00  0.00    +0.080 A 
ATOM      6  C   LIG    1       23.990 -22.354   7.265  0.00  0.00    +0.134 A 
ATOM      7  C   LIG    1       23.326 -23.473   6.727  0.00  0.00    +0.078 A 
ATOM      8  C   LIG    1       24.054 -24.648   6.479  0.00  0.00    +0.116 A 
ATOM      9  C   LIG    1       25.394 -24.705   6.817  0.00  0.00    +0.087 A 
ATOM     10  N   LIG    1       25.758 -25.968   6.440  0.00  0.00    -0.257 N 
ATOM     11  H   LIG    1       26.658 -26.423   6.508  0.00  0.00    +0.191 HD
ATOM     12  N   LIG    1       24.730 -26.638   5.895  0.00  0.00    -0.067 NA
ATOM     13  N   LIG    1       23.671 -25.839   5.923  0.00  0.00    -0.130 NA
ATOM     14  C   LIG    1       26.087 -23.638   7.398  0.00  0.00    +0.046 A 
BRANCH   6  15
ATOM     15  O   LIG    1       23.367 -21.147   7.479  0.00  0.00    -0.494 OA
ATOM     16  C   LIG    1       23.055 -20.326   6.358  0.00  0.00    +0.277 C 
ENDBRANCH   6  15
ENDBRANCH   3   5
BRANCH   1  17
ATOM     17  C   LIG    1       28.087 -19.740   7.777  0.00  0.00    +0.123 C 
BRANCH  17  19
ATOM     18  N   LIG    1       30.362 -19.401   8.907  0.00  0.00    -0.294 NA
ATOM     19  C   LIG    1       29.579 -20.130   7.868  0.00  0.00    +0.074 C 
ATOM     20  C   LIG    1       29.792 -21.609   8.176  0.00  0.00    +0.021 C 
ATOM     21  C   LIG    1       31.218 -21.641   8.667  0.00  0.00    +0.017 C 
ATOM     22  C   LIG    1       31.324 -20.364   9.479  0.00  0.00    +0.085 C 
BRANCH  18  23
ATOM     23  C   LIG    1       31.028 -18.215   8.340  0.00  0.00    +0.111 C 
BRANCH  23  25
ATOM     24  C   LIG    1       30.426 -17.024  10.478  0.00  0.00    +0.005 C 
ATOM     25  C   LIG    1       31.104 -17.077   9.323  0.00  0.00    -0.019 C 
ENDBRANCH  23  25
ENDBRANCH  18  23
ENDBRANCH  17  19
ENDBRANCH   1  17
TORSDOF 6
ENDMDL
MODEL 3
REMARK VINA RESULT:      -8.1      1.785      3.231
REMARK  Name = *****
REMARK                            x       y       z     vdW  Elec       q    Type
REMARK                         _______ _______ _______ _____ _____    ______ ____
ROOT
ATOM      1  N   LIG    1       26.178 -20.918   5.336  0.00  0.00    -0.310 N 
ATOM      2  H   LIG    1       26.906 -21.255   4.718  0.00  0.00    +0.149 HD
ATOM      3  C   LIG    1       26.514 -20.645   6.644  0.00  0.00    +0.248 C 
ATOM      4  O   LIG    1       25.671 -20.386   7.505  0.00  0.00    -0.270 OA
ENDROOT
BRANCH   3   5
ATOM      5  C   LIG    1       27.972 -20.590   6.997  0.00  0.00    +0.080 A 
ATOM      6  C   LIG    1       28.903 -19.709   6.399  0.00  0.00    +0.134 A 
ATOM      7  C   LIG    1       30.244 -19.706   6.828  0.00  0.00    +0.078 A 
ATOM      8  C   LIG    1       30.629 -20.553   7.881  0.00  0.00    +0.116 A 
ATOM      9  C   LIG    1       29.700 -21.411   8.441  0.00  0.00    +0.087 A 
ATOM     10  N   LIG    1       30.417 -22.060   9.407  0.00  0.00    -0.257 N 
ATOM     11  H   LIG    1       30.117 -22.775  10.057  0.00  0.00    +0.191 HD
ATOM     12  N   LIG    1       31.687 -21.627   9.457  0.00  0.00    -0.067 NA
ATOM     13  N   LIG    1       31.833 -20.705   8.514  0.00  0.00    -0.130 NA
ATOM     14  C   LIG    1       28.369 -21.487   8.017  0.00  0.00    +0.046 A 
BRANCH   6  15
ATOM     15  O   LIG    1       28.430 -18.868   5.420  0.00  0.00    -0.494 OA
ATOM     16  C   LIG    1       29.263 -17.807   4.963  0.00  0.00    +0.277 C 
ENDBRANCH   6  15
ENDBRANCH   3   5
BRANCH   1  17
ATOM     17  C   LIG    1       24.806 -20.950   4.859  0.00  0.00    +0.123 C 
BRANCH  17  19
ATOM     18  N   LIG    1       24.813 -23.339   5.786  0.00  0.00    -0.294 NA
ATOM     19  C   LIG    1       23.997 -22.193   5.289  0.00  0.00    +0.074 C 
ATOM     20  C   LIG    1       23.003 -21.901   6.410  0.00  0.00    +0.021 C 
ATOM     21  C   LIG    1       22.707 -23.276   6.954  0.00  0.00    +0.017 C 
ATOM     22  C   LIG    1       24.058 -23.963   6.891  0.00  0.00    +0.085 C 
BRANCH  18  23
ATOM     23  C   LIG    1       25.109 -24.293   4.702  0.00  0.00    +0.111 C 
BRANCH  23  25
ATOM     24  C   LIG    1       25.820 -26.706   4.849  0.00  0.00    +0.005 C 
ATOM     25  C   LIG    1       24.955 -25.724   5.142  0.00  0.00    -0.019 C 
ENDBRANCH  23  25
ENDBRANCH  18  23
ENDBRANCH  17  19
ENDBRANCH   1  17
TORSDOF 6
ENDMDL
MODEL 4
REMARK VINA RESULT:      -8.0      2.983      7.298
REMARK  Name = *****
REMARK                            x       y       z     vdW  Elec       q    Type
REMARK                         _______ _______ _______ _____ _____    ______ ____
ROOT
ATOM      1  N   LIG    1       26.918 -21.388   7.336  0.00  0.00    -0.310 N 
ATOM      2  H   LIG    1       27.080 -21.630   6.365  0.00  0.00    +0.149 HD
ATOM      3  C   LIG    1       25.890 -22.022   7.998  0.00  0.00    +0.248 C 
ATOM      4  O   LIG    1       25.517 -21.682   9.122  0.00  0.00    -0.270 OA
ENDROOT
BRANCH   3   5
ATOM      5  C   LIG    1       25.265 -23.219   7.342  0.00  0.00    +0.080 A 
ATOM      6  C   LIG    1       23.911 -23.288   6.937  0.00  0.00    +0.134 A 
ATOM      7  C   LIG    1       23.429 -24.443   6.293  0.00  0.00    +0.078 A 
ATOM      8  C   LIG    1       24.316 -25.497   6.020  0.00  0.00    +0.116 A 
ATOM      9  C   LIG    1       25.632 -25.407   6.436  0.00  0.00    +0.087 A 
ATOM     10  N   LIG    1       26.176 -26.586   6.007  0.00  0.00    -0.257 N 
ATOM     11  H   LIG    1       27.124 -26.927   6.104  0.00  0.00    +0.191 HD
ATOM     12  N   LIG    1       25.275 -27.342   5.360  0.00  0.00    -0.067 NA
ATOM     13  N   LIG    1       24.121 -26.686   5.370  0.00  0.00    -0.130 NA
ATOM     14  C   LIG    1       26.148 -24.303   7.123  0.00  0.00    +0.046 A 
BRANCH   6  15
ATOM     15  O   LIG    1       23.126 -22.187   7.184  0.00  0.00    -0.494 OA
ATOM     16  C   LIG    1       22.880 -21.266   6.126  0.00  0.00    +0.277 C 
ENDBRANCH   6  15
ENDBRANCH   3   5
BRANCH   1  17
ATOM     17  C   LIG    1       27.636 -20.252   7.885  0.00  0.00    +0.123 C 
BRANCH  17  19
ATOM     18  N   LIG    1       29.918 -19.252   8.486  0.00  0.00    -0.294 NA
ATOM     19  C   LIG    1       29.176 -20.364   7.826  0.00  0.00    +0.074 C 
ATOM     20  C   LIG    1       29.708 -21.637   8.478  0.00  0.00    +0.021 C 
ATOM     21  C   LIG    1       31.160 -21.304   8.714  0.00  0.00    +0.017 C 
ATOM     22  C   LIG    1       31.110 -19.845   9.126  0.00  0.00    +0.085 C 
BRANCH  18  23
ATOM     23  C   LIG    1       30.270 -18.197   7.520  0.00  0.00    +0.111 C 
BRANCH  23  25
ATOM     24  C   LIG    1       29.195 -18.213   5.240  0.00  0.00    +0.005 C 
ATOM     25  C   LIG    1       30.129 -18.656   6.094  0.00  0.00    -0.019 C 
ENDBRANCH  23  25
ENDBRANCH  18  23
ENDBRANCH  17  19
ENDBRANCH   1  17
TORSDOF 6
ENDMDL
MODEL 5
REMARK VINA RESULT:      -7.8      3.548      5.280
REMARK  Name = *****
REMARK                            x       y       z     vdW  Elec       q    Type
REMARK                         _______ _______ _______ _____ _____    ______ ____
ROOT
ATOM      1  N   LIG    1       26.433 -23.461   6.644  0.00  0.00    -0.310 N 
ATOM      2  H   LIG    1       27.007 -23.532   5.812  0.00  0.00    +0.149 HD
ATOM      3  C   LIG    1       26.724 -22.462   7.547  0.00  0.00    +0.248 C 
ATOM      4  O   LIG    1       26.190 -22.395   8.656  0.00  0.00    -0.270 OA
ENDROOT
BRANCH   3   5
ATOM      5  C   LIG    1       27.672 -21.380   7.117  0.00  0.00    +0.080 A 
ATOM      6  C   LIG    1       27.328 -20.323   6.242  0.00  0.00    +0.134 A 
ATOM      7  C   LIG    1       28.279 -19.333   5.930  0.00  0.00    +0.078 A 
ATOM      8  C   LIG    1       29.548 -19.386   6.530  0.00  0.00    +0.116 A 
ATOM      9  C   LIG    1       29.860 -20.437   7.373  0.00  0.00    +0.087 A 
ATOM     10  N   LIG    1       31.143 -20.160   7.756  0.00  0.00    -0.257 N 
ATOM     11  H   LIG    1       31.754 -20.677   8.375  0.00  0.00    +0.191 HD
ATOM     12  N   LIG    1       31.588 -19.018   7.208  0.00  0.00    -0.067 NA
ATOM     13  N   LIG    1       30.617 -18.536   6.442  0.00  0.00    -0.130 NA
ATOM     14  C   LIG    1       28.968 -21.471   7.677  0.00  0.00    +0.046 A 
BRANCH   6  15
ATOM     15  O   LIG    1       26.045 -20.309   5.749  0.00  0.00    -0.494 OA
ATOM     16  C   LIG    1       25.833 -19.918   4.396  0.00  0.00    +0.277 C 
ENDBRANCH   6  15
ENDBRANCH   3   5
BRANCH   1  17
ATOM     17  C   LIG    1       25.496 -24.535   6.922  0.00  0.00    +0.123 C 
BRANCH  17  19
ATOM     18  N   LIG    1       25.389 -27.089   7.102  0.00  0.00    -0.294 NA
ATOM     19  C   LIG    1       25.891 -25.910   6.339  0.00  0.00    +0.074 C 
ATOM     20  C   LIG    1       25.391 -26.120   4.912  0.00  0.00    +0.021 C 
ATOM     21  C   LIG    1       25.471 -27.617   4.753  0.00  0.00    +0.017 C 
ATOM     22  C   LIG    1       25.034 -28.126   6.113  0.00  0.00    +0.085 C 
BRANCH  18  23
ATOM     23  C   LIG    1       26.391 -27.562   8.073  0.00  0.00    +0.111 C 
BRANCH  23  25
ATOM     24  C   LIG    1       26.415 -29.279   9.918  0.00  0.00    +0.005 C 
ATOM     25  C   LIG    1       25.996 -28.866   8.714  0.00  0.00    -0.019 C 
ENDBRANCH  23  25
ENDBRANCH  18  23
ENDBRANCH  17  19
ENDBRANCH   1  17
TORSDOF 6
ENDMDL
MODEL 6
REMARK VINA RESULT:      -7.8      2.167      3.264
REMARK  Name = *****
REMARK                            x       y       z     vdW  Elec       q    Type
REMARK                         _______ _______ _______ _____ _____    ______ ____
ROOT
ATOM      1  N   LIG    1       28.083 -19.949   6.793  0.00  0.00    -0.310 N 
ATOM      2  H   LIG    1       27.819 -20.196   7.740  0.00  0.00    +0.149 HD
ATOM      3  C   LIG    1       29.157 -19.103   6.621  0.00  0.00    +0.248 C 
ATOM      4  O   LIG    1       29.452 -18.622   5.525  0.00  0.00    -0.270 OA
ENDROOT
BRANCH   3   5
ATOM      5  C   LIG    1       30.033 -18.829   7.809  0.00  0.00    +0.080 A 
ATOM      6  C   LIG    1       30.704 -19.830   8.550  0.00  0.00    +0.134 A 
ATOM      7  C   LIG    1       31.537 -19.467   9.625  0.00  0.00    +0.078 A 
ATOM      8  C   LIG    1       31.724 -18.107   9.920  0.00  0.00    +0.116 A 
ATOM      9  C   LIG    1       31.047 -17.150   9.185  0.00  0.00    +0.087 A 
ATOM     10  N   LIG    1       31.466 -15.974   9.743  0.00  0.00    -0.257 N 
ATOM     11  H   LIG    1       31.214 -15.024   9.502  0.00  0.00    +0.191 HD
ATOM     12  N   LIG    1       32.347 -16.181  10.734  0.00  0.00    -0.067 NA
ATOM     13  N   LIG    1       32.507 -17.493  10.860  0.00  0.00    -0.130 NA
ATOM     14  C   LIG    1       30.171 -17.460   8.139  0.00  0.00    +0.046 A 
BRANCH   6  15
ATOM     15  O   LIG    1       30.517 -21.133   8.156  0.00  0.00    -0.494 OA
ATOM     16  C   LIG    1       30.952 -22.181   9.017  0.00  0.00    +0.277 C 
ENDBRANCH   6  15
ENDBRANCH   3   5
BRANCH   1  17
ATOM     17  C   LIG    1       27.191 -20.332   5.712  0.00  0.00    +0.123 C 
BRANCH  17  19
ATOM     18  N   LIG    1       24.978 -21.587   5.409  0.00  0.00    -0.294 NA
ATOM     19  C   LIG    1       25.711 -20.499   6.120  0.00  0.00    +0.074 C 
ATOM     20  C   LIG    1       25.530 -20.804   7.604  0.00  0.00    +0.021 C 
ATOM     21  C   LIG    1       24.134 -21.372   7.656  0.00  0.00    +0.017 C 
ATOM     22  C   LIG    1       24.059 -22.202   6.388  0.00  0.00    +0.085 C 
BRANCH  18  23
ATOM     23  C   LIG    1       24.270 -21.069   4.226  0.00  0.00    +0.111 C 
BRANCH  23  25
ATOM     24  C   LIG    1       22.494 -19.352   4.725  0.00  0.00    +0.005 C 
ATOM     25  C   LIG    1       23.763 -19.666   4.430  0.00  0.00    -0.019 C 
ENDBRANCH  23  25
ENDBRANCH  18  23
ENDBRANCH  17  19
ENDBRANCH   1  17
TORSDOF 6
ENDMDL
MODEL 7
REMARK VINA RESULT:      -7.8      5.998      8.608
REMARK  Name = *****
REMARK                            x       y       z     vdW  Elec       q    Type
REMARK                         _______ _______ _______ _____ _____    ______ ____
ROOT
ATOM      1  N   LIG    1       25.612 -25.813   6.856  0.00  0.00    -0.310 N 
ATOM      2  H   LIG    1       25.190 -25.937   7.769  0.00  0.00    +0.149 HD
ATOM      3  C   LIG    1       26.014 -26.939   6.172  0.00  0.00    +0.248 C 
ATOM      4  O   LIG    1       26.677 -26.882   5.135  0.00  0.00    -0.270 OA
ENDROOT
BRANCH   3   5
ATOM      5  C   LIG    1       25.551 -28.273   6.681  0.00  0.00    +0.080 A 
ATOM      6  C   LIG    1       25.740 -28.728   8.006  0.00  0.00    +0.134 A 
ATOM      7  C   LIG    1       25.233 -29.982   8.398  0.00  0.00    +0.078 A 
ATOM      8  C   LIG    1       24.504 -30.746   7.472  0.00  0.00    +0.116 A 
ATOM      9  C   LIG    1       24.343 -30.281   6.179  0.00  0.00    +0.087 A 
ATOM     10  N   LIG    1       23.601 -31.264   5.585  0.00  0.00    -0.257 N 
ATOM     11  H   LIG    1       23.258 -31.322   4.634  0.00  0.00    +0.191 HD
ATOM     12  N   LIG    1       23.309 -32.254   6.443  0.00  0.00    -0.067 NA
ATOM     13  N   LIG    1       23.869 -31.951   7.608  0.00  0.00    -0.130 NA
ATOM     14  C   LIG    1       24.868 -29.066   5.728  0.00  0.00    +0.046 A 
BRANCH   6  15
ATOM     15  O   LIG    1       26.409 -27.891   8.867  0.00  0.00    -0.494 OA
ATOM     16  C   LIG    1       26.726 -28.358  10.174  0.00  0.00    +0.277 C 
ENDBRANCH   6  15
ENDBRANCH   3   5
BRANCH   1  17
ATOM     17  C   LIG    1       25.952 -24.465   6.438  0.00  0.00    +0.123 C 
BRANCH  17  19
ATOM     18  N   LIG    1       24.843 -22.239   5.818  0.00  0.00    -0.294 NA
ATOM     19  C   LIG    1       24.884 -23.396   6.759  0.00  0.00    +0.074 C 
ATOM     20  C   LIG    1       23.463 -23.953   6.764  0.00  0.00    +0.021 C 
ATOM     21  C   LIG    1       22.622 -22.708   6.624  0.00  0.00    +0.017 C 
ATOM     22  C   LIG    1       23.424 -21.864   5.653  0.00  0.00    +0.085 C 
BRANCH  18  23
ATOM     23  C   LIG    1       25.663 -21.119   6.312  0.00  0.00    +0.111 C 
BRANCH  23  25
ATOM     24  C   LIG    1       26.162 -20.591   8.726  0.00  0.00    +0.005 C 
ATOM     25  C   LIG    1       25.292 -20.712   7.713  0.00  0.00    -0.019 C 
ENDBRANCH  23  25
ENDBRANCH  18  23
ENDBRANCH  17  19
ENDBRANCH   1  17
TORSDOF 6
ENDMDL
MODEL 8
REMARK VINA RESULT:      -7.7      1.436      3.251
REMARK  Name = *****
REMARK                            x       y       z     vdW  Elec       q    Type
REMARK                         _______ _______ _______ _____ _____    ______ ____
ROOT
ATOM      1  N   LIG    1       26.329 -21.498   6.005  0.00  0.00    -0.310 N 
ATOM      2  H   LIG    1       27.034 -21.981   5.459  0.00  0.00    +0.149 HD
ATOM      3  C   LIG    1       26.720 -20.902   7.183  0.00  0.00    +0.248 C 
ATOM      4  O   LIG    1       25.913 -20.433   7.988  0.00  0.00    -0.270 OA
ENDROOT
BRANCH   3   5
ATOM      5  C   LIG    1       28.192 -20.759   7.444  0.00  0.00    +0.080 A 
ATOM      6  C   LIG    1       29.030 -19.829   6.786  0.00  0.00    +0.134 A 
ATOM      7  C   LIG    1       30.392 -19.745   7.130  0.00  0.00    +0.078 A 
ATOM      8  C   LIG    1       30.891 -20.560   8.159  0.00  0.00    +0.116 A 
ATOM      9  C   LIG    1       30.052 -21.468   8.779  0.00  0.00    +0.087 A 
ATOM     10  N   LIG    1       30.865 -22.066   9.700  0.00  0.00    -0.257 N 
ATOM     11  H   LIG    1       30.649 -22.793  10.370  0.00  0.00    +0.191 HD
ATOM     12  N   LIG    1       32.108 -21.559   9.669  0.00  0.00    -0.067 NA
ATOM     13  N   LIG    1       32.140 -20.636   8.715  0.00  0.00    -0.130 NA
ATOM     14  C   LIG    1       28.703 -21.624   8.440  0.00  0.00    +0.046 A 
BRANCH   6  15
ATOM     15  O   LIG    1       28.448 -19.024   5.836  0.00  0.00    -0.494 OA
ATOM     16  C   LIG    1       29.265 -18.102   5.121  0.00  0.00    +0.277 C 
ENDBRANCH   6  15
ENDBRANCH   3   5
BRANCH   1  17
ATOM     17  C   LIG    1       24.939 -21.650   5.614  0.00  0.00    +0.123 C 
BRANCH  17  19
ATOM     18  N   LIG    1       23.849 -20.281   3.742  0.00  0.00    -0.294 NA
ATOM     19  C   LIG    1       24.238 -20.344   5.181  0.00  0.00    +0.074 C 
ATOM     20  C   LIG    1       22.948 -20.074   5.951  0.00  0.00    +0.021 C 
ATOM     21  C   LIG    1       22.242 -19.073   5.070  0.00  0.00    +0.017 C 
ATOM     22  C   LIG    1       22.556 -19.573   3.672  0.00  0.00    +0.085 C 
BRANCH  18  23
ATOM     23  C   LIG    1       24.892 -19.622   2.936  0.00  0.00    +0.111 C 
BRANCH  23  25
ATOM     24  C   LIG    1       25.920 -17.342   3.245  0.00  0.00    +0.005 C 
ATOM     25  C   LIG    1       25.632 -18.565   3.711  0.00  0.00    -0.019 C 
ENDBRANCH  23  25
ENDBRANCH  18  23
ENDBRANCH  17  19
ENDBRANCH   1  17
TORSDOF 6
ENDMDL
MODEL 9
REMARK VINA RESULT:      -7.6      1.567      2.844
REMARK  Name = *****
REMARK                            x       y       z     vdW  Elec       q    Type
REMARK                         _______ _______ _______ _____ _____    ______ ____
ROOT
ATOM      1  N   LIG    1       26.248 -20.328   7.780  0.00  0.00    -0.310 N 
ATOM      2  H   LIG    1       26.218 -19.316   7.744  0.00  0.00    +0.149 HD
ATOM      3  C   LIG    1       27.458 -20.947   7.551  0.00  0.00    +0.248 C 
ATOM      4  O   LIG    1       27.562 -22.167   7.416  0.00  0.00    -0.270 OA
ENDROOT
BRANCH   3   5
ATOM      5  C   LIG    1       28.693 -20.094   7.546  0.00  0.00    +0.080 A 
ATOM      6  C   LIG    1       29.108 -19.302   6.450  0.00  0.00    +0.134 A 
ATOM      7  C   LIG    1       30.263 -18.505   6.558  0.00  0.00    +0.078 A 
ATOM      8  C   LIG    1       30.965 -18.474   7.774  0.00  0.00    +0.116 A 
ATOM      9  C   LIG    1       30.542 -19.266   8.827  0.00  0.00    +0.087 A 
ATOM     10  N   LIG    1       31.442 -18.980   9.815  0.00  0.00    -0.257 N 
ATOM     11  H   LIG    1       31.497 -19.344  10.757  0.00  0.00    +0.191 HD
ATOM     12  N   LIG    1       32.344 -18.068   9.415  0.00  0.00    -0.067 NA
ATOM     13  N   LIG    1       32.066 -17.756   8.156  0.00  0.00    -0.130 NA
ATOM     14  C   LIG    1       29.430 -20.112   8.754  0.00  0.00    +0.046 A 
BRANCH   6  15
ATOM     15  O   LIG    1       28.330 -19.341   5.318  0.00  0.00    -0.494 OA
ATOM     16  C   LIG    1       28.022 -18.120   4.653  0.00  0.00    +0.277 C 
ENDBRANCH   6  15
ENDBRANCH   3   5
BRANCH   1  17
ATOM     17  C   LIG    1       24.989 -21.047   7.858  0.00  0.00    +0.123 C 
BRANCH  17  19
ATOM     18  N   LIG    1       22.941 -21.784   6.507  0.00  0.00    -0.294 NA
ATOM     19  C   LIG    1       24.400 -21.477   6.497  0.00  0.00    +0.074 C 
ATOM     20  C   LIG    1       24.575 -20.421   5.409  0.00  0.00    +0.021 C 
ATOM     21  C   LIG    1       23.556 -20.839   4.378  0.00  0.00    +0.017 C 
ATOM     22  C   LIG    1       22.387 -21.302   5.226  0.00  0.00    +0.085 C 
BRANCH  18  23
ATOM     23  C   LIG    1       22.699 -23.223   6.714  0.00  0.00    +0.111 C 
BRANCH  23  25
ATOM     24  C   LIG    1       23.998 -25.321   6.201  0.00  0.00    +0.005 C 
ATOM     25  C   LIG    1       23.958 -24.039   6.591  0.00  0.00    -0.019 C 
ENDBRANCH  23  25
ENDBRANCH  18  23
ENDBRANCH  17  19
ENDBRANCH   1  17
TORSDOF 6
ENDMDL
