MODEL 1
REMARK VINA RESULT:      -8.3      0.000      0.000
REMARK  Name = *****
REMARK                            x       y       z     vdW  Elec       q    Type
REMARK                         _______ _______ _______ _____ _____    ______ ____
ROOT
ATOM      1  C   LIG    1       26.786 -22.015   7.409  0.00  0.00    +0.162 C 
ENDROOT
BRANCH   1   2
ATOM      2  C   LIG    1       28.115 -21.263   7.440  0.00  0.00    -0.007 A 
ATOM      3  C   LIG    1       28.385 -20.163   6.568  0.00  0.00    +0.009 A 
ATOM      4  C   LIG    1       29.651 -19.539   6.689  0.00  0.00    +0.071 A 
ATOM      5  C   LIG    1       29.955 -18.452   5.884  0.00  0.00    +0.032 A 
ATOM      6  C   LIG    1       29.054 -17.947   4.945  0.00  0.00    +0.048 A 
ATOM      7  C   LIG    1       27.814 -18.548   4.790  0.00  0.00    +0.121 A 
ATOM      8  N   LIG    1       30.599 -19.943   7.544  0.00  0.00    -0.255 NA
ATOM      9  C   LIG    1       30.327 -20.997   8.333  0.00  0.00    +0.112 A 
ATOM     10  C   LIG    1       27.489 -19.650   5.592  0.00  0.00    +0.056 A 
ATOM     11  C   LIG    1       29.129 -21.680   8.313  0.00  0.00    +0.026 A 
BRANCH   7  12
ATOM     12  O   LIG    1       26.844 -18.160   3.908  0.00  0.00    -0.495 OA
ATOM     13  C   LIG    1       26.843 -16.785   3.529  0.00  0.00    +0.277 C 
ENDBRANCH   7  12
ENDBRANCH   1   2
BRANCH   1  17
ATOM     14  C   LIG    1       22.896 -21.023   5.457  0.00  0.00    +0.028 C 
ATOM     15  C   LIG    1       23.123 -21.402   6.943  0.00  0.00    -0.000 C 
ATOM     16  C   LIG    1       24.473 -20.860   7.453  0.00  0.00    +0.026 C 
ATOM     17  C   LIG    1       25.628 -21.381   6.552  0.00  0.00    +0.090 C 
ATOM     18  N   LIG    1       25.089 -22.259   5.470  0.00  0.00    -0.296 NA
ATOM     19  C   LIG    1       24.349 -23.400   6.050  0.00  0.00    +0.085 C 
ATOM     20  C   LIG    1       23.234 -22.937   7.001  0.00  0.00    +0.019 C 
ATOM     21  C   LIG    1       24.148 -21.454   4.650  0.00  0.00    +0.092 C 
BRANCH  14  23
ATOM     22  C   LIG    1       22.957 -18.862   4.170  0.00  0.00    +0.004 C 
ATOM     23  C   LIG    1       22.569 -19.563   5.242  0.00  0.00    -0.029 C 
ENDBRANCH  14  23
ENDBRANCH   1  17
BRANCH   1  24
ATOM     24  O   LIG    1       26.317 -22.156   8.758  0.00  0.00    -0.386 OA
ATOM     25  H   LIG    1       26.804 -22.891   9.169  0.00  0.00    +0.210 HD
ENDBRANCH   1  24
TORSDOF 5
ENDMDL
MODEL 2
REMARK VINA RESULT:      -8.3      1.523      3.417
REMARK  Name = *****
REMARK                            x       y       z     vdW  Elec       q    Type
REMARK                         _______ _______ _______ _____ _____    ______ ____
ROOT
ATOM      1  C   LIG    1       26.831 -20.899   6.654  0.00  0.00    +0.162 C 
ENDROOT
BRANCH   1   2
ATOM      2  C   LIG    1       27.937 -19.918   6.273  0.00  0.00    -0.007 A 
ATOM      3  C   LIG    1       29.163 -19.835   7.004  0.00  0.00    +0.009 A 
ATOM      4  C   LIG    1       30.119 -18.891   6.556  0.00  0.00    +0.071 A 
ATOM      5  C   LIG    1       31.334 -18.786   7.215  0.00  0.00    +0.032 A 
ATOM      6  C   LIG    1       31.653 -19.580   8.319  0.00  0.00    +0.048 A 
ATOM      7  C   LIG    1       30.729 -20.500   8.792  0.00  0.00    +0.121 A 
ATOM      8  N   LIG    1       29.921 -18.069   5.519  0.00  0.00    -0.255 NA
ATOM      9  C   LIG    1       28.749 -18.150   4.866  0.00  0.00    +0.112 A 
ATOM     10  C   LIG    1       29.495 -20.619   8.142  0.00  0.00    +0.056 A 
ATOM     11  C   LIG    1       27.744 -19.034   5.202  0.00  0.00    +0.026 A 
BRANCH   7  12
ATOM     12  O   LIG    1       30.909 -21.332   9.863  0.00  0.00    -0.495 OA
ATOM     13  C   LIG    1       31.330 -22.663   9.570  0.00  0.00    +0.277 C 
ENDBRANCH   7  12
ENDBRANCH   1   2
BRANCH   1  17
ATOM     14  C   LIG    1       22.631 -21.312   5.199  0.00  0.00    +0.028 C 
ATOM     15  C   LIG    1       23.132 -21.474   6.656  0.00  0.00    -0.000 C 
ATOM     16  C   LIG    1       24.293 -20.505   6.955  0.00  0.00    +0.026 C 
ATOM     17  C   LIG    1       25.443 -20.724   5.932  0.00  0.00    +0.090 C 
ATOM     18  N   LIG    1       25.088 -21.815   4.974  0.00  0.00    -0.296 NA
ATOM     19  C   LIG    1       24.813 -23.073   5.701  0.00  0.00    +0.085 C 
ATOM     20  C   LIG    1       23.725 -22.892   6.770  0.00  0.00    +0.019 C 
ATOM     21  C   LIG    1       23.856 -21.409   4.251  0.00  0.00    +0.092 C 
BRANCH  14  23
ATOM     22  C   LIG    1       22.381 -18.900   4.528  0.00  0.00    +0.004 C 
ATOM     23  C   LIG    1       21.841 -20.046   4.961  0.00  0.00    -0.029 C 
ENDBRANCH  14  23
ENDBRANCH   1  17
BRANCH   1  24
ATOM     24  O   LIG    1       26.612 -20.803   8.069  0.00  0.00    -0.386 OA
ATOM     25  H   LIG    1       27.129 -20.049   8.402  0.00  0.00    +0.210 HD
ENDBRANCH   1  24
TORSDOF 5
ENDMDL
MODEL 3
REMARK VINA RESULT:      -7.9      2.161      6.672
REMARK  Name = *****
REMARK                            x       y       z     vdW  Elec       q    Type
REMARK                         _______ _______ _______ _____ _____    ______ ____
ROOT
ATOM      1  C   LIG    1       26.629 -20.743   5.460  0.00  0.00    +0.162 C 
ENDROOT
BRANCH   1   2
ATOM      2  C   LIG    1       25.245 -21.221   5.889  0.00  0.00    -0.007 A 
ATOM      3  C   LIG    1       24.940 -22.608   6.059  0.00  0.00    +0.009 A 
ATOM      4  C   LIG    1       23.622 -22.935   6.464  0.00  0.00    +0.071 A 
ATOM      5  C   LIG    1       23.281 -24.262   6.667  0.00  0.00    +0.032 A 
ATOM      6  C   LIG    1       24.194 -25.302   6.480  0.00  0.00    +0.048 A 
ATOM      7  C   LIG    1       25.486 -25.015   6.066  0.00  0.00    +0.121 A 
ATOM      8  N   LIG    1       22.660 -22.025   6.661  0.00  0.00    -0.255 NA
ATOM      9  C   LIG    1       22.967 -20.731   6.468  0.00  0.00    +0.112 A 
ATOM     10  C   LIG    1       25.850 -23.680   5.853  0.00  0.00    +0.056 A 
ATOM     11  C   LIG    1       24.216 -20.289   6.083  0.00  0.00    +0.026 A 
BRANCH   7  12
ATOM     12  O   LIG    1       26.474 -25.934   5.840  0.00  0.00    -0.495 OA
ATOM     13  C   LIG    1       26.127 -27.052   5.026  0.00  0.00    +0.277 C 
ENDBRANCH   7  12
ENDBRANCH   1   2
BRANCH   1  17
ATOM     14  C   LIG    1       29.649 -19.337   8.432  0.00  0.00    +0.028 C 
ATOM     15  C   LIG    1       29.929 -20.061   7.090  0.00  0.00    -0.000 C 
ATOM     16  C   LIG    1       28.906 -19.649   6.014  0.00  0.00    +0.026 C 
ATOM     17  C   LIG    1       27.462 -19.929   6.519  0.00  0.00    +0.090 C 
ATOM     18  N   LIG    1       27.497 -20.525   7.889  0.00  0.00    -0.296 NA
ATOM     19  C   LIG    1       28.283 -21.777   7.889  0.00  0.00    +0.085 C 
ATOM     20  C   LIG    1       29.701 -21.564   7.337  0.00  0.00    +0.019 C 
ATOM     21  C   LIG    1       28.157 -19.553   8.797  0.00  0.00    +0.092 C 
BRANCH  14  23
ATOM     22  C   LIG    1       30.323 -17.172   9.522  0.00  0.00    +0.004 C 
ATOM     23  C   LIG    1       30.015 -17.871   8.423  0.00  0.00    -0.029 C 
ENDBRANCH  14  23
ENDBRANCH   1  17
BRANCH   1  24
ATOM     24  O   LIG    1       26.482 -19.928   4.287  0.00  0.00    -0.386 OA
ATOM     25  H   LIG    1       27.163 -19.234   4.317  0.00  0.00    +0.210 HD
ENDBRANCH   1  24
TORSDOF 5
ENDMDL
MODEL 4
REMARK VINA RESULT:      -7.9      2.198      4.375
REMARK  Name = *****
REMARK                            x       y       z     vdW  Elec       q    Type
REMARK                         _______ _______ _______ _____ _____    ______ ____
ROOT
ATOM      1  C   LIG    1       25.478 -21.411   7.870  0.00  0.00    +0.162 C 
ENDROOT
BRANCH   1   2
ATOM      2  C   LIG    1       26.266 -20.678   6.787  0.00  0.00    -0.007 A 
ATOM      3  C   LIG    1       27.656 -20.379   6.931  0.00  0.00    +0.009 A 
ATOM      4  C   LIG    1       28.285 -19.699   5.859  0.00  0.00    +0.071 A 
ATOM      5  C   LIG    1       29.637 -19.406   5.937  0.00  0.00    +0.032 A 
ATOM      6  C   LIG    1       30.411 -19.754   7.045  0.00  0.00    +0.048 A 
ATOM      7  C   LIG    1       29.820 -20.404   8.119  0.00  0.00    +0.121 A 
ATOM      8  N   LIG    1       27.643 -19.304   4.752  0.00  0.00    -0.255 NA
ATOM      9  C   LIG    1       26.330 -19.575   4.656  0.00  0.00    +0.112 A 
ATOM     10  C   LIG    1       28.454 -20.706   8.060  0.00  0.00    +0.056 A 
ATOM     11  C   LIG    1       25.611 -20.239   5.628  0.00  0.00    +0.026 A 
BRANCH   7  12
ATOM     12  O   LIG    1       30.458 -20.795   9.264  0.00  0.00    -0.495 OA
ATOM     13  C   LIG    1       31.156 -22.037   9.210  0.00  0.00    +0.277 C 
ENDBRANCH   7  12
ENDBRANCH   1   2
BRANCH   1  17
ATOM     14  C   LIG    1       24.047 -25.117   5.834  0.00  0.00    +0.028 C 
ATOM     15  C   LIG    1       25.211 -24.198   5.385  0.00  0.00    -0.000 C 
ATOM     16  C   LIG    1       25.956 -23.612   6.601  0.00  0.00    +0.026 C 
ATOM     17  C   LIG    1       24.958 -22.855   7.521  0.00  0.00    +0.090 C 
ATOM     18  N   LIG    1       23.579 -22.908   6.948  0.00  0.00    -0.296 NA
ATOM     19  C   LIG    1       23.559 -22.321   5.591  0.00  0.00    +0.085 C 
ATOM     20  C   LIG    1       24.578 -22.996   4.659  0.00  0.00    +0.019 C 
ATOM     21  C   LIG    1       23.176 -24.334   6.851  0.00  0.00    +0.092 C 
BRANCH  14  23
ATOM     22  C   LIG    1       24.389 -27.608   5.738  0.00  0.00    +0.004 C 
ATOM     23  C   LIG    1       24.499 -26.446   6.394  0.00  0.00    -0.029 C 
ENDBRANCH  14  23
ENDBRANCH   1  17
BRANCH   1  24
ATOM     24  O   LIG    1       24.347 -20.604   8.229  0.00  0.00    -0.386 OA
ATOM     25  H   LIG    1       23.553 -21.164   8.186  0.00  0.00    +0.210 HD
ENDBRANCH   1  24
TORSDOF 5
ENDMDL
MODEL 5
REMARK VINA RESULT:      -7.8      1.663      5.683
REMARK  Name = *****
REMARK                            x       y       z     vdW  Elec       q    Type
REMARK                         _______ _______ _______ _____ _____    ______ ____
ROOT
ATOM      1  C   LIG    1       26.566 -20.380   8.079  0.00  0.00    +0.162 C 
ENDROOT
BRANCH   1   2
ATOM      2  C   LIG    1       26.000 -21.536   7.258  0.00  0.00    -0.007 A 
ATOM      3  C   LIG    1       25.346 -21.328   6.004  0.00  0.00    +0.009 A 
ATOM      4  C   LIG    1       24.864 -22.476   5.329  0.00  0.00    +0.071 A 
ATOM      5  C   LIG    1       24.243 -22.333   4.098  0.00  0.00    +0.032 A 
ATOM      6  C   LIG    1       24.067 -21.087   3.495  0.00  0.00    +0.048 A 
ATOM      7  C   LIG    1       24.511 -19.942   4.140  0.00  0.00    +0.121 A 
ATOM      8  N   LIG    1       24.964 -23.720   5.815  0.00  0.00    -0.255 NA
ATOM      9  C   LIG    1       25.560 -23.883   7.009  0.00  0.00    +0.112 A 
ATOM     10  C   LIG    1       25.139 -20.066   5.386  0.00  0.00    +0.056 A 
ATOM     11  C   LIG    1       26.076 -22.844   7.756  0.00  0.00    +0.026 A 
BRANCH   7  12
ATOM     12  O   LIG    1       24.398 -18.664   3.666  0.00  0.00    -0.495 OA
ATOM     13  C   LIG    1       25.614 -18.004   3.322  0.00  0.00    +0.277 C 
ENDBRANCH   7  12
ENDBRANCH   1   2
BRANCH   1  17
ATOM     14  C   LIG    1       30.947 -19.652   7.628  0.00  0.00    +0.028 C 
ATOM     15  C   LIG    1       29.804 -18.633   7.390  0.00  0.00    -0.000 C 
ATOM     16  C   LIG    1       28.640 -18.864   8.374  0.00  0.00    +0.026 C 
ATOM     17  C   LIG    1       28.129 -20.328   8.255  0.00  0.00    +0.090 C 
ATOM     18  N   LIG    1       28.907 -21.069   7.217  0.00  0.00    -0.296 NA
ATOM     19  C   LIG    1       28.800 -20.390   5.908  0.00  0.00    +0.085 C 
ATOM     20  C   LIG    1       29.235 -18.919   5.987  0.00  0.00    +0.019 C 
ATOM     21  C   LIG    1       30.333 -21.077   7.630  0.00  0.00    +0.092 C 
BRANCH  14  23
ATOM     22  C   LIG    1       31.917 -18.175   9.419  0.00  0.00    +0.004 C 
ATOM     23  C   LIG    1       31.749 -19.389   8.882  0.00  0.00    -0.029 C 
ENDBRANCH  14  23
ENDBRANCH   1  17
BRANCH   1  24
ATOM     24  O   LIG    1       25.970 -20.420   9.384  0.00  0.00    -0.386 OA
ATOM     25  H   LIG    1       26.128 -19.561   9.812  0.00  0.00    +0.210 HD
ENDBRANCH   1  24
TORSDOF 5
ENDMDL
MODEL 6
REMARK VINA RESULT:      -7.8      4.314      7.760
REMARK  Name = *****
REMARK                            x       y       z     vdW  Elec       q    Type
REMARK                         _______ _______ _______ _____ _____    ______ ____
ROOT
ATOM      1  C   LIG    1       25.705 -25.132   6.791  0.00  0.00    +0.162 C 
ENDROOT
BRANCH   1   2
ATOM      2  C   LIG    1       25.189 -26.541   6.509  0.00  0.00    -0.007 A 
ATOM      3  C   LIG    1       25.518 -27.651   7.347  0.00  0.00    +0.009 A 
ATOM      4  C   LIG    1       24.979 -28.911   6.991  0.00  0.00    +0.071 A 
ATOM      5  C   LIG    1       25.247 -30.016   7.783  0.00  0.00    +0.032 A 
ATOM      6  C   LIG    1       26.041 -29.936   8.928  0.00  0.00    +0.048 A 
ATOM      7  C   LIG    1       26.599 -28.719   9.293  0.00  0.00    +0.121 A 
ATOM      8  N   LIG    1       24.215 -29.113   5.910  0.00  0.00    -0.255 NA
ATOM      9  C   LIG    1       23.943 -28.056   5.125  0.00  0.00    +0.112 A 
ATOM     10  C   LIG    1       26.342 -27.591   8.503  0.00  0.00    +0.056 A 
ATOM     11  C   LIG    1       24.404 -26.779   5.373  0.00  0.00    +0.026 A 
BRANCH   7  12
ATOM     12  O   LIG    1       27.398 -28.502  10.382  0.00  0.00    -0.495 OA
ATOM     13  C   LIG    1       26.818 -27.766  11.458  0.00  0.00    +0.277 C 
ENDBRANCH   7  12
ENDBRANCH   1   2
BRANCH   1  17
ATOM     14  C   LIG    1       23.731 -21.157   6.312  0.00  0.00    +0.028 C 
ATOM     15  C   LIG    1       25.021 -21.647   5.607  0.00  0.00    -0.000 C 
ATOM     16  C   LIG    1       24.949 -23.156   5.304  0.00  0.00    +0.026 C 
ATOM     17  C   LIG    1       24.682 -23.949   6.615  0.00  0.00    +0.090 C 
ATOM     18  N   LIG    1       24.589 -23.015   7.778  0.00  0.00    -0.296 NA
ATOM     19  C   LIG    1       25.833 -22.227   7.909  0.00  0.00    +0.085 C 
ATOM     20  C   LIG    1       26.174 -21.474   6.614  0.00  0.00    +0.019 C 
ATOM     21  C   LIG    1       23.462 -22.081   7.529  0.00  0.00    +0.092 C 
BRANCH  14  23
ATOM     22  C   LIG    1       22.145 -19.955   4.771  0.00  0.00    +0.004 C 
ATOM     23  C   LIG    1       22.530 -21.074   5.398  0.00  0.00    -0.029 C 
ENDBRANCH  14  23
ENDBRANCH   1  17
BRANCH   1  24
ATOM     24  O   LIG    1       26.827 -24.882   5.931  0.00  0.00    -0.386 OA
ATOM     25  H   LIG    1       27.416 -24.253   6.382  0.00  0.00    +0.210 HD
ENDBRANCH   1  24
TORSDOF 5
ENDMDL
MODEL 7
REMARK VINA RESULT:      -7.8      2.494      6.971
REMARK  Name = *****
REMARK                            x       y       z     vdW  Elec       q    Type
REMARK                         _______ _______ _______ _____ _____    ______ ____
ROOT
ATOM      1  C   LIG    1       28.020 -21.404   7.279  0.00  0.00    +0.162 C 
ENDROOT
BRANCH   1   2
ATOM      2  C   LIG    1       26.505 -21.550   7.403  0.00  0.00    -0.007 A 
ATOM      3  C   LIG    1       25.824 -22.745   7.014  0.00  0.00    +0.009 A 
ATOM      4  C   LIG    1       24.417 -22.769   7.177  0.00  0.00    +0.071 A 
ATOM      5  C   LIG    1       23.711 -23.912   6.838  0.00  0.00    +0.032 A 
ATOM      6  C   LIG    1       24.338 -25.051   6.331  0.00  0.00    +0.048 A 
ATOM      7  C   LIG    1       25.712 -25.052   6.142  0.00  0.00    +0.121 A 
ATOM      8  N   LIG    1       23.706 -21.734   7.642  0.00  0.00    -0.255 NA
ATOM      9  C   LIG    1       24.370 -20.613   7.975  0.00  0.00    +0.112 A 
ATOM     10  C   LIG    1       26.443 -23.905   6.476  0.00  0.00    +0.056 A 
ATOM     11  C   LIG    1       25.738 -20.473   7.868  0.00  0.00    +0.026 A 
BRANCH   7  12
ATOM     12  O   LIG    1       26.449 -26.093   5.649  0.00  0.00    -0.495 OA
ATOM     13  C   LIG    1       25.725 -27.120   4.974  0.00  0.00    +0.277 C 
ENDBRANCH   7  12
ENDBRANCH   1   2
BRANCH   1  17
ATOM     14  C   LIG    1       30.754 -18.376   9.091  0.00  0.00    +0.028 C 
ATOM     15  C   LIG    1       30.343 -18.486   7.601  0.00  0.00    -0.000 C 
ATOM     16  C   LIG    1       28.887 -18.975   7.462  0.00  0.00    +0.026 C 
ATOM     17  C   LIG    1       28.710 -20.331   8.201  0.00  0.00    +0.090 C 
ATOM     18  N   LIG    1       30.003 -20.763   8.813  0.00  0.00    -0.296 NA
ATOM     19  C   LIG    1       31.051 -20.886   7.777  0.00  0.00    +0.085 C 
ATOM     20  C   LIG    1       31.219 -19.587   6.975  0.00  0.00    +0.019 C 
ATOM     21  C   LIG    1       30.422 -19.722   9.786  0.00  0.00    +0.092 C 
BRANCH  14  23
ATOM     22  C   LIG    1       30.660 -16.624  10.895  0.00  0.00    +0.004 C 
ATOM     23  C   LIG    1       30.127 -17.206   9.813  0.00  0.00    -0.029 C 
ENDBRANCH  14  23
ENDBRANCH   1  17
BRANCH   1  24
ATOM     24  O   LIG    1       28.332 -21.086   5.914  0.00  0.00    -0.386 OA
ATOM     25  H   LIG    1       28.907 -21.790   5.567  0.00  0.00    +0.210 HD
ENDBRANCH   1  24
TORSDOF 5
ENDMDL
MODEL 8
REMARK VINA RESULT:      -7.7      2.037      6.176
REMARK  Name = *****
REMARK                            x       y       z     vdW  Elec       q    Type
REMARK                         _______ _______ _______ _____ _____    ______ ____
ROOT
ATOM      1  C   LIG    1       28.337 -20.515   6.426  0.00  0.00    +0.162 C 
ENDROOT
BRANCH   1   2
ATOM      2  C   LIG    1       26.967 -20.953   6.937  0.00  0.00    -0.007 A 
ATOM      3  C   LIG    1       25.758 -20.614   6.253  0.00  0.00    +0.009 A 
ATOM      4  C   LIG    1       24.544 -21.079   6.818  0.00  0.00    +0.071 A 
ATOM      5  C   LIG    1       23.345 -20.799   6.182  0.00  0.00    +0.032 A 
ATOM      6  C   LIG    1       23.286 -20.063   4.997  0.00  0.00    +0.048 A 
ATOM      7  C   LIG    1       24.455 -19.579   4.430  0.00  0.00    +0.121 A 
ATOM      8  N   LIG    1       24.476 -21.781   7.956  0.00  0.00    -0.255 NA
ATOM      9  C   LIG    1       25.627 -22.063   8.591  0.00  0.00    +0.112 A 
ATOM     10  C   LIG    1       25.677 -19.849   5.059  0.00  0.00    +0.056 A 
ATOM     11  C   LIG    1       26.869 -21.673   8.136  0.00  0.00    +0.026 A 
BRANCH   7  12
ATOM     12  O   LIG    1       24.540 -18.843   3.280  0.00  0.00    -0.495 OA
ATOM     13  C   LIG    1       25.598 -17.890   3.212  0.00  0.00    +0.277 C 
ENDBRANCH   7  12
ENDBRANCH   1   2
BRANCH   1  17
ATOM     14  C   LIG    1       31.336 -18.393   8.962  0.00  0.00    +0.028 C 
ATOM     15  C   LIG    1       31.622 -19.259   7.709  0.00  0.00    -0.000 C 
ATOM     16  C   LIG    1       30.497 -19.114   6.665  0.00  0.00    +0.026 C 
ATOM     17  C   LIG    1       29.128 -19.478   7.307  0.00  0.00    +0.090 C 
ATOM     18  N   LIG    1       29.311 -19.872   8.737  0.00  0.00    -0.296 NA
ATOM     19  C   LIG    1       30.239 -21.019   8.843  0.00  0.00    +0.085 C 
ATOM     20  C   LIG    1       31.587 -20.731   8.165  0.00  0.00    +0.019 C 
ATOM     21  C   LIG    1       29.903 -18.718   9.459  0.00  0.00    +0.092 C 
BRANCH  14  23
ATOM     22  C   LIG    1       32.358 -16.146   9.452  0.00  0.00    +0.004 C 
ATOM     23  C   LIG    1       31.525 -16.911   8.735  0.00  0.00    -0.029 C 
ENDBRANCH  14  23
ENDBRANCH   1  17
BRANCH   1  24
ATOM     24  O   LIG    1       28.171 -19.953   5.116  0.00  0.00    -0.386 OA
ATOM     25  H   LIG    1       27.546 -19.211   5.185  0.00  0.00    +0.210 HD
ENDBRANCH   1  24
TORSDOF 5
ENDMDL
MODEL 9
REMARK VINA RESULT:      -7.4      2.290      3.571
REMARK  Name = *****
REMARK                            x       y       z     vdW  Elec       q    Type
REMARK                         _______ _______ _______ _____ _____    ______ ____
ROOT
ATOM      1  C   LIG    1       27.288 -20.494   7.775  0.00  0.00    +0.162 C 
ENDROOT
BRANCH   1   2
ATOM      2  C   LIG    1       28.490 -19.814   7.123  0.00  0.00    -0.007 A 
ATOM      3  C   LIG    1       29.520 -19.191   7.894  0.00  0.00    +0.009 A 
ATOM      4  C   LIG    1       30.590 -18.595   7.182  0.00  0.00    +0.071 A 
ATOM      5  C   LIG    1       31.626 -17.998   7.882  0.00  0.00    +0.032 A 
ATOM      6  C   LIG    1       31.654 -17.956   9.277  0.00  0.00    +0.048 A 
ATOM      7  C   LIG    1       30.612 -18.514  10.002  0.00  0.00    +0.121 A 
ATOM      8  N   LIG    1       30.664 -18.563   5.846  0.00  0.00    -0.255 NA
ATOM      9  C   LIG    1       29.669 -19.133   5.145  0.00  0.00    +0.112 A 
ATOM     10  C   LIG    1       29.554 -19.119   9.313  0.00  0.00    +0.056 A 
ATOM     11  C   LIG    1       28.580 -19.751   5.725  0.00  0.00    +0.026 A 
BRANCH   7  12
ATOM     12  O   LIG    1       30.512 -18.537  11.366  0.00  0.00    -0.495 OA
ATOM     13  C   LIG    1       31.183 -17.494  12.070  0.00  0.00    +0.277 C 
ENDBRANCH   7  12
ENDBRANCH   1   2
BRANCH   1  17
ATOM     14  C   LIG    1       23.413 -21.676   5.903  0.00  0.00    +0.028 C 
ATOM     15  C   LIG    1       23.805 -21.811   7.396  0.00  0.00    -0.000 C 
ATOM     16  C   LIG    1       24.708 -20.643   7.840  0.00  0.00    +0.026 C 
ATOM     17  C   LIG    1       25.964 -20.567   6.927  0.00  0.00    +0.090 C 
ATOM     18  N   LIG    1       25.930 -21.654   5.902  0.00  0.00    -0.296 NA
ATOM     19  C   LIG    1       25.860 -22.979   6.555  0.00  0.00    +0.085 C 
ATOM     20  C   LIG    1       24.668 -23.082   7.518  0.00  0.00    +0.019 C 
ATOM     21  C   LIG    1       24.709 -21.470   5.077  0.00  0.00    +0.092 C 
BRANCH  14  23
ATOM     22  C   LIG    1       22.652 -19.501   4.893  0.00  0.00    +0.004 C 
ATOM     23  C   LIG    1       22.400 -20.587   5.633  0.00  0.00    -0.029 C 
ENDBRANCH  14  23
ENDBRANCH   1  17
BRANCH   1  24
ATOM     24  O   LIG    1       26.995 -19.810   9.002  0.00  0.00    -0.386 OA
ATOM     25  H   LIG    1       26.817 -20.481   9.684  0.00  0.00    +0.210 HD
ENDBRANCH   1  24
TORSDOF 5
ENDMDL
