MODEL 1
REMARK VINA RESULT:      -8.6      0.000      0.000
REMARK  Name = *****
REMARK                            x       y       z     vdW  Elec       q    Type
REMARK                         _______ _______ _______ _____ _____    ______ ____
ROOT
ATOM      1  C   LIG    1       21.721 -19.878   4.576  0.00  0.00    +0.105 C 
ATOM      2  N   LIG    1       22.920 -20.700   4.791  0.00  0.00    -0.297 NA
ENDROOT
BRANCH   2   3
ATOM      3  C   LIG    1       23.396 -20.473   6.172  0.00  0.00    +0.120 C 
BRANCH   3   4
ATOM      4  C   LIG    1       24.649 -21.238   6.572  0.00  0.00    -0.026 A 
ATOM      5  C   LIG    1       24.704 -22.659   6.635  0.00  0.00    -0.013 A 
ATOM      6  C   LIG    1       25.924 -23.280   7.012  0.00  0.00    -0.018 A 
ATOM      7  C   LIG    1       26.028 -24.679   7.027  0.00  0.00    +0.008 A 
ATOM      8  C   LIG    1       24.953 -25.484   6.657  0.00  0.00    +0.001 A 
ATOM      9  C   LIG    1       23.744 -24.896   6.313  0.00  0.00    +0.001 A 
ATOM     10  C   LIG    1       27.034 -22.494   7.356  0.00  0.00    +0.008 A 
ATOM     11  C   LIG    1       26.972 -21.106   7.296  0.00  0.00    +0.001 A 
ATOM     12  C   LIG    1       23.616 -23.505   6.322  0.00  0.00    +0.009 A 
ATOM     13  C   LIG    1       25.794 -20.484   6.899  0.00  0.00    +0.005 A 
ENDBRANCH   3   4
ENDBRANCH   2   3
BRANCH   2  14
ATOM     14  C   LIG    1       23.973 -20.388   3.808  0.00  0.00    +0.112 C 
BRANCH  14  15
ATOM     15  C   LIG    1       24.325 -18.926   3.769  0.00  0.00    -0.003 C 
ATOM     16  C   LIG    1       25.510 -18.485   3.322  0.00  0.00    +0.057 C 
BRANCH  16  17
ATOM     17  C   LIG    1       25.877 -17.116   3.334  0.00  0.00    -0.074 C 
ATOM     18  C   LIG    1       26.115 -15.948   3.404  0.00  0.00    -0.092 C 
BRANCH  18  19
ATOM     19  C   LIG    1       26.357 -14.494   3.547  0.00  0.00    +0.024 C 
ATOM     20  C   LIG    1       27.816 -14.253   3.957  0.00  0.00    +0.024 C 
ATOM     21  C   LIG    1       25.415 -13.932   4.621  0.00  0.00    +0.024 C 
ATOM     22  C   LIG    1       26.075 -13.803   2.205  0.00  0.00    +0.024 C 
ENDBRANCH  18  19
ENDBRANCH  16  17
ENDBRANCH  14  15
ENDBRANCH   2  14
TORSDOF 6
ENDMDL
MODEL 2
REMARK VINA RESULT:      -8.4      0.642      2.555
REMARK  Name = *****
REMARK                            x       y       z     vdW  Elec       q    Type
REMARK                         _______ _______ _______ _____ _____    ______ ____
ROOT
ATOM      1  C   LIG    1       21.788 -19.273   4.490  0.00  0.00    +0.105 C 
ATOM      2  N   LIG    1       22.739 -20.386   4.634  0.00  0.00    -0.297 NA
ENDROOT
BRANCH   2   3
ATOM      3  C   LIG    1       23.024 -20.566   6.074  0.00  0.00    +0.120 C 
BRANCH   3   4
ATOM      4  C   LIG    1       23.930 -21.738   6.424  0.00  0.00    -0.026 A 
ATOM      5  C   LIG    1       25.302 -21.582   6.773  0.00  0.00    -0.013 A 
ATOM      6  C   LIG    1       26.061 -22.738   7.091  0.00  0.00    -0.018 A 
ATOM      7  C   LIG    1       27.399 -22.613   7.497  0.00  0.00    +0.008 A 
ATOM      8  C   LIG    1       28.002 -21.363   7.612  0.00  0.00    +0.001 A 
ATOM      9  C   LIG    1       27.284 -20.223   7.278  0.00  0.00    +0.001 A 
ATOM     10  C   LIG    1       25.471 -24.008   7.017  0.00  0.00    +0.008 A 
ATOM     11  C   LIG    1       24.132 -24.154   6.672  0.00  0.00    +0.001 A 
ATOM     12  C   LIG    1       25.960 -20.333   6.845  0.00  0.00    +0.009 A 
ATOM     13  C   LIG    1       23.366 -23.029   6.387  0.00  0.00    +0.005 A 
ENDBRANCH   3   4
ENDBRANCH   2   3
BRANCH   2  14
ATOM     14  C   LIG    1       23.976 -20.142   3.873  0.00  0.00    +0.112 C 
BRANCH  14  15
ATOM     15  C   LIG    1       24.355 -18.687   3.818  0.00  0.00    -0.003 C 
ATOM     16  C   LIG    1       25.534 -18.270   3.335  0.00  0.00    +0.057 C 
BRANCH  16  17
ATOM     17  C   LIG    1       25.928 -16.908   3.331  0.00  0.00    -0.074 C 
ATOM     18  C   LIG    1       26.192 -15.745   3.391  0.00  0.00    -0.092 C 
BRANCH  18  19
ATOM     19  C   LIG    1       26.469 -14.296   3.525  0.00  0.00    +0.024 C 
ATOM     20  C   LIG    1       26.079 -13.576   2.228  0.00  0.00    +0.024 C 
ATOM     21  C   LIG    1       27.965 -14.096   3.802  0.00  0.00    +0.024 C 
ATOM     22  C   LIG    1       25.651 -13.734   4.696  0.00  0.00    +0.024 C 
ENDBRANCH  18  19
ENDBRANCH  16  17
ENDBRANCH  14  15
ENDBRANCH   2  14
TORSDOF 6
ENDMDL
MODEL 3
REMARK VINA RESULT:      -8.2      2.123      6.068
REMARK  Name = *****
REMARK                            x       y       z     vdW  Elec       q    Type
REMARK                         _______ _______ _______ _____ _____    ______ ____
ROOT
ATOM      1  C   LIG    1       24.252 -24.511   6.500  0.00  0.00    +0.105 C 
ATOM      2  N   LIG    1       23.834 -23.101   6.516  0.00  0.00    -0.297 NA
ENDROOT
BRANCH   2   3
ATOM      3  C   LIG    1       24.402 -22.437   5.323  0.00  0.00    +0.120 C 
BRANCH   3   4
ATOM      4  C   LIG    1       23.728 -21.137   4.909  0.00  0.00    -0.026 A 
ATOM      5  C   LIG    1       24.453 -19.995   4.464  0.00  0.00    -0.013 A 
ATOM      6  C   LIG    1       23.731 -18.830   4.092  0.00  0.00    -0.018 A 
ATOM      7  C   LIG    1       24.410 -17.708   3.593  0.00  0.00    +0.008 A 
ATOM      8  C   LIG    1       25.794 -17.717   3.436  0.00  0.00    +0.001 A 
ATOM      9  C   LIG    1       26.520 -18.836   3.821  0.00  0.00    +0.001 A 
ATOM     10  C   LIG    1       22.333 -18.804   4.207  0.00  0.00    +0.008 A 
ATOM     11  C   LIG    1       21.632 -19.922   4.646  0.00  0.00    +0.001 A 
ATOM     12  C   LIG    1       25.861 -19.950   4.346  0.00  0.00    +0.009 A 
ATOM     13  C   LIG    1       22.322 -21.080   4.985  0.00  0.00    +0.005 A 
ENDBRANCH   3   4
ENDBRANCH   2   3
BRANCH   2  14
ATOM     14  C   LIG    1       24.259 -22.425   7.754  0.00  0.00    +0.112 C 
BRANCH  14  15
ATOM     15  C   LIG    1       25.683 -21.942   7.700  0.00  0.00    -0.003 C 
ATOM     16  C   LIG    1       26.022 -20.675   7.979  0.00  0.00    +0.057 C 
BRANCH  16  17
ATOM     17  C   LIG    1       27.350 -20.191   7.876  0.00  0.00    -0.074 C 
ATOM     18  C   LIG    1       28.496 -19.857   7.844  0.00  0.00    -0.092 C 
BRANCH  18  19
ATOM     19  C   LIG    1       29.935 -19.508   7.839  0.00  0.00    +0.024 C 
ATOM     20  C   LIG    1       30.181 -18.323   8.782  0.00  0.00    +0.024 C 
ATOM     21  C   LIG    1       30.355 -19.132   6.411  0.00  0.00    +0.024 C 
ATOM     22  C   LIG    1       30.748 -20.722   8.309  0.00  0.00    +0.024 C 
ENDBRANCH  18  19
ENDBRANCH  16  17
ENDBRANCH  14  15
ENDBRANCH   2  14
TORSDOF 6
ENDMDL
MODEL 4
REMARK VINA RESULT:      -8.0      4.139      6.109
REMARK  Name = *****
REMARK                            x       y       z     vdW  Elec       q    Type
REMARK                         _______ _______ _______ _____ _____    ______ ____
ROOT
ATOM      1  C   LIG    1       27.579 -20.041   6.225  0.00  0.00    +0.105 C 
ATOM      2  N   LIG    1       27.882 -21.357   6.807  0.00  0.00    -0.297 NA
ENDROOT
BRANCH   2   3
ATOM      3  C   LIG    1       26.942 -21.596   7.925  0.00  0.00    +0.120 C 
BRANCH   3   4
ATOM      4  C   LIG    1       25.541 -22.035   7.525  0.00  0.00    -0.026 A 
ATOM      5  C   LIG    1       25.246 -23.340   7.038  0.00  0.00    -0.013 A 
ATOM      6  C   LIG    1       23.904 -23.655   6.698  0.00  0.00    -0.018 A 
ATOM      7  C   LIG    1       23.570 -24.949   6.271  0.00  0.00    +0.008 A 
ATOM      8  C   LIG    1       24.535 -25.950   6.187  0.00  0.00    +0.001 A 
ATOM      9  C   LIG    1       25.857 -25.653   6.487  0.00  0.00    +0.001 A 
ATOM     10  C   LIG    1       22.905 -22.677   6.806  0.00  0.00    +0.008 A 
ATOM     11  C   LIG    1       23.200 -21.403   7.279  0.00  0.00    +0.001 A 
ATOM     12  C   LIG    1       26.210 -24.362   6.886  0.00  0.00    +0.009 A 
ATOM     13  C   LIG    1       24.504 -21.088   7.644  0.00  0.00    +0.005 A 
ENDBRANCH   3   4
ENDBRANCH   2   3
BRANCH   2  14
ATOM     14  C   LIG    1       29.280 -21.438   7.262  0.00  0.00    +0.112 C 
BRANCH  14  15
ATOM     15  C   LIG    1       29.737 -20.199   7.981  0.00  0.00    -0.003 C 
ATOM     16  C   LIG    1       30.827 -20.183   8.763  0.00  0.00    +0.057 C 
BRANCH  16  17
ATOM     17  C   LIG    1       31.236 -19.038   9.493  0.00  0.00    -0.074 C 
ATOM     18  C   LIG    1       31.555 -18.022  10.032  0.00  0.00    -0.092 C 
BRANCH  18  19
ATOM     19  C   LIG    1       31.919 -16.722  10.643  0.00  0.00    +0.024 C 
ATOM     20  C   LIG    1       30.684 -16.102  11.308  0.00  0.00    +0.024 C 
ATOM     21  C   LIG    1       32.447 -15.785   9.547  0.00  0.00    +0.024 C 
ATOM     22  C   LIG    1       33.015 -16.951  11.693  0.00  0.00    +0.024 C 
ENDBRANCH  18  19
ENDBRANCH  16  17
ENDBRANCH  14  15
ENDBRANCH   2  14
TORSDOF 6
ENDMDL
MODEL 5
REMARK VINA RESULT:      -7.9      4.511      9.995
REMARK  Name = *****
REMARK                            x       y       z     vdW  Elec       q    Type
REMARK                         _______ _______ _______ _____ _____    ______ ____
ROOT
ATOM      1  C   LIG    1       25.873 -26.648   4.307  0.00  0.00    +0.105 C 
ATOM      2  N   LIG    1       25.020 -26.482   5.493  0.00  0.00    -0.297 NA
ENDROOT
BRANCH   2   3
ATOM      3  C   LIG    1       25.650 -25.480   6.379  0.00  0.00    +0.120 C 
BRANCH   3   4
ATOM      4  C   LIG    1       24.802 -24.256   6.697  0.00  0.00    -0.026 A 
ATOM      5  C   LIG    1       25.354 -23.031   7.169  0.00  0.00    -0.013 A 
ATOM      6  C   LIG    1       24.479 -21.944   7.430  0.00  0.00    -0.018 A 
ATOM      7  C   LIG    1       24.996 -20.705   7.839  0.00  0.00    +0.008 A 
ATOM      8  C   LIG    1       26.368 -20.510   7.980  0.00  0.00    +0.001 A 
ATOM      9  C   LIG    1       27.237 -21.569   7.757  0.00  0.00    +0.001 A 
ATOM     10  C   LIG    1       23.096 -22.101   7.263  0.00  0.00    +0.008 A 
ATOM     11  C   LIG    1       22.563 -23.301   6.806  0.00  0.00    +0.001 A 
ATOM     12  C   LIG    1       26.735 -22.816   7.377  0.00  0.00    +0.009 A 
ATOM     13  C   LIG    1       23.409 -24.366   6.517  0.00  0.00    +0.005 A 
ENDBRANCH   3   4
ENDBRANCH   2   3
BRANCH   2  14
ATOM     14  C   LIG    1       24.818 -27.761   6.197  0.00  0.00    +0.112 C 
BRANCH  14  15
ATOM     15  C   LIG    1       25.568 -27.841   7.498  0.00  0.00    -0.003 C 
ATOM     16  C   LIG    1       25.616 -28.962   8.231  0.00  0.00    +0.057 C 
BRANCH  16  17
ATOM     17  C   LIG    1       26.270 -29.036   9.487  0.00  0.00    -0.074 C 
ATOM     18  C   LIG    1       26.744 -29.056  10.583  0.00  0.00    -0.092 C 
BRANCH  18  19
ATOM     19  C   LIG    1       27.264 -29.058  11.969  0.00  0.00    +0.024 C 
ATOM     20  C   LIG    1       26.520 -30.115  12.796  0.00  0.00    +0.024 C 
ATOM     21  C   LIG    1       27.050 -27.669  12.587  0.00  0.00    +0.024 C 
ATOM     22  C   LIG    1       28.764 -29.382  11.943  0.00  0.00    +0.024 C 
ENDBRANCH  18  19
ENDBRANCH  16  17
ENDBRANCH  14  15
ENDBRANCH   2  14
TORSDOF 6
ENDMDL
MODEL 6
REMARK VINA RESULT:      -7.9      2.986      7.553
REMARK  Name = *****
REMARK                            x       y       z     vdW  Elec       q    Type
REMARK                         _______ _______ _______ _____ _____    ______ ____
ROOT
ATOM      1  C   LIG    1       23.314 -19.408   4.132  0.00  0.00    +0.105 C 
ATOM      2  N   LIG    1       23.725 -20.108   5.357  0.00  0.00    -0.297 NA
ENDROOT
BRANCH   2   3
ATOM      3  C   LIG    1       25.090 -20.639   5.151  0.00  0.00    +0.120 C 
BRANCH   3   4
ATOM      4  C   LIG    1       25.998 -20.617   6.372  0.00  0.00    -0.026 A 
ATOM      5  C   LIG    1       27.293 -20.024   6.366  0.00  0.00    -0.013 A 
ATOM      6  C   LIG    1       28.060 -20.047   7.560  0.00  0.00    -0.018 A 
ATOM      7  C   LIG    1       29.315 -19.421   7.604  0.00  0.00    +0.008 A 
ATOM      8  C   LIG    1       29.824 -18.752   6.493  0.00  0.00    +0.001 A 
ATOM      9  C   LIG    1       29.101 -18.743   5.308  0.00  0.00    +0.001 A 
ATOM     10  C   LIG    1       27.558 -20.683   8.704  0.00  0.00    +0.008 A 
ATOM     11  C   LIG    1       26.294 -21.264   8.703  0.00  0.00    +0.001 A 
ATOM     12  C   LIG    1       27.863 -19.387   5.240  0.00  0.00    +0.009 A 
ATOM     13  C   LIG    1       25.518 -21.222   7.550  0.00  0.00    +0.005 A 
ENDBRANCH   3   4
ENDBRANCH   2   3
BRANCH   2  14
ATOM     14  C   LIG    1       22.783 -21.186   5.706  0.00  0.00    +0.112 C 
BRANCH  14  15
ATOM     15  C   LIG    1       23.384 -22.558   5.573  0.00  0.00    -0.003 C 
ATOM     16  C   LIG    1       23.162 -23.529   6.471  0.00  0.00    +0.057 C 
BRANCH  16  17
ATOM     17  C   LIG    1       23.768 -24.808   6.390  0.00  0.00    -0.074 C 
ATOM     18  C   LIG    1       24.352 -25.844   6.277  0.00  0.00    -0.092 C 
BRANCH  18  19
ATOM     19  C   LIG    1       25.137 -27.089   6.111  0.00  0.00    +0.024 C 
ATOM     20  C   LIG    1       25.967 -27.346   7.375  0.00  0.00    +0.024 C 
ATOM     21  C   LIG    1       26.066 -26.938   4.899  0.00  0.00    +0.024 C 
ATOM     22  C   LIG    1       24.174 -28.262   5.876  0.00  0.00    +0.024 C 
ENDBRANCH  18  19
ENDBRANCH  16  17
ENDBRANCH  14  15
ENDBRANCH   2  14
TORSDOF 6
ENDMDL
MODEL 7
REMARK VINA RESULT:      -7.8      4.448     10.582
REMARK  Name = *****
REMARK                            x       y       z     vdW  Elec       q    Type
REMARK                         _______ _______ _______ _____ _____    ______ ____
ROOT
ATOM      1  C   LIG    1       25.527 -26.244   4.274  0.00  0.00    +0.105 C 
ATOM      2  N   LIG    1       25.118 -26.552   5.652  0.00  0.00    -0.297 NA
ENDROOT
BRANCH   2   3
ATOM      3  C   LIG    1       25.688 -25.521   6.545  0.00  0.00    +0.120 C 
BRANCH   3   4
ATOM      4  C   LIG    1       24.814 -24.297   6.781  0.00  0.00    -0.026 A 
ATOM      5  C   LIG    1       25.337 -23.036   7.185  0.00  0.00    -0.013 A 
ATOM      6  C   LIG    1       24.439 -21.952   7.371  0.00  0.00    -0.018 A 
ATOM      7  C   LIG    1       24.928 -20.681   7.711  0.00  0.00    +0.008 A 
ATOM      8  C   LIG    1       26.294 -20.452   7.855  0.00  0.00    +0.001 A 
ATOM      9  C   LIG    1       27.185 -21.505   7.705  0.00  0.00    +0.001 A 
ATOM     10  C   LIG    1       23.061 -22.146   7.199  0.00  0.00    +0.008 A 
ATOM     11  C   LIG    1       22.556 -23.381   6.809  0.00  0.00    +0.001 A 
ATOM     12  C   LIG    1       26.712 -22.782   7.395  0.00  0.00    +0.009 A 
ATOM     13  C   LIG    1       23.425 -24.444   6.592  0.00  0.00    +0.005 A 
ENDBRANCH   3   4
ENDBRANCH   2   3
BRANCH   2  14
ATOM     14  C   LIG    1       25.550 -27.902   6.055  0.00  0.00    +0.112 C 
BRANCH  14  15
ATOM     15  C   LIG    1       24.931 -28.355   7.349  0.00  0.00    -0.003 C 
ATOM     16  C   LIG    1       24.492 -29.608   7.535  0.00  0.00    +0.057 C 
BRANCH  16  17
ATOM     17  C   LIG    1       23.854 -30.034   8.728  0.00  0.00    -0.074 C 
ATOM     18  C   LIG    1       23.278 -30.305   9.738  0.00  0.00    -0.092 C 
BRANCH  18  19
ATOM     19  C   LIG    1       22.526 -30.575  10.985  0.00  0.00    +0.024 C 
ATOM     20  C   LIG    1       21.056 -30.855  10.649  0.00  0.00    +0.024 C 
ATOM     21  C   LIG    1       22.626 -29.350  11.905  0.00  0.00    +0.024 C 
ATOM     22  C   LIG    1       23.139 -31.795  11.687  0.00  0.00    +0.024 C 
ENDBRANCH  18  19
ENDBRANCH  16  17
ENDBRANCH  14  15
ENDBRANCH   2  14
TORSDOF 6
ENDMDL
MODEL 8
REMARK VINA RESULT:      -7.8      2.274      7.686
REMARK  Name = *****
REMARK                            x       y       z     vdW  Elec       q    Type
REMARK                         _______ _______ _______ _____ _____    ______ ____
ROOT
ATOM      1  C   LIG    1       22.429 -20.170   5.259  0.00  0.00    +0.105 C 
ATOM      2  N   LIG    1       23.614 -20.476   6.074  0.00  0.00    -0.297 NA
ENDROOT
BRANCH   2   3
ATOM      3  C   LIG    1       24.679 -20.970   5.175  0.00  0.00    +0.120 C 
BRANCH   3   4
ATOM      4  C   LIG    1       25.913 -20.086   5.068  0.00  0.00    -0.026 A 
ATOM      5  C   LIG    1       27.054 -20.242   5.905  0.00  0.00    -0.013 A 
ATOM      6  C   LIG    1       28.160 -19.371   5.721  0.00  0.00    -0.018 A 
ATOM      7  C   LIG    1       29.323 -19.535   6.490  0.00  0.00    +0.008 A 
ATOM      8  C   LIG    1       29.425 -20.558   7.429  0.00  0.00    +0.001 A 
ATOM      9  C   LIG    1       28.343 -21.402   7.643  0.00  0.00    +0.001 A 
ATOM     10  C   LIG    1       28.099 -18.353   4.759  0.00  0.00    +0.008 A 
ATOM     11  C   LIG    1       26.980 -18.203   3.947  0.00  0.00    +0.001 A 
ATOM     12  C   LIG    1       27.169 -21.233   6.907  0.00  0.00    +0.009 A 
ATOM     13  C   LIG    1       25.901 -19.068   4.094  0.00  0.00    +0.005 A 
ENDBRANCH   3   4
ENDBRANCH   2   3
BRANCH   2  14
ATOM     14  C   LIG    1       23.306 -21.462   7.125  0.00  0.00    +0.112 C 
BRANCH  14  15
ATOM     15  C   LIG    1       23.942 -22.802   6.877  0.00  0.00    -0.003 C 
ATOM     16  C   LIG    1       23.221 -23.899   6.600  0.00  0.00    +0.057 C 
BRANCH  16  17
ATOM     17  C   LIG    1       23.801 -25.179   6.422  0.00  0.00    -0.074 C 
ATOM     18  C   LIG    1       24.373 -26.214   6.259  0.00  0.00    -0.092 C 
BRANCH  18  19
ATOM     19  C   LIG    1       25.150 -27.459   6.056  0.00  0.00    +0.024 C 
ATOM     20  C   LIG    1       24.222 -28.565   5.536  0.00  0.00    +0.024 C 
ATOM     21  C   LIG    1       25.770 -27.887   7.393  0.00  0.00    +0.024 C 
ATOM     22  C   LIG    1       26.265 -27.195   5.034  0.00  0.00    +0.024 C 
ENDBRANCH  18  19
ENDBRANCH  16  17
ENDBRANCH  14  15
ENDBRANCH   2  14
TORSDOF 6
ENDMDL
MODEL 9
REMARK VINA RESULT:      -7.7      2.106      3.450
REMARK  Name = *****
REMARK                            x       y       z     vdW  Elec       q    Type
REMARK                         _______ _______ _______ _____ _____    ______ ____
ROOT
ATOM      1  C   LIG    1       29.498 -20.352   8.131  0.00  0.00    +0.105 C 
ATOM      2  N   LIG    1       28.427 -20.368   7.123  0.00  0.00    -0.297 NA
ENDROOT
BRANCH   2   3
ATOM      3  C   LIG    1       27.832 -21.722   7.103  0.00  0.00    +0.120 C 
BRANCH   3   4
ATOM      4  C   LIG    1       26.311 -21.773   7.141  0.00  0.00    -0.026 A 
ATOM      5  C   LIG    1       25.567 -22.953   6.854  0.00  0.00    -0.013 A 
ATOM      6  C   LIG    1       24.150 -22.900   6.923  0.00  0.00    -0.018 A 
ATOM      7  C   LIG    1       23.390 -24.059   6.704  0.00  0.00    +0.008 A 
ATOM      8  C   LIG    1       24.002 -25.280   6.433  0.00  0.00    +0.001 A 
ATOM      9  C   LIG    1       25.386 -25.346   6.333  0.00  0.00    +0.001 A 
ATOM     10  C   LIG    1       23.507 -21.692   7.228  0.00  0.00    +0.008 A 
ATOM     11  C   LIG    1       24.239 -20.542   7.503  0.00  0.00    +0.001 A 
ATOM     12  C   LIG    1       26.154 -24.194   6.520  0.00  0.00    +0.009 A 
ATOM     13  C   LIG    1       25.628 -20.585   7.469  0.00  0.00    +0.005 A 
ENDBRANCH   3   4
ENDBRANCH   2   3
BRANCH   2  14
ATOM     14  C   LIG    1       28.933 -19.990   5.792  0.00  0.00    +0.112 C 
BRANCH  14  15
ATOM     15  C   LIG    1       28.636 -18.559   5.436  0.00  0.00    -0.003 C 
ATOM     16  C   LIG    1       27.717 -18.223   4.519  0.00  0.00    +0.057 C 
BRANCH  16  17
ATOM     17  C   LIG    1       27.468 -16.882   4.132  0.00  0.00    -0.074 C 
ATOM     18  C   LIG    1       27.289 -15.726   3.891  0.00  0.00    -0.092 C 
BRANCH  18  19
ATOM     19  C   LIG    1       27.104 -14.275   3.658  0.00  0.00    +0.024 C 
ATOM     20  C   LIG    1       26.497 -14.051   2.268  0.00  0.00    +0.024 C 
ATOM     21  C   LIG    1       28.468 -13.575   3.749  0.00  0.00    +0.024 C 
ATOM     22  C   LIG    1       26.165 -13.710   4.732  0.00  0.00    +0.024 C 
ENDBRANCH  18  19
ENDBRANCH  16  17
ENDBRANCH  14  15
ENDBRANCH   2  14
TORSDOF 6
ENDMDL
