MODEL 1
REMARK VINA RESULT:      -2.4      0.000      0.000
REMARK  Name = *****
REMARK                            x       y       z     vdW  Elec       q    Type
REMARK                         _______ _______ _______ _____ _____    ______ ____
ROOT
ATOM      1  C   LIG    1       29.292 -18.048   5.486  0.00  0.00    +0.047 C 
ATOM      2  C   LIG    1       27.970 -17.844   4.805  0.00  0.00    -0.007 A 
ATOM      3  C   LIG    1       27.122 -18.899   4.458  0.00  0.00    +0.144 A 
ATOM      4  N   LIG    1       26.003 -18.635   3.747  0.00  0.00    -0.134 NA
ATOM      5  N   LIG    1       25.656 -17.349   3.374  0.00  0.00    -0.147 NA
ATOM      6  C   LIG    1       26.445 -16.307   3.698  0.00  0.00    +0.094 A 
ATOM      7  C   LIG    1       27.617 -16.543   4.405  0.00  0.00    +0.037 A 
ENDROOT
BRANCH   6   8
ATOM      8  C   LIG    1       25.999 -14.970   3.263  0.00  0.00    +0.002 A 
ATOM      9  C   LIG    1       24.711 -14.493   3.568  0.00  0.00    +0.010 A 
ATOM     10  C   LIG    1       24.285 -13.224   3.159  0.00  0.00    +0.001 A 
ATOM     11  C   LIG    1       25.143 -12.398   2.436  0.00  0.00    +0.000 A 
ATOM     12  C   LIG    1       26.422 -12.841   2.123  0.00  0.00    +0.001 A 
ATOM     13  C   LIG    1       26.844 -14.109   2.533  0.00  0.00    +0.010 A 
ENDBRANCH   6   8
BRANCH   3  14
ATOM     14  N   LIG    1       27.455 -20.227   4.794  0.00  0.00    -0.326 N 
ATOM     15  H   LIG    1       28.009 -20.254   5.648  0.00  0.00    +0.148 HD
BRANCH  14  16
ATOM     16  C   LIG    1       26.287 -21.111   4.899  0.00  0.00    +0.118 C 
BRANCH  16  17
ATOM     17  C   LIG    1       25.432 -20.786   6.147  0.00  0.00    +0.103 C 
BRANCH  17  18
ATOM     18  N   LIG    1       24.042 -21.296   6.152  0.00  0.00    -0.296 NA
ATOM     19  C   LIG    1       23.061 -20.386   6.784  0.00  0.00    +0.112 C 
ATOM     20  C   LIG    1       22.687 -19.155   5.941  0.00  0.00    +0.175 C 
ATOM     21  O   LIG    1       22.209 -19.539   4.646  0.00  0.00    -0.377 OA
ATOM     22  C   LIG    1       23.195 -20.315   3.958  0.00  0.00    +0.175 C 
ATOM     23  C   LIG    1       23.583 -21.571   4.765  0.00  0.00    +0.112 C 
ENDBRANCH  17  18
ENDBRANCH  16  17
ENDBRANCH  14  16
ENDBRANCH   3  14
TORSDOF 5
ENDMDL
MODEL 2
REMARK VINA RESULT:      -2.4      2.238      3.800
REMARK  Name = *****
REMARK                            x       y       z     vdW  Elec       q    Type
REMARK                         _______ _______ _______ _____ _____    ______ ____
ROOT
ATOM      1  C   LIG    1       22.194 -19.099   4.543  0.00  0.00    +0.047 C 
ATOM      2  C   LIG    1       23.499 -18.557   4.039  0.00  0.00    -0.007 A 
ATOM      3  C   LIG    1       24.598 -19.369   3.745  0.00  0.00    +0.144 A 
ATOM      4  N   LIG    1       25.771 -18.788   3.403  0.00  0.00    -0.134 NA
ATOM      5  N   LIG    1       25.911 -17.415   3.308  0.00  0.00    -0.147 NA
ATOM      6  C   LIG    1       24.870 -16.603   3.575  0.00  0.00    +0.094 A 
ATOM      7  C   LIG    1       23.658 -17.162   3.956  0.00  0.00    +0.037 A 
ENDROOT
BRANCH   6   8
ATOM      8  C   LIG    1       25.106 -15.152   3.446  0.00  0.00    +0.002 A 
ATOM      9  C   LIG    1       26.249 -14.650   2.799  0.00  0.00    +0.010 A 
ATOM     10  C   LIG    1       26.475 -13.274   2.673  0.00  0.00    +0.001 A 
ATOM     11  C   LIG    1       25.555 -12.365   3.191  0.00  0.00    +0.000 A 
ATOM     12  C   LIG    1       24.414 -12.832   3.832  0.00  0.00    +0.001 A 
ATOM     13  C   LIG    1       24.192 -14.206   3.957  0.00  0.00    +0.010 A 
ENDBRANCH   6   8
BRANCH   3  14
ATOM     14  N   LIG    1       24.505 -20.771   3.860  0.00  0.00    -0.326 N 
ATOM     15  H   LIG    1       25.126 -21.228   3.194  0.00  0.00    +0.148 HD
BRANCH  14  16
ATOM     16  C   LIG    1       24.746 -21.260   5.223  0.00  0.00    +0.118 C 
BRANCH  16  17
ATOM     17  C   LIG    1       26.250 -21.522   5.481  0.00  0.00    +0.103 C 
BRANCH  17  18
ATOM     18  N   LIG    1       26.770 -21.153   6.817  0.00  0.00    -0.296 NA
ATOM     19  C   LIG    1       28.174 -21.553   7.057  0.00  0.00    +0.112 C 
ATOM     20  C   LIG    1       29.222 -20.694   6.329  0.00  0.00    +0.175 C 
ATOM     21  O   LIG    1       29.066 -19.306   6.645  0.00  0.00    -0.377 OA
ATOM     22  C   LIG    1       27.750 -18.859   6.301  0.00  0.00    +0.175 C 
ATOM     23  C   LIG    1       26.670 -19.685   7.028  0.00  0.00    +0.112 C 
ENDBRANCH  17  18
ENDBRANCH  16  17
ENDBRANCH  14  16
ENDBRANCH   3  14
TORSDOF 5
ENDMDL
MODEL 3
REMARK VINA RESULT:      -1.5      2.160      6.550
REMARK  Name = *****
REMARK                            x       y       z     vdW  Elec       q    Type
REMARK                         _______ _______ _______ _____ _____    ______ ____
ROOT
ATOM      1  C   LIG    1       28.664 -18.556   5.149  0.00  0.00    +0.047 C 
ATOM      2  C   LIG    1       27.315 -18.321   4.536  0.00  0.00    -0.007 A 
ATOM      3  C   LIG    1       27.025 -17.212   3.736  0.00  0.00    +0.144 A 
ATOM      4  N   LIG    1       25.754 -17.019   3.317  0.00  0.00    -0.134 NA
ATOM      5  N   LIG    1       24.735 -17.900   3.631  0.00  0.00    -0.147 NA
ATOM      6  C   LIG    1       24.979 -18.984   4.392  0.00  0.00    +0.094 A 
ATOM      7  C   LIG    1       26.267 -19.200   4.865  0.00  0.00    +0.037 A 
ENDROOT
BRANCH   6   8
ATOM      8  C   LIG    1       23.836 -19.871   4.677  0.00  0.00    +0.002 A 
ATOM      9  C   LIG    1       23.835 -20.728   5.793  0.00  0.00    +0.010 A 
ATOM     10  C   LIG    1       22.752 -21.570   6.069  0.00  0.00    +0.001 A 
ATOM     11  C   LIG    1       21.637 -21.571   5.233  0.00  0.00    +0.000 A 
ATOM     12  C   LIG    1       21.609 -20.733   4.125  0.00  0.00    +0.001 A 
ATOM     13  C   LIG    1       22.692 -19.893   3.853  0.00  0.00    +0.010 A 
ENDBRANCH   6   8
BRANCH   3  14
ATOM     14  N   LIG    1       28.030 -16.275   3.418  0.00  0.00    -0.326 N 
ATOM     15  H   LIG    1       28.197 -16.255   2.414  0.00  0.00    +0.148 HD
BRANCH  14  16
ATOM     16  C   LIG    1       27.751 -14.927   3.930  0.00  0.00    +0.118 C 
BRANCH  16  17
ATOM     17  C   LIG    1       27.174 -14.004   2.831  0.00  0.00    +0.103 C 
BRANCH  17  18
ATOM     18  N   LIG    1       26.383 -12.838   3.288  0.00  0.00    -0.296 NA
ATOM     19  C   LIG    1       25.567 -12.203   2.231  0.00  0.00    +0.112 C 
ATOM     20  C   LIG    1       24.310 -12.991   1.824  0.00  0.00    +0.175 C 
ATOM     21  O   LIG    1       23.481 -13.267   2.958  0.00  0.00    -0.377 OA
ATOM     22  C   LIG    1       24.213 -13.999   3.947  0.00  0.00    +0.175 C 
ATOM     23  C   LIG    1       25.472 -13.230   4.396  0.00  0.00    +0.112 C 
ENDBRANCH  17  18
ENDBRANCH  16  17
ENDBRANCH  14  16
ENDBRANCH   3  14
TORSDOF 5
ENDMDL
MODEL 4
REMARK VINA RESULT:      -1.3      2.407      3.337
REMARK  Name = *****
REMARK                            x       y       z     vdW  Elec       q    Type
REMARK                         _______ _______ _______ _____ _____    ______ ____
ROOT
ATOM      1  C   LIG    1       25.032 -18.862   2.804  0.00  0.00    +0.047 C 
ATOM      2  C   LIG    1       24.788 -17.533   3.455  0.00  0.00    -0.007 A 
ATOM      3  C   LIG    1       23.542 -17.152   3.962  0.00  0.00    +0.144 A 
ATOM      4  N   LIG    1       23.381 -15.894   4.431  0.00  0.00    -0.134 NA
ATOM      5  N   LIG    1       24.419 -14.979   4.452  0.00  0.00    -0.147 NA
ATOM      6  C   LIG    1       25.635 -15.315   3.980  0.00  0.00    +0.094 A 
ATOM      7  C   LIG    1       25.830 -16.590   3.464  0.00  0.00    +0.037 A 
ENDROOT
BRANCH   6   8
ATOM      8  C   LIG    1       26.685 -14.281   4.042  0.00  0.00    +0.002 A 
ATOM      9  C   LIG    1       27.002 -13.631   5.248  0.00  0.00    +0.010 A 
ATOM     10  C   LIG    1       27.999 -12.650   5.311  0.00  0.00    +0.001 A 
ATOM     11  C   LIG    1       28.708 -12.299   4.164  0.00  0.00    +0.000 A 
ATOM     12  C   LIG    1       28.418 -12.927   2.959  0.00  0.00    +0.001 A 
ATOM     13  C   LIG    1       27.421 -13.905   2.899  0.00  0.00    +0.010 A 
ENDBRANCH   6   8
BRANCH   3  14
ATOM     14  N   LIG    1       22.451 -18.045   3.932  0.00  0.00    -0.326 N 
ATOM     15  H   LIG    1       22.422 -18.547   3.046  0.00  0.00    +0.148 HD
BRANCH  14  16
ATOM     16  C   LIG    1       22.432 -18.978   5.065  0.00  0.00    +0.118 C 
BRANCH  16  17
ATOM     17  C   LIG    1       21.914 -20.376   4.648  0.00  0.00    +0.103 C 
BRANCH  17  18
ATOM     18  N   LIG    1       22.741 -21.538   5.044  0.00  0.00    -0.296 NA
ATOM     19  C   LIG    1       24.083 -21.572   4.422  0.00  0.00    +0.112 C 
ATOM     20  C   LIG    1       25.089 -20.563   5.002  0.00  0.00    +0.175 C 
ATOM     21  O   LIG    1       25.222 -20.718   6.419  0.00  0.00    -0.377 OA
ATOM     22  C   LIG    1       23.952 -20.560   7.062  0.00  0.00    +0.175 C 
ATOM     23  C   LIG    1       22.920 -21.570   6.520  0.00  0.00    +0.112 C 
ENDBRANCH  17  18
ENDBRANCH  16  17
ENDBRANCH  14  16
ENDBRANCH   3  14
TORSDOF 5
ENDMDL
MODEL 5
REMARK VINA RESULT:      -1.2      1.433      2.079
REMARK  Name = *****
REMARK                            x       y       z     vdW  Elec       q    Type
REMARK                         _______ _______ _______ _____ _____    ______ ____
ROOT
ATOM      1  C   LIG    1       25.133 -19.321   3.044  0.00  0.00    +0.047 C 
ATOM      2  C   LIG    1       26.232 -18.436   3.552  0.00  0.00    -0.007 A 
ATOM      3  C   LIG    1       27.248 -18.893   4.397  0.00  0.00    +0.144 A 
ATOM      4  N   LIG    1       28.134 -18.003   4.898  0.00  0.00    -0.134 NA
ATOM      5  N   LIG    1       28.086 -16.658   4.579  0.00  0.00    -0.147 NA
ATOM      6  C   LIG    1       27.127 -16.185   3.761  0.00  0.00    +0.094 A 
ATOM      7  C   LIG    1       26.182 -17.064   3.249  0.00  0.00    +0.037 A 
ENDROOT
BRANCH   6   8
ATOM      8  C   LIG    1       27.150 -14.738   3.471  0.00  0.00    +0.002 A 
ATOM      9  C   LIG    1       28.186 -13.913   3.945  0.00  0.00    +0.010 A 
ATOM     10  C   LIG    1       28.213 -12.541   3.671  0.00  0.00    +0.001 A 
ATOM     11  C   LIG    1       27.201 -11.961   2.909  0.00  0.00    +0.000 A 
ATOM     12  C   LIG    1       26.166 -12.752   2.424  0.00  0.00    +0.001 A 
ATOM     13  C   LIG    1       26.143 -14.122   2.701  0.00  0.00    +0.010 A 
ENDBRANCH   6   8
BRANCH   3  14
ATOM     14  N   LIG    1       27.314 -20.251   4.770  0.00  0.00    -0.326 N 
ATOM     15  H   LIG    1       28.149 -20.689   4.386  0.00  0.00    +0.148 HD
BRANCH  14  16
ATOM     16  C   LIG    1       27.232 -20.460   6.222  0.00  0.00    +0.118 C 
BRANCH  16  17
ATOM     17  C   LIG    1       25.771 -20.403   6.728  0.00  0.00    +0.103 C 
BRANCH  17  18
ATOM     18  N   LIG    1       24.898 -21.545   6.372  0.00  0.00    -0.296 NA
ATOM     19  C   LIG    1       23.589 -21.550   7.062  0.00  0.00    +0.112 C 
ATOM     20  C   LIG    1       22.578 -20.517   6.536  0.00  0.00    +0.175 C 
ATOM     21  O   LIG    1       22.369 -20.666   5.127  0.00  0.00    -0.377 OA
ATOM     22  C   LIG    1       23.608 -20.535   4.421  0.00  0.00    +0.175 C 
ATOM     23  C   LIG    1       24.643 -21.569   4.908  0.00  0.00    +0.112 C 
ENDBRANCH  17  18
ENDBRANCH  16  17
ENDBRANCH  14  16
ENDBRANCH   3  14
TORSDOF 5
ENDMDL
MODEL 6
REMARK VINA RESULT:      -0.6      2.920      6.735
REMARK  Name = *****
REMARK                            x       y       z     vdW  Elec       q    Type
REMARK                         _______ _______ _______ _____ _____    ______ ____
ROOT
ATOM      1  C   LIG    1       28.606 -12.946   4.355  0.00  0.00    +0.047 C 
ATOM      2  C   LIG    1       27.978 -14.223   3.879  0.00  0.00    -0.007 A 
ATOM      3  C   LIG    1       27.018 -14.266   2.863  0.00  0.00    +0.144 A 
ATOM      4  N   LIG    1       26.422 -15.445   2.573  0.00  0.00    -0.134 NA
ATOM      5  N   LIG    1       26.752 -16.616   3.231  0.00  0.00    -0.147 NA
ATOM      6  C   LIG    1       27.678 -16.613   4.208  0.00  0.00    +0.094 A 
ATOM      7  C   LIG    1       28.292 -15.416   4.553  0.00  0.00    +0.037 A 
ENDROOT
BRANCH   6   8
ATOM      8  C   LIG    1       27.971 -17.906   4.856  0.00  0.00    +0.002 A 
ATOM      9  C   LIG    1       29.194 -18.137   5.511  0.00  0.00    +0.010 A 
ATOM     10  C   LIG    1       29.475 -19.361   6.129  0.00  0.00    +0.001 A 
ATOM     11  C   LIG    1       28.532 -20.386   6.108  0.00  0.00    +0.000 A 
ATOM     12  C   LIG    1       27.313 -20.186   5.471  0.00  0.00    +0.001 A 
ATOM     13  C   LIG    1       27.036 -18.962   4.855  0.00  0.00    +0.010 A 
ENDBRANCH   6   8
BRANCH   3  14
ATOM     14  N   LIG    1       26.633 -13.089   2.190  0.00  0.00    -0.326 N 
ATOM     15  H   LIG    1       27.226 -12.929   1.378  0.00  0.00    +0.148 HD
BRANCH  14  16
ATOM     16  C   LIG    1       25.213 -13.073   1.812  0.00  0.00    +0.118 C 
BRANCH  16  17
ATOM     17  C   LIG    1       24.474 -11.854   2.414  0.00  0.00    +0.103 C 
BRANCH  17  18
ATOM     18  N   LIG    1       23.480 -12.136   3.476  0.00  0.00    -0.296 NA
ATOM     19  C   LIG    1       23.127 -13.566   3.616  0.00  0.00    +0.112 C 
ATOM     20  C   LIG    1       24.203 -14.434   4.288  0.00  0.00    +0.175 C 
ATOM     21  O   LIG    1       24.566 -13.910   5.571  0.00  0.00    -0.377 OA
ATOM     22  C   LIG    1       25.037 -12.564   5.447  0.00  0.00    +0.175 C 
ATOM     23  C   LIG    1       23.976 -11.657   4.793  0.00  0.00    +0.112 C 
ENDBRANCH  17  18
ENDBRANCH  16  17
ENDBRANCH  14  16
ENDBRANCH   3  14
TORSDOF 5
ENDMDL
MODEL 7
REMARK VINA RESULT:      -0.4      2.110      3.263
REMARK  Name = *****
REMARK                            x       y       z     vdW  Elec       q    Type
REMARK                         _______ _______ _______ _____ _____    ______ ____
ROOT
ATOM      1  C   LIG    1       22.866 -15.994   4.134  0.00  0.00    +0.047 C 
ATOM      2  C   LIG    1       24.335 -16.125   3.857  0.00  0.00    -0.007 A 
ATOM      3  C   LIG    1       24.933 -17.330   3.477  0.00  0.00    +0.144 A 
ATOM      4  N   LIG    1       26.279 -17.385   3.356  0.00  0.00    -0.134 NA
ATOM      5  N   LIG    1       27.082 -16.279   3.570  0.00  0.00    -0.147 NA
ATOM      6  C   LIG    1       26.539 -15.100   3.928  0.00  0.00    +0.094 A 
ATOM      7  C   LIG    1       25.162 -15.012   4.089  0.00  0.00    +0.037 A 
ENDROOT
BRANCH   6   8
ATOM      8  C   LIG    1       27.467 -13.972   4.133  0.00  0.00    +0.002 A 
ATOM      9  C   LIG    1       28.285 -13.497   3.091  0.00  0.00    +0.010 A 
ATOM     10  C   LIG    1       29.165 -12.426   3.281  0.00  0.00    +0.001 A 
ATOM     11  C   LIG    1       29.245 -11.799   4.523  0.00  0.00    +0.000 A 
ATOM     12  C   LIG    1       28.447 -12.244   5.570  0.00  0.00    +0.001 A 
ATOM     13  C   LIG    1       27.569 -13.314   5.376  0.00  0.00    +0.010 A 
ENDBRANCH   6   8
BRANCH   3  14
ATOM     14  N   LIG    1       24.152 -18.487   3.279  0.00  0.00    -0.326 N 
ATOM     15  H   LIG    1       23.653 -18.437   2.393  0.00  0.00    +0.148 HD
BRANCH  14  16
ATOM     16  C   LIG    1       24.924 -19.733   3.377  0.00  0.00    +0.118 C 
BRANCH  16  17
ATOM     17  C   LIG    1       24.021 -20.980   3.219  0.00  0.00    +0.103 C 
BRANCH  17  18
ATOM     18  N   LIG    1       23.473 -21.567   4.463  0.00  0.00    -0.296 NA
ATOM     19  C   LIG    1       24.411 -21.558   5.606  0.00  0.00    +0.112 C 
ATOM     20  C   LIG    1       24.621 -20.182   6.259  0.00  0.00    +0.175 C 
ATOM     21  O   LIG    1       23.375 -19.605   6.667  0.00  0.00    -0.377 OA
ATOM     22  C   LIG    1       22.491 -19.481   5.548  0.00  0.00    +0.175 C 
ATOM     23  C   LIG    1       22.240 -20.847   4.878  0.00  0.00    +0.112 C 
ENDBRANCH  17  18
ENDBRANCH  16  17
ENDBRANCH  14  16
ENDBRANCH   3  14
TORSDOF 5
ENDMDL
MODEL 8
REMARK VINA RESULT:       0.2      3.088      7.385
REMARK  Name = *****
REMARK                            x       y       z     vdW  Elec       q    Type
REMARK                         _______ _______ _______ _____ _____    ______ ____
ROOT
ATOM      1  C   LIG    1       22.718 -13.941   4.802  0.00  0.00    +0.047 C 
ATOM      2  C   LIG    1       23.611 -15.032   4.287  0.00  0.00    -0.007 A 
ATOM      3  C   LIG    1       24.700 -14.790   3.446  0.00  0.00    +0.144 A 
ATOM      4  N   LIG    1       25.384 -15.840   2.938  0.00  0.00    -0.134 NA
ATOM      5  N   LIG    1       25.057 -17.148   3.248  0.00  0.00    -0.147 NA
ATOM      6  C   LIG    1       24.019 -17.418   4.063  0.00  0.00    +0.094 A 
ATOM      7  C   LIG    1       23.276 -16.365   4.581  0.00  0.00    +0.037 A 
ENDROOT
BRANCH   6   8
ATOM      8  C   LIG    1       23.741 -18.840   4.343  0.00  0.00    +0.002 A 
ATOM      9  C   LIG    1       22.525 -19.248   4.919  0.00  0.00    +0.010 A 
ATOM     10  C   LIG    1       22.256 -20.596   5.184  0.00  0.00    +0.001 A 
ATOM     11  C   LIG    1       23.202 -21.571   4.873  0.00  0.00    +0.000 A 
ATOM     12  C   LIG    1       24.411 -21.198   4.300  0.00  0.00    +0.001 A 
ATOM     13  C   LIG    1       24.676 -19.851   4.037  0.00  0.00    +0.010 A 
ENDBRANCH   6   8
BRANCH   3  14
ATOM     14  N   LIG    1       25.047 -13.473   3.082  0.00  0.00    -0.326 N 
ATOM     15  H   LIG    1       25.290 -12.925   3.905  0.00  0.00    +0.148 HD
BRANCH  14  16
ATOM     16  C   LIG    1       26.115 -13.409   2.076  0.00  0.00    +0.118 C 
BRANCH  16  17
ATOM     17  C   LIG    1       27.341 -12.618   2.591  0.00  0.00    +0.103 C 
BRANCH  17  18
ATOM     18  N   LIG    1       28.387 -13.396   3.294  0.00  0.00    -0.296 NA
ATOM     19  C   LIG    1       29.456 -12.572   3.901  0.00  0.00    +0.112 C 
ATOM     20  C   LIG    1       29.046 -11.823   5.180  0.00  0.00    +0.175 C 
ATOM     21  O   LIG    1       28.529 -12.724   6.166  0.00  0.00    -0.377 OA
ATOM     22  C   LIG    1       27.406 -13.444   5.645  0.00  0.00    +0.175 C 
ATOM     23  C   LIG    1       27.783 -14.225   4.371  0.00  0.00    +0.112 C 
ENDBRANCH  17  18
ENDBRANCH  16  17
ENDBRANCH  14  16
ENDBRANCH   3  14
TORSDOF 5
ENDMDL
MODEL 9
REMARK VINA RESULT:       0.3      3.344      7.499
REMARK  Name = *****
REMARK                            x       y       z     vdW  Elec       q    Type
REMARK                         _______ _______ _______ _____ _____    ______ ____
ROOT
ATOM      1  C   LIG    1       21.632 -14.433   6.325  0.00  0.00    +0.047 C 
ATOM      2  C   LIG    1       22.589 -15.156   5.423  0.00  0.00    -0.007 A 
ATOM      3  C   LIG    1       23.479 -14.494   4.572  0.00  0.00    +0.144 A 
ATOM      4  N   LIG    1       24.227 -15.221   3.711  0.00  0.00    -0.134 NA
ATOM      5  N   LIG    1       24.160 -16.602   3.664  0.00  0.00    -0.147 NA
ATOM      6  C   LIG    1       23.320 -17.273   4.476  0.00  0.00    +0.094 A 
ATOM      7  C   LIG    1       22.515 -16.558   5.354  0.00  0.00    +0.037 A 
ENDROOT
BRANCH   6   8
ATOM      8  C   LIG    1       23.313 -18.744   4.362  0.00  0.00    +0.002 A 
ATOM      9  C   LIG    1       24.151 -19.411   3.450  0.00  0.00    +0.010 A 
ATOM     10  C   LIG    1       24.149 -20.807   3.341  0.00  0.00    +0.001 A 
ATOM     11  C   LIG    1       23.307 -21.570   4.148  0.00  0.00    +0.000 A 
ATOM     12  C   LIG    1       22.471 -20.938   5.060  0.00  0.00    +0.001 A 
ATOM     13  C   LIG    1       22.475 -19.544   5.166  0.00  0.00    +0.010 A 
ENDBRANCH   6   8
BRANCH   3  14
ATOM     14  N   LIG    1       23.556 -13.087   4.568  0.00  0.00    -0.326 N 
ATOM     15  H   LIG    1       23.429 -12.717   5.508  0.00  0.00    +0.148 HD
BRANCH  14  16
ATOM     16  C   LIG    1       24.793 -12.573   3.966  0.00  0.00    +0.118 C 
BRANCH  16  17
ATOM     17  C   LIG    1       25.897 -12.348   5.028  0.00  0.00    +0.103 C 
BRANCH  17  18
ATOM     18  N   LIG    1       26.863 -13.453   5.228  0.00  0.00    -0.296 NA
ATOM     19  C   LIG    1       27.084 -14.294   4.031  0.00  0.00    +0.112 C 
ATOM     20  C   LIG    1       27.942 -13.642   2.933  0.00  0.00    +0.175 C 
ATOM     21  O   LIG    1       29.207 -13.214   3.450  0.00  0.00    -0.377 OA
ATOM     22  C   LIG    1       29.022 -12.293   4.530  0.00  0.00    +0.175 C 
ATOM     23  C   LIG    1       28.181 -12.919   5.661  0.00  0.00    +0.112 C 
ENDBRANCH  17  18
ENDBRANCH  16  17
ENDBRANCH  14  16
ENDBRANCH   3  14
TORSDOF 5
ENDMDL
