MODEL 1
REMARK VINA RESULT:      -4.9      0.000      0.000
REMARK  Name = *****
REMARK                            x       y       z     vdW  Elec       q    Type
REMARK                         _______ _______ _______ _____ _____    ______ ____
ROOT
ATOM      1  C   LIG    1       25.720 -19.582   3.715  0.00  0.00    +0.149 C 
ATOM      2  N   LIG    1       24.897 -20.110   4.810  0.00  0.00    -0.349 N 
ATOM      3  C   LIG    1       25.456 -20.513   6.060  0.00  0.00    +0.063 C 
ATOM      4  C   LIG    1       26.751 -20.500   6.464  0.00  0.00    +0.183 C 
ATOM      5  C   LIG    1       24.487 -21.020   7.061  0.00  0.00    +0.027 C 
ATOM      6  C   LIG    1       23.170 -21.095   6.808  0.00  0.00    +0.003 C 
ATOM      7  C   LIG    1       22.655 -20.678   5.528  0.00  0.00    +0.018 C 
ATOM      8  C   LIG    1       23.516 -20.216   4.611  0.00  0.00    +0.086 C 
ENDROOT
BRANCH   4   9
ATOM      9  N   LIG    1       27.787 -20.090   5.733  0.00  0.00    -0.036 NA
ATOM     10  O   LIG    1       28.886 -20.445   6.172  0.00  0.00    -0.144 OA
ENDBRANCH   4   9
TORSDOF 1
ENDMDL
MODEL 2
REMARK VINA RESULT:      -4.7      1.358      2.511
REMARK  Name = *****
REMARK                            x       y       z     vdW  Elec       q    Type
REMARK                         _______ _______ _______ _____ _____    ______ ____
ROOT
ATOM      1  C   LIG    1       23.641 -21.519   7.043  0.00  0.00    +0.149 C 
ATOM      2  N   LIG    1       23.778 -20.634   5.879  0.00  0.00    -0.349 N 
ATOM      3  C   LIG    1       25.045 -20.331   5.295  0.00  0.00    +0.063 C 
ATOM      4  C   LIG    1       26.281 -20.753   5.661  0.00  0.00    +0.183 C 
ATOM      5  C   LIG    1       25.008 -19.424   4.123  0.00  0.00    +0.027 C 
ATOM      6  C   LIG    1       23.860 -18.921   3.643  0.00  0.00    +0.003 C 
ATOM      7  C   LIG    1       22.606 -19.255   4.270  0.00  0.00    +0.018 C 
ATOM      8  C   LIG    1       22.619 -20.075   5.330  0.00  0.00    +0.086 C 
ENDROOT
BRANCH   4   9
ATOM      9  N   LIG    1       26.551 -21.568   6.681  0.00  0.00    -0.036 NA
ATOM     10  O   LIG    1       27.726 -21.526   7.061  0.00  0.00    -0.144 OA
ENDBRANCH   4   9
TORSDOF 1
ENDMDL
MODEL 3
REMARK VINA RESULT:      -4.6      1.982      2.869
REMARK  Name = *****
REMARK                            x       y       z     vdW  Elec       q    Type
REMARK                         _______ _______ _______ _____ _____    ______ ____
ROOT
ATOM      1  C   LIG    1       26.832 -20.071   5.529  0.00  0.00    +0.149 C 
ATOM      2  N   LIG    1       25.410 -20.403   5.691  0.00  0.00    -0.349 N 
ATOM      3  C   LIG    1       24.415 -19.973   4.762  0.00  0.00    +0.063 C 
ATOM      4  C   LIG    1       24.556 -19.232   3.636  0.00  0.00    +0.183 C 
ATOM      5  C   LIG    1       23.028 -20.397   5.070  0.00  0.00    +0.027 C 
ATOM      6  C   LIG    1       22.728 -21.133   6.152  0.00  0.00    +0.003 C 
ATOM      7  C   LIG    1       23.769 -21.539   7.062  0.00  0.00    +0.018 C 
ATOM      8  C   LIG    1       25.029 -21.167   6.799  0.00  0.00    +0.086 C 
ENDROOT
BRANCH   4   9
ATOM      9  N   LIG    1       25.705 -18.744   3.168  0.00  0.00    -0.036 NA
ATOM     10  O   LIG    1       25.795 -17.513   3.236  0.00  0.00    -0.144 OA
ENDBRANCH   4   9
TORSDOF 1
ENDMDL
MODEL 4
REMARK VINA RESULT:      -4.5      2.217      2.747
REMARK  Name = *****
REMARK                            x       y       z     vdW  Elec       q    Type
REMARK                         _______ _______ _______ _____ _____    ______ ____
ROOT
ATOM      1  C   LIG    1       22.701 -18.961   4.353  0.00  0.00    +0.149 C 
ATOM      2  N   LIG    1       23.518 -19.842   5.198  0.00  0.00    -0.349 N 
ATOM      3  C   LIG    1       24.926 -19.989   5.011  0.00  0.00    +0.063 C 
ATOM      4  C   LIG    1       25.735 -19.403   4.094  0.00  0.00    +0.183 C 
ATOM      5  C   LIG    1       25.602 -20.914   5.952  0.00  0.00    +0.027 C 
ATOM      6  C   LIG    1       24.935 -21.572   6.914  0.00  0.00    +0.003 C 
ATOM      7  C   LIG    1       23.512 -21.391   7.059  0.00  0.00    +0.018 C 
ATOM      8  C   LIG    1       22.884 -20.558   6.219  0.00  0.00    +0.086 C 
ENDROOT
BRANCH   4   9
ATOM      9  N   LIG    1       25.345 -18.542   3.155  0.00  0.00    -0.036 NA
ATOM     10  O   LIG    1       25.981 -17.482   3.147  0.00  0.00    -0.144 OA
ENDBRANCH   4   9
TORSDOF 1
ENDMDL
MODEL 5
REMARK VINA RESULT:      -4.4      2.710      3.784
REMARK  Name = *****
REMARK                            x       y       z     vdW  Elec       q    Type
REMARK                         _______ _______ _______ _____ _____    ______ ____
ROOT
ATOM      1  C   LIG    1       25.040 -19.010   3.637  0.00  0.00    +0.149 C 
ATOM      2  N   LIG    1       24.883 -19.874   4.815  0.00  0.00    -0.349 N 
ATOM      3  C   LIG    1       23.622 -20.068   5.457  0.00  0.00    +0.063 C 
ATOM      4  C   LIG    1       22.412 -19.540   5.147  0.00  0.00    +0.183 C 
ATOM      5  C   LIG    1       23.636 -20.973   6.630  0.00  0.00    +0.027 C 
ATOM      6  C   LIG    1       24.758 -21.570   7.062  0.00  0.00    +0.003 C 
ATOM      7  C   LIG    1       26.007 -21.339   6.380  0.00  0.00    +0.018 C 
ATOM      8  C   LIG    1       26.015 -20.525   5.317  0.00  0.00    +0.086 C 
ENDROOT
BRANCH   4   9
ATOM      9  N   LIG    1       22.166 -18.704   4.139  0.00  0.00    -0.036 NA
ATOM     10  O   LIG    1       22.071 -17.519   4.477  0.00  0.00    -0.144 OA
ENDBRANCH   4   9
TORSDOF 1
ENDMDL
MODEL 6
REMARK VINA RESULT:      -4.2      2.516      4.036
REMARK  Name = *****
REMARK                            x       y       z     vdW  Elec       q    Type
REMARK                         _______ _______ _______ _____ _____    ______ ____
ROOT
ATOM      1  C   LIG    1       23.927 -21.560   5.872  0.00  0.00    +0.149 C 
ATOM      2  N   LIG    1       25.312 -21.073   5.916  0.00  0.00    -0.349 N 
ATOM      3  C   LIG    1       25.815 -20.116   4.983  0.00  0.00    +0.063 C 
ATOM      4  C   LIG    1       25.180 -19.511   3.949  0.00  0.00    +0.183 C 
ATOM      5  C   LIG    1       27.234 -19.728   5.168  0.00  0.00    +0.027 C 
ATOM      6  C   LIG    1       27.995 -20.243   6.147  0.00  0.00    +0.003 C 
ATOM      7  C   LIG    1       27.440 -21.209   7.062  0.00  0.00    +0.018 C 
ATOM      8  C   LIG    1       26.159 -21.571   6.911  0.00  0.00    +0.086 C 
ENDROOT
BRANCH   4   9
ATOM      9  N   LIG    1       23.910 -19.708   3.597  0.00  0.00    -0.036 NA
ATOM     10  O   LIG    1       23.160 -18.762   3.862  0.00  0.00    -0.144 OA
ENDBRANCH   4   9
TORSDOF 1
ENDMDL
MODEL 7
REMARK VINA RESULT:      -3.8      6.908      7.950
REMARK  Name = *****
REMARK                            x       y       z     vdW  Elec       q    Type
REMARK                         _______ _______ _______ _____ _____    ______ ____
ROOT
ATOM      1  C   LIG    1       25.998 -13.666   5.571  0.00  0.00    +0.149 C 
ATOM      2  N   LIG    1       25.301 -13.009   4.458  0.00  0.00    -0.349 N 
ATOM      3  C   LIG    1       25.636 -13.259   3.093  0.00  0.00    +0.063 C 
ATOM      4  C   LIG    1       26.587 -14.079   2.580  0.00  0.00    +0.183 C 
ATOM      5  C   LIG    1       24.833 -12.518   2.091  0.00  0.00    +0.027 C 
ATOM      6  C   LIG    1       23.857 -11.667   2.444  0.00  0.00    +0.003 C 
ATOM      7  C   LIG    1       23.558 -11.447   3.837  0.00  0.00    +0.018 C 
ATOM      8  C   LIG    1       24.273 -12.109   4.757  0.00  0.00    +0.086 C 
ENDROOT
BRANCH   4   9
ATOM      9  N   LIG    1       27.422 -14.837   3.290  0.00  0.00    -0.036 NA
ATOM     10  O   LIG    1       27.064 -16.015   3.402  0.00  0.00    -0.144 OA
ENDBRANCH   4   9
TORSDOF 1
ENDMDL
MODEL 8
REMARK VINA RESULT:      -3.7      7.178      7.780
REMARK  Name = *****
REMARK                            x       y       z     vdW  Elec       q    Type
REMARK                         _______ _______ _______ _____ _____    ______ ____
ROOT
ATOM      1  C   LIG    1       26.723 -13.704   5.788  0.00  0.00    +0.149 C 
ATOM      2  N   LIG    1       25.963 -13.557   4.539  0.00  0.00    -0.349 N 
ATOM      3  C   LIG    1       26.598 -13.313   3.283  0.00  0.00    +0.063 C 
ATOM      4  C   LIG    1       27.917 -13.174   3.002  0.00  0.00    +0.183 C 
ATOM      5  C   LIG    1       25.688 -13.195   2.120  0.00  0.00    +0.027 C 
ATOM      6  C   LIG    1       24.355 -13.307   2.238  0.00  0.00    +0.003 C 
ATOM      7  C   LIG    1       23.763 -13.550   3.530  0.00  0.00    +0.018 C 
ATOM      8  C   LIG    1       24.570 -13.661   4.593  0.00  0.00    +0.086 C 
ENDROOT
BRANCH   4   9
ATOM      9  N   LIG    1       28.910 -13.242   3.889  0.00  0.00    -0.036 NA
ATOM     10  O   LIG    1       29.184 -12.161   4.424  0.00  0.00    -0.144 OA
ENDBRANCH   4   9
TORSDOF 1
ENDMDL
MODEL 9
REMARK VINA RESULT:      -3.6      2.419      3.282
REMARK  Name = *****
REMARK                            x       y       z     vdW  Elec       q    Type
REMARK                         _______ _______ _______ _____ _____    ______ ____
ROOT
ATOM      1  C   LIG    1       27.549 -19.162   5.212  0.00  0.00    +0.149 C 
ATOM      2  N   LIG    1       26.229 -19.780   5.026  0.00  0.00    -0.349 N 
ATOM      3  C   LIG    1       25.267 -19.264   4.105  0.00  0.00    +0.063 C 
ATOM      4  C   LIG    1       25.357 -18.188   3.285  0.00  0.00    +0.183 C 
ATOM      5  C   LIG    1       23.987 -20.007   4.036  0.00  0.00    +0.027 C 
ATOM      6  C   LIG    1       23.747 -21.092   4.789  0.00  0.00    +0.003 C 
ATOM      7  C   LIG    1       24.750 -21.572   5.706  0.00  0.00    +0.018 C 
ATOM      8  C   LIG    1       25.914 -20.914   5.782  0.00  0.00    +0.086 C 
ENDROOT
BRANCH   4   9
ATOM      9  N   LIG    1       26.409 -17.377   3.182  0.00  0.00    -0.036 NA
ATOM     10  O   LIG    1       26.140 -16.179   3.331  0.00  0.00    -0.144 OA
ENDBRANCH   4   9
TORSDOF 1
ENDMDL
