MODEL 1
REMARK VINA RESULT:      -6.3      0.000      0.000
REMARK  Name = *****
REMARK                            x       y       z     vdW  Elec       q    Type
REMARK                         _______ _______ _______ _____ _____    ______ ____
ROOT
ATOM      1  C   LIG    1       25.103 -27.209   6.814  0.00  0.00    +0.105 C 
ATOM      2  C   LIG    1       25.883 -27.677   7.900  0.00  0.00    +0.171 C 
ATOM      3  F   LIG    1       26.591 -26.771   8.599  0.00  0.00    -0.201 F 
ATOM      4  C   LIG    1       25.942 -29.040   8.285  0.00  0.00    +0.092 C 
ATOM      5  C   LIG    1       25.241 -29.981   7.498  0.00  0.00    +0.072 C 
ATOM      6  C   LIG    1       25.364 -31.434   7.830  0.00  0.00    +0.205 C 
ATOM      7  C   LIG    1       26.220 -31.840   8.964  0.00  0.00    +0.122 C 
ATOM      8  C   LIG    1       26.797 -30.857   9.665  0.00  0.00    +0.105 C 
ATOM      9  O   LIG    1       24.802 -32.312   7.176  0.00  0.00    -0.286 OA
ATOM     10  C   LIG    1       24.461 -29.568   6.402  0.00  0.00    +0.075 C 
ATOM     11  N   LIG    1       26.661 -29.501   9.434  0.00  0.00    -0.340 NA
ATOM     12  C   LIG    1       24.383 -28.190   6.112  0.00  0.00    +0.168 C 
ATOM     13  F   LIG    1       23.603 -27.835   5.074  0.00  0.00    -0.202 F 
ENDROOT
BRANCH   1  21
ATOM     14  C   LIG    1       22.957 -23.426   6.811  0.00  0.00    +0.025 C 
ATOM     15  C   LIG    1       23.845 -23.819   5.628  0.00  0.00    +0.068 C 
ATOM     16  N   LIG    1       25.105 -23.038   5.589  0.00  0.00    -0.308 NA
ATOM     17  H   LIG    1       25.438 -23.056   4.624  0.00  0.00    +0.122 HD
ATOM     18  C   LIG    1       26.183 -23.613   6.433  0.00  0.00    +0.068 C 
ATOM     19  C   LIG    1       26.068 -23.152   7.888  0.00  0.00    +0.025 C 
ATOM     20  C   LIG    1       26.338 -25.159   6.337  0.00  0.00    +0.123 C 
ATOM     21  N   LIG    1       25.031 -25.827   6.530  0.00  0.00    -0.322 NA
ATOM     22  C   LIG    1       24.027 -25.361   5.550  0.00  0.00    +0.123 C 
ENDBRANCH   1  21
BRANCH  10  23
ATOM     23  N   LIG    1       23.572 -30.441   5.738  0.00  0.00    -0.355 NA
ATOM     24  H   LIG    1       23.179 -30.054   4.875  0.00  0.00    +0.142 HD
ATOM     25  H   LIG    1       22.882 -30.873   6.347  0.00  0.00    +0.142 HD
ENDBRANCH  10  23
BRANCH  11  26
ATOM     26  C   LIG    1       26.991 -28.587  10.550  0.00  0.00    +0.088 C 
ATOM     27  C   LIG    1       26.287 -28.712  11.882  0.00  0.00    +0.027 C 
ATOM     28  C   LIG    1       27.742 -29.043  11.785  0.00  0.00    +0.027 C 
ENDBRANCH  11  26
BRANCH   7  29
ATOM     29  C   LIG    1       26.431 -33.238   9.386  0.00  0.00    +0.342 C 
ATOM     30  O   LIG    1       27.504 -33.824   9.269  0.00  0.00    -0.245 OA
BRANCH  29  31
ATOM     31  O   LIG    1       25.354 -33.823   9.950  0.00  0.00    -0.477 OA
ATOM     32  H   LIG    1       25.551 -34.690  10.382  0.00  0.00    +0.295 HD
ENDBRANCH  29  31
ENDBRANCH   7  29
TORSDOF 5
ENDMDL
MODEL 2
REMARK VINA RESULT:      -6.3      2.843      6.033
REMARK  Name = *****
REMARK                            x       y       z     vdW  Elec       q    Type
REMARK                         _______ _______ _______ _____ _____    ______ ____
ROOT
ATOM      1  C   LIG    1       25.349 -30.382  10.315  0.00  0.00    +0.105 C 
ATOM      2  C   LIG    1       25.188 -29.748   9.059  0.00  0.00    +0.171 C 
ATOM      3  F   LIG    1       24.895 -28.435   9.053  0.00  0.00    -0.201 F 
ATOM      4  C   LIG    1       25.330 -30.426   7.821  0.00  0.00    +0.092 C 
ATOM      5  C   LIG    1       25.575 -31.816   7.853  0.00  0.00    +0.072 C 
ATOM      6  C   LIG    1       25.636 -32.567   6.561  0.00  0.00    +0.205 C 
ATOM      7  C   LIG    1       25.431 -31.834   5.295  0.00  0.00    +0.122 C 
ATOM      8  C   LIG    1       25.254 -30.511   5.388  0.00  0.00    +0.105 C 
ATOM      9  O   LIG    1       25.822 -33.783   6.511  0.00  0.00    -0.286 OA
ATOM     10  C   LIG    1       25.731 -32.495   9.076  0.00  0.00    +0.075 C 
ATOM     11  N   LIG    1       25.253 -29.767   6.553  0.00  0.00    -0.340 NA
ATOM     12  C   LIG    1       25.651 -31.753  10.273  0.00  0.00    +0.168 C 
ATOM     13  F   LIG    1       25.836 -32.435  11.418  0.00  0.00    -0.202 F 
ENDROOT
BRANCH   1  21
ATOM     14  C   LIG    1       26.305 -26.856  12.674  0.00  0.00    +0.025 C 
ATOM     15  C   LIG    1       26.293 -28.244  13.319  0.00  0.00    +0.068 C 
ATOM     16  N   LIG    1       25.116 -28.443  14.199  0.00  0.00    -0.308 NA
ATOM     17  H   LIG    1       25.362 -29.176  14.865  0.00  0.00    +0.122 HD
ATOM     18  C   LIG    1       23.906 -28.902  13.473  0.00  0.00    +0.068 C 
ATOM     19  C   LIG    1       23.125 -27.729  12.876  0.00  0.00    +0.025 C 
ATOM     20  C   LIG    1       24.158 -30.015  12.413  0.00  0.00    +0.123 C 
ATOM     21  N   LIG    1       25.267 -29.632  11.509  0.00  0.00    -0.322 NA
ATOM     22  C   LIG    1       26.513 -29.358  12.256  0.00  0.00    +0.123 C 
ENDBRANCH   1  21
BRANCH  10  23
ATOM     23  N   LIG    1       26.199 -33.825   9.145  0.00  0.00    -0.355 NA
ATOM     24  H   LIG    1       26.310 -34.274   8.231  0.00  0.00    +0.142 HD
ATOM     25  H   LIG    1       25.716 -34.401   9.829  0.00  0.00    +0.142 HD
ENDBRANCH  10  23
BRANCH  11  26
ATOM     26  C   LIG    1       25.492 -28.311   6.428  0.00  0.00    +0.088 C 
ATOM     27  C   LIG    1       25.516 -27.649   5.069  0.00  0.00    +0.027 C 
ATOM     28  C   LIG    1       24.405 -27.338   6.020  0.00  0.00    +0.027 C 
ENDBRANCH  11  26
BRANCH   7  29
ATOM     29  C   LIG    1       25.458 -32.460   3.959  0.00  0.00    +0.342 C 
ATOM     30  O   LIG    1       26.384 -32.318   3.166  0.00  0.00    -0.245 OA
BRANCH  29  31
ATOM     31  O   LIG    1       24.391 -33.238   3.682  0.00  0.00    -0.477 OA
ATOM     32  H   LIG    1       24.597 -33.999   3.085  0.00  0.00    +0.295 HD
ENDBRANCH  29  31
ENDBRANCH   7  29
TORSDOF 5
ENDMDL
MODEL 3
REMARK VINA RESULT:      -6.2      5.718      7.334
REMARK  Name = *****
REMARK                            x       y       z     vdW  Elec       q    Type
REMARK                         _______ _______ _______ _____ _____    ______ ____
ROOT
ATOM      1  C   LIG    1       22.833 -30.992  10.155  0.00  0.00    +0.105 C 
ATOM      2  C   LIG    1       22.461 -30.062  11.156  0.00  0.00    +0.171 C 
ATOM      3  F   LIG    1       23.326 -29.071  11.441  0.00  0.00    -0.201 F 
ATOM      4  C   LIG    1       21.229 -30.120  11.855  0.00  0.00    +0.092 C 
ATOM      5  C   LIG    1       20.366 -31.204  11.584  0.00  0.00    +0.072 C 
ATOM      6  C   LIG    1       19.103 -31.336  12.375  0.00  0.00    +0.205 C 
ATOM      7  C   LIG    1       18.804 -30.335  13.420  0.00  0.00    +0.122 C 
ATOM      8  C   LIG    1       19.673 -29.327  13.554  0.00  0.00    +0.105 C 
ATOM      9  O   LIG    1       18.314 -32.267  12.211  0.00  0.00    -0.286 OA
ATOM     10  C   LIG    1       20.694 -32.163  10.607  0.00  0.00    +0.075 C 
ATOM     11  N   LIG    1       20.817 -29.130  12.804  0.00  0.00    -0.340 NA
ATOM     12  C   LIG    1       21.901 -32.011   9.893  0.00  0.00    +0.168 C 
ATOM     13  F   LIG    1       22.162 -32.932   8.947  0.00  0.00    -0.202 F 
ENDROOT
BRANCH   1  21
ATOM     14  C   LIG    1       25.436 -28.709   7.525  0.00  0.00    +0.025 C 
ATOM     15  C   LIG    1       25.334 -30.229   7.390  0.00  0.00    +0.068 C 
ATOM     16  N   LIG    1       26.545 -30.920   7.894  0.00  0.00    -0.308 NA
ATOM     17  H   LIG    1       26.582 -31.832   7.436  0.00  0.00    +0.122 HD
ATOM     18  C   LIG    1       26.517 -31.170   9.357  0.00  0.00    +0.068 C 
ATOM     19  C   LIG    1       27.012 -29.956  10.147  0.00  0.00    +0.025 C 
ATOM     20  C   LIG    1       25.158 -31.691   9.909  0.00  0.00    +0.123 C 
ATOM     21  N   LIG    1       24.044 -30.834   9.445  0.00  0.00    -0.322 NA
ATOM     22  C   LIG    1       23.990 -30.755   7.970  0.00  0.00    +0.123 C 
ENDBRANCH   1  21
BRANCH  10  23
ATOM     23  N   LIG    1       19.764 -33.121  10.149  0.00  0.00    -0.355 NA
ATOM     24  H   LIG    1       20.114 -34.083  10.172  0.00  0.00    +0.142 HD
ATOM     25  H   LIG    1       19.305 -32.871   9.277  0.00  0.00    +0.142 HD
ENDBRANCH  10  23
BRANCH  11  26
ATOM     26  C   LIG    1       21.390 -27.765  12.786  0.00  0.00    +0.088 C 
ATOM     27  C   LIG    1       20.890 -26.709  13.745  0.00  0.00    +0.027 C 
ATOM     28  C   LIG    1       22.280 -27.239  13.894  0.00  0.00    +0.027 C 
ENDBRANCH  11  26
BRANCH   7  29
ATOM     29  C   LIG    1       17.600 -30.360  14.273  0.00  0.00    +0.342 C 
ATOM     30  O   LIG    1       17.643 -30.385  15.500  0.00  0.00    -0.245 OA
BRANCH  29  31
ATOM     31  O   LIG    1       16.433 -30.318  13.598  0.00  0.00    -0.477 OA
ATOM     32  H   LIG    1       16.309 -31.069  12.968  0.00  0.00    +0.295 HD
ENDBRANCH  29  31
ENDBRANCH   7  29
TORSDOF 5
ENDMDL
MODEL 4
REMARK VINA RESULT:      -6.1      4.946      7.570
REMARK  Name = *****
REMARK                            x       y       z     vdW  Elec       q    Type
REMARK                         _______ _______ _______ _____ _____    ______ ____
ROOT
ATOM      1  C   LIG    1       24.536 -30.101  10.080  0.00  0.00    +0.105 C 
ATOM      2  C   LIG    1       23.161 -30.293  10.359  0.00  0.00    +0.171 C 
ATOM      3  F   LIG    1       22.445 -31.037   9.495  0.00  0.00    -0.201 F 
ATOM      4  C   LIG    1       22.514 -29.752  11.499  0.00  0.00    +0.092 C 
ATOM      5  C   LIG    1       23.270 -28.923  12.356  0.00  0.00    +0.072 C 
ATOM      6  C   LIG    1       22.585 -28.266  13.513  0.00  0.00    +0.205 C 
ATOM      7  C   LIG    1       21.141 -28.499  13.717  0.00  0.00    +0.122 C 
ATOM      8  C   LIG    1       20.541 -29.341  12.868  0.00  0.00    +0.105 C 
ATOM      9  O   LIG    1       23.174 -27.512  14.289  0.00  0.00    -0.286 OA
ATOM     10  C   LIG    1       24.637 -28.691  12.117  0.00  0.00    +0.075 C 
ATOM     11  N   LIG    1       21.146 -30.017  11.825  0.00  0.00    -0.340 NA
ATOM     12  C   LIG    1       25.242 -29.316  11.007  0.00  0.00    +0.168 C 
ATOM     13  F   LIG    1       26.558 -29.092  10.832  0.00  0.00    -0.202 F 
ENDROOT
BRANCH   1  21
ATOM     14  C   LIG    1       25.960 -33.657   8.023  0.00  0.00    +0.025 C 
ATOM     15  C   LIG    1       26.747 -32.347   7.947  0.00  0.00    +0.068 C 
ATOM     16  N   LIG    1       26.628 -31.697   6.620  0.00  0.00    -0.308 NA
ATOM     17  H   LIG    1       27.441 -31.089   6.511  0.00  0.00    +0.122 HD
ATOM     18  C   LIG    1       25.423 -30.840   6.487  0.00  0.00    +0.068 C 
ATOM     19  C   LIG    1       24.193 -31.654   6.079  0.00  0.00    +0.025 C 
ATOM     20  C   LIG    1       25.123 -29.934   7.718  0.00  0.00    +0.123 C 
ATOM     21  N   LIG    1       25.134 -30.730   8.966  0.00  0.00    -0.322 NA
ATOM     22  C   LIG    1       26.423 -31.428   9.159  0.00  0.00    +0.123 C 
ENDBRANCH   1  21
BRANCH  10  23
ATOM     23  N   LIG    1       25.472 -28.062  13.066  0.00  0.00    -0.355 NA
ATOM     24  H   LIG    1       25.322 -28.382  14.028  0.00  0.00    +0.142 HD
ATOM     25  H   LIG    1       25.521 -27.051  12.973  0.00  0.00    +0.142 HD
ENDBRANCH  10  23
BRANCH  11  26
ATOM     26  C   LIG    1       20.449 -31.213  11.298  0.00  0.00    +0.088 C 
ATOM     27  C   LIG    1       19.031 -31.524  11.718  0.00  0.00    +0.027 C 
ATOM     28  C   LIG    1       19.308 -31.121  10.305  0.00  0.00    +0.027 C 
ENDBRANCH  11  26
BRANCH   7  29
ATOM     29  C   LIG    1       20.350 -27.903  14.812  0.00  0.00    +0.342 C 
ATOM     30  O   LIG    1       19.561 -28.544  15.500  0.00  0.00    -0.245 OA
BRANCH  29  31
ATOM     31  O   LIG    1       20.586 -26.593  15.026  0.00  0.00    -0.477 OA
ATOM     32  H   LIG    1       19.767 -26.041  15.068  0.00  0.00    +0.295 HD
ENDBRANCH  29  31
ENDBRANCH   7  29
TORSDOF 5
ENDMDL
MODEL 5
REMARK VINA RESULT:      -6.0      2.109      2.864
REMARK  Name = *****
REMARK                            x       y       z     vdW  Elec       q    Type
REMARK                         _______ _______ _______ _____ _____    ______ ____
ROOT
ATOM      1  C   LIG    1       25.041 -29.189   7.507  0.00  0.00    +0.105 C 
ATOM      2  C   LIG    1       25.568 -29.141   8.821  0.00  0.00    +0.171 C 
ATOM      3  F   LIG    1       26.326 -28.080   9.153  0.00  0.00    -0.201 F 
ATOM      4  C   LIG    1       25.326 -30.143   9.794  0.00  0.00    +0.092 C 
ATOM      5  C   LIG    1       24.581 -31.277   9.404  0.00  0.00    +0.072 C 
ATOM      6  C   LIG    1       24.392 -32.390  10.386  0.00  0.00    +0.205 C 
ATOM      7  C   LIG    1       24.997 -32.271  11.728  0.00  0.00    +0.122 C 
ATOM      8  C   LIG    1       25.641 -31.130  11.999  0.00  0.00    +0.105 C 
ATOM      9  O   LIG    1       23.775 -33.419  10.109  0.00  0.00    -0.286 OA
ATOM     10  C   LIG    1       24.046 -31.379   8.106  0.00  0.00    +0.075 C 
ATOM     11  N   LIG    1       25.786 -30.052  11.147  0.00  0.00    -0.340 NA
ATOM     12  C   LIG    1       24.259 -30.316   7.205  0.00  0.00    +0.168 C 
ATOM     13  F   LIG    1       23.705 -30.440   5.984  0.00  0.00    -0.202 F 
ENDROOT
BRANCH   1  21
ATOM     14  C   LIG    1       25.823 -24.987   6.705  0.00  0.00    +0.025 C 
ATOM     15  C   LIG    1       24.856 -25.781   5.824  0.00  0.00    +0.068 C 
ATOM     16  N   LIG    1       25.430 -26.083   4.491  0.00  0.00    -0.308 NA
ATOM     17  H   LIG    1       24.646 -26.243   3.857  0.00  0.00    +0.122 HD
ATOM     18  C   LIG    1       26.264 -27.311   4.471  0.00  0.00    +0.068 C 
ATOM     19  C   LIG    1       27.703 -27.024   4.906  0.00  0.00    +0.025 C 
ATOM     20  C   LIG    1       25.667 -28.523   5.245  0.00  0.00    +0.123 C 
ATOM     21  N   LIG    1       25.260 -28.120   6.610  0.00  0.00    -0.322 NA
ATOM     22  C   LIG    1       24.284 -27.010   6.586  0.00  0.00    +0.123 C 
ENDBRANCH   1  21
BRANCH  10  23
ATOM     23  N   LIG    1       23.112 -32.378   7.752  0.00  0.00    -0.355 NA
ATOM     24  H   LIG    1       22.542 -32.709   8.536  0.00  0.00    +0.142 HD
ATOM     25  H   LIG    1       23.499 -33.124   7.180  0.00  0.00    +0.142 HD
ENDBRANCH  10  23
BRANCH  11  26
ATOM     26  C   LIG    1       26.121 -28.745  11.757  0.00  0.00    +0.088 C 
ATOM     27  C   LIG    1       26.528 -28.656  13.210  0.00  0.00    +0.027 C 
ATOM     28  C   LIG    1       27.535 -28.363  12.144  0.00  0.00    +0.027 C 
ENDBRANCH  11  26
BRANCH   7  29
ATOM     29  C   LIG    1       24.892 -33.300  12.781  0.00  0.00    +0.342 C 
ATOM     30  O   LIG    1       25.867 -33.825  13.311  0.00  0.00    -0.245 OA
BRANCH  29  31
ATOM     31  O   LIG    1       23.629 -33.601  13.147  0.00  0.00    -0.477 OA
ATOM     32  H   LIG    1       23.566 -34.364  13.772  0.00  0.00    +0.295 HD
ENDBRANCH  29  31
ENDBRANCH   7  29
TORSDOF 5
ENDMDL
MODEL 6
REMARK VINA RESULT:      -5.9      4.936      7.162
REMARK  Name = *****
REMARK                            x       y       z     vdW  Elec       q    Type
REMARK                         _______ _______ _______ _____ _____    ______ ____
ROOT
ATOM      1  C   LIG    1       25.099 -30.657   9.245  0.00  0.00    +0.105 C 
ATOM      2  C   LIG    1       23.830 -30.551   9.864  0.00  0.00    +0.171 C 
ATOM      3  F   LIG    1       22.804 -31.225   9.310  0.00  0.00    -0.201 F 
ATOM      4  C   LIG    1       23.595 -29.786  11.035  0.00  0.00    +0.092 C 
ATOM      5  C   LIG    1       24.671 -29.038  11.562  0.00  0.00    +0.072 C 
ATOM      6  C   LIG    1       24.423 -28.152  12.742  0.00  0.00    +0.205 C 
ATOM      7  C   LIG    1       23.062 -28.080  13.311  0.00  0.00    +0.122 C 
ATOM      8  C   LIG    1       22.135 -28.870  12.757  0.00  0.00    +0.105 C 
ATOM      9  O   LIG    1       25.306 -27.453  13.240  0.00  0.00    -0.286 OA
ATOM     10  C   LIG    1       25.949 -29.099  10.977  0.00  0.00    +0.075 C 
ATOM     11  N   LIG    1       22.333 -29.750  11.709  0.00  0.00    -0.340 NA
ATOM     12  C   LIG    1       26.138 -29.935   9.856  0.00  0.00    +0.168 C 
ATOM     13  F   LIG    1       27.382 -29.987   9.346  0.00  0.00    -0.202 F 
ENDROOT
BRANCH   1  21
ATOM     14  C   LIG    1       25.799 -31.233   4.992  0.00  0.00    +0.025 C 
ATOM     15  C   LIG    1       24.822 -32.134   5.749  0.00  0.00    +0.068 C 
ATOM     16  N   LIG    1       25.367 -33.496   5.965  0.00  0.00    -0.308 NA
ATOM     17  H   LIG    1       24.569 -34.119   6.101  0.00  0.00    +0.122 HD
ATOM     18  C   LIG    1       26.218 -33.607   7.176  0.00  0.00    +0.068 C 
ATOM     19  C   LIG    1       27.663 -33.191   6.891  0.00  0.00    +0.025 C 
ATOM     20  C   LIG    1       25.659 -32.891   8.440  0.00  0.00    +0.123 C 
ATOM     21  N   LIG    1       25.279 -31.495   8.123  0.00  0.00    -0.322 NA
ATOM     22  C   LIG    1       24.287 -31.432   7.029  0.00  0.00    +0.123 C 
ENDBRANCH   1  21
BRANCH  10  23
ATOM     23  N   LIG    1       27.091 -28.553  11.602  0.00  0.00    -0.355 NA
ATOM     24  H   LIG    1       26.962 -28.352  12.598  0.00  0.00    +0.142 HD
ATOM     25  H   LIG    1       27.527 -27.795  11.083  0.00  0.00    +0.142 HD
ENDBRANCH  10  23
BRANCH  11  26
ATOM     26  C   LIG    1       21.340 -30.834  11.538  0.00  0.00    +0.088 C 
ATOM     27  C   LIG    1       19.981 -30.744  12.195  0.00  0.00    +0.027 C 
ATOM     28  C   LIG    1       20.085 -30.668  10.705  0.00  0.00    +0.027 C 
ENDBRANCH  11  26
BRANCH   7  29
ATOM     29  C   LIG    1       22.688 -27.239  14.464  0.00  0.00    +0.342 C 
ATOM     30  O   LIG    1       21.661 -26.568  14.505  0.00  0.00    -0.245 OA
BRANCH  29  31
ATOM     31  O   LIG    1       23.551 -27.289  15.500  0.00  0.00    -0.477 OA
ATOM     32  H   LIG    1       23.410 -26.578  16.172  0.00  0.00    +0.295 HD
ENDBRANCH  29  31
ENDBRANCH   7  29
TORSDOF 5
ENDMDL
MODEL 7
REMARK VINA RESULT:      -5.9      5.754      8.015
REMARK  Name = *****
REMARK                            x       y       z     vdW  Elec       q    Type
REMARK                         _______ _______ _______ _____ _____    ______ ____
ROOT
ATOM      1  C   LIG    1       21.528 -31.524  11.482  0.00  0.00    +0.105 C 
ATOM      2  C   LIG    1       21.835 -30.232  11.973  0.00  0.00    +0.171 C 
ATOM      3  F   LIG    1       20.809 -29.400  12.232  0.00  0.00    -0.201 F 
ATOM      4  C   LIG    1       23.159 -29.784  12.211  0.00  0.00    +0.092 C 
ATOM      5  C   LIG    1       24.221 -30.650  11.873  0.00  0.00    +0.072 C 
ATOM      6  C   LIG    1       25.627 -30.164  12.029  0.00  0.00    +0.205 C 
ATOM      7  C   LIG    1       25.859 -28.791  12.523  0.00  0.00    +0.122 C 
ATOM      8  C   LIG    1       24.776 -28.080  12.856  0.00  0.00    +0.105 C 
ATOM      9  O   LIG    1       26.603 -30.854  11.732  0.00  0.00    -0.286 OA
ATOM     10  C   LIG    1       23.970 -31.940  11.370  0.00  0.00    +0.075 C 
ATOM     11  N   LIG    1       23.465 -28.510  12.788  0.00  0.00    -0.340 NA
ATOM     12  C   LIG    1       22.630 -32.357  11.224  0.00  0.00    +0.168 C 
ATOM     13  F   LIG    1       22.433 -33.608  10.769  0.00  0.00    -0.202 F 
ENDROOT
BRANCH   1  21
ATOM     14  C   LIG    1       17.383 -31.525  12.798  0.00  0.00    +0.025 C 
ATOM     15  C   LIG    1       18.030 -32.804  12.263  0.00  0.00    +0.068 C 
ATOM     16  N   LIG    1       17.540 -33.157  10.909  0.00  0.00    -0.308 NA
ATOM     17  H   LIG    1       17.690 -34.160  10.789  0.00  0.00    +0.122 HD
ATOM     18  C   LIG    1       18.277 -32.473   9.817  0.00  0.00    +0.068 C 
ATOM     19  C   LIG    1       17.711 -31.078   9.541  0.00  0.00    +0.025 C 
ATOM     20  C   LIG    1       19.823 -32.434   9.992  0.00  0.00    +0.123 C 
ATOM     21  N   LIG    1       20.184 -31.933  11.338  0.00  0.00    -0.322 NA
ATOM     22  C   LIG    1       19.578 -32.753  12.408  0.00  0.00    +0.123 C 
ENDBRANCH   1  21
BRANCH  10  23
ATOM     23  N   LIG    1       24.988 -32.910  11.238  0.00  0.00    -0.355 NA
ATOM     24  H   LIG    1       25.308 -33.299  12.130  0.00  0.00    +0.142 HD
ATOM     25  H   LIG    1       25.742 -32.637  10.614  0.00  0.00    +0.142 HD
ENDBRANCH  10  23
BRANCH  11  26
ATOM     26  C   LIG    1       22.468 -27.776  13.601  0.00  0.00    +0.088 C 
ATOM     27  C   LIG    1       22.796 -26.418  14.179  0.00  0.00    +0.027 C 
ATOM     28  C   LIG    1       21.765 -26.531  13.101  0.00  0.00    +0.027 C 
ENDBRANCH  11  26
BRANCH   7  29
ATOM     29  C   LIG    1       27.195 -28.191  12.711  0.00  0.00    +0.342 C 
ATOM     30  O   LIG    1       27.522 -27.577  13.722  0.00  0.00    -0.245 OA
BRANCH  29  31
ATOM     31  O   LIG    1       28.053 -28.399  11.691  0.00  0.00    -0.477 OA
ATOM     32  H   LIG    1       28.939 -28.731  11.976  0.00  0.00    +0.295 HD
ENDBRANCH  29  31
ENDBRANCH   7  29
TORSDOF 5
ENDMDL
MODEL 8
REMARK VINA RESULT:      -5.8      5.144      7.357
REMARK  Name = *****
REMARK                            x       y       z     vdW  Elec       q    Type
REMARK                         _______ _______ _______ _____ _____    ______ ____
ROOT
ATOM      1  C   LIG    1       25.426 -30.529   9.967  0.00  0.00    +0.105 C 
ATOM      2  C   LIG    1       24.412 -29.901  10.730  0.00  0.00    +0.171 C 
ATOM      3  F   LIG    1       23.134 -30.236  10.469  0.00  0.00    -0.201 F 
ATOM      4  C   LIG    1       24.678 -28.955  11.751  0.00  0.00    +0.092 C 
ATOM      5  C   LIG    1       26.021 -28.572  11.964  0.00  0.00    +0.072 C 
ATOM      6  C   LIG    1       26.317 -27.507  12.973  0.00  0.00    +0.205 C 
ATOM      7  C   LIG    1       25.196 -26.885  13.707  0.00  0.00    +0.122 C 
ATOM      8  C   LIG    1       23.972 -27.363  13.455  0.00  0.00    +0.105 C 
ATOM      9  O   LIG    1       27.459 -27.106  13.195  0.00  0.00    -0.286 OA
ATOM     10  C   LIG    1       27.065 -29.157  11.224  0.00  0.00    +0.075 C 
ATOM     11  N   LIG    1       23.659 -28.386  12.580  0.00  0.00    -0.340 NA
ATOM     12  C   LIG    1       26.743 -30.146  10.272  0.00  0.00    +0.168 C 
ATOM     13  F   LIG    1       27.774 -30.702   9.607  0.00  0.00    -0.202 F 
ENDROOT
BRANCH   1  21
ATOM     14  C   LIG    1       22.832 -33.700   8.510  0.00  0.00    +0.025 C 
ATOM     15  C   LIG    1       24.352 -33.823   8.394  0.00  0.00    +0.068 C 
ATOM     16  N   LIG    1       24.824 -33.648   6.999  0.00  0.00    -0.308 NA
ATOM     17  H   LIG    1       25.731 -34.112   6.930  0.00  0.00    +0.122 HD
ATOM     18  C   LIG    1       25.032 -32.228   6.620  0.00  0.00    +0.068 C 
ATOM     19  C   LIG    1       23.732 -31.573   6.148  0.00  0.00    +0.025 C 
ATOM     20  C   LIG    1       25.749 -31.359   7.695  0.00  0.00    +0.123 C 
ATOM     21  N   LIG    1       25.096 -31.518   9.014  0.00  0.00    -0.322 NA
ATOM     22  C   LIG    1       25.070 -32.931   9.446  0.00  0.00    +0.123 C 
ENDBRANCH   1  21
BRANCH  10  23
ATOM     23  N   LIG    1       28.423 -28.972  11.562  0.00  0.00    -0.355 NA
ATOM     24  H   LIG    1       29.058 -28.998  10.758  0.00  0.00    +0.142 HD
ATOM     25  H   LIG    1       28.736 -29.534  12.350  0.00  0.00    +0.142 HD
ENDBRANCH  10  23
BRANCH  11  26
ATOM     26  C   LIG    1       22.355 -29.062  12.766  0.00  0.00    +0.088 C 
ATOM     27  C   LIG    1       21.481 -28.735  13.956  0.00  0.00    +0.027 C 
ATOM     28  C   LIG    1       21.032 -28.347  12.584  0.00  0.00    +0.027 C 
ENDBRANCH  11  26
BRANCH   7  29
ATOM     29  C   LIG    1       25.354 -25.821  14.718  0.00  0.00    +0.342 C 
ATOM     30  O   LIG    1       24.549 -24.907  14.866  0.00  0.00    -0.245 OA
BRANCH  29  31
ATOM     31  O   LIG    1       26.446 -25.947  15.500  0.00  0.00    -0.477 OA
ATOM     32  H   LIG    1       26.580 -25.193  16.123  0.00  0.00    +0.295 HD
ENDBRANCH  29  31
ENDBRANCH   7  29
TORSDOF 5
ENDMDL
MODEL 9
REMARK VINA RESULT:      -5.8      3.184      6.189
REMARK  Name = *****
REMARK                            x       y       z     vdW  Elec       q    Type
REMARK                         _______ _______ _______ _____ _____    ______ ____
ROOT
ATOM      1  C   LIG    1       24.727 -30.856  10.064  0.00  0.00    +0.105 C 
ATOM      2  C   LIG    1       24.473 -30.381   8.755  0.00  0.00    +0.171 C 
ATOM      3  F   LIG    1       23.650 -29.325   8.620  0.00  0.00    -0.201 F 
ATOM      4  C   LIG    1       25.048 -30.956   7.593  0.00  0.00    +0.092 C 
ATOM      5  C   LIG    1       25.857 -32.102   7.754  0.00  0.00    +0.072 C 
ATOM      6  C   LIG    1       26.399 -32.780   6.535  0.00  0.00    +0.205 C 
ATOM      7  C   LIG    1       26.063 -32.235   5.203  0.00  0.00    +0.122 C 
ATOM      8  C   LIG    1       25.328 -31.118   5.178  0.00  0.00    +0.105 C 
ATOM      9  O   LIG    1       27.091 -33.796   6.596  0.00  0.00    -0.286 OA
ATOM     10  C   LIG    1       26.131 -32.620   9.033  0.00  0.00    +0.075 C 
ATOM     11  N   LIG    1       24.860 -30.424   6.278  0.00  0.00    -0.340 NA
ATOM     12  C   LIG    1       25.589 -31.961  10.156  0.00  0.00    +0.168 C 
ATOM     13  F   LIG    1       25.900 -32.471  11.363  0.00  0.00    -0.202 F 
ENDROOT
BRANCH   1  21
ATOM     14  C   LIG    1       22.214 -30.805  13.613  0.00  0.00    +0.025 C 
ATOM     15  C   LIG    1       22.266 -29.594  12.678  0.00  0.00    +0.068 C 
ATOM     16  N   LIG    1       23.021 -28.463  13.268  0.00  0.00    -0.308 NA
ATOM     17  H   LIG    1       22.696 -27.612  12.805  0.00  0.00    +0.122 HD
ATOM     18  C   LIG    1       24.486 -28.548  13.041  0.00  0.00    +0.068 C 
ATOM     19  C   LIG    1       25.172 -29.416  14.098  0.00  0.00    +0.025 C 
ATOM     20  C   LIG    1       24.904 -28.969  11.601  0.00  0.00    +0.123 C 
ATOM     21  N   LIG    1       24.180 -30.191  11.184  0.00  0.00    -0.322 NA
ATOM     22  C   LIG    1       22.714 -30.008  11.248  0.00  0.00    +0.123 C 
ENDBRANCH   1  21
BRANCH  10  23
ATOM     23  N   LIG    1       27.110 -33.614   9.250  0.00  0.00    -0.355 NA
ATOM     24  H   LIG    1       28.032 -33.378   8.870  0.00  0.00    +0.142 HD
ATOM     25  H   LIG    1       26.802 -34.557   9.026  0.00  0.00    +0.142 HD
ENDBRANCH  10  23
BRANCH  11  26
ATOM     26  C   LIG    1       24.467 -29.011   6.071  0.00  0.00    +0.088 C 
ATOM     27  C   LIG    1       25.409 -27.888   6.439  0.00  0.00    +0.027 C 
ATOM     28  C   LIG    1       25.089 -28.139   5.000  0.00  0.00    +0.027 C 
ENDBRANCH  11  26
BRANCH   7  29
ATOM     29  C   LIG    1       26.526 -32.816   3.928  0.00  0.00    +0.342 C 
ATOM     30  O   LIG    1       25.905 -32.710   2.874  0.00  0.00    -0.245 OA
BRANCH  29  31
ATOM     31  O   LIG    1       27.715 -33.450   3.998  0.00  0.00    -0.477 OA
ATOM     32  H   LIG    1       28.062 -33.743   3.120  0.00  0.00    +0.295 HD
ENDBRANCH  29  31
ENDBRANCH   7  29
TORSDOF 5
ENDMDL
