MODEL 1
REMARK VINA RESULT:      -5.3      0.000      0.000
REMARK  Name = *****
REMARK                            x       y       z     vdW  Elec       q    Type
REMARK                         _______ _______ _______ _____ _____    ______ ____
ROOT
ATOM      1  C   LIG    1       25.092 -20.560   5.424  0.00  0.00    +0.121 A 
ATOM      2  C   LIG    1       23.918 -20.602   6.180  0.00  0.00    +0.045 A 
ATOM      3  C   LIG    1       22.755 -19.978   5.723  0.00  0.00    +0.004 A 
ATOM      4  C   LIG    1       22.760 -19.307   4.500  0.00  0.00    +0.000 A 
ATOM      5  C   LIG    1       23.926 -19.258   3.744  0.00  0.00    +0.004 A 
ATOM      6  C   LIG    1       25.089 -19.883   4.202  0.00  0.00    +0.045 A 
ENDROOT
BRANCH   1   7
ATOM      7  O   LIG    1       26.164 -21.214   5.974  0.00  0.00    -0.490 OA
BRANCH   7   8
ATOM      8  C   LIG    1       26.984 -20.451   6.857  0.00  0.00    +0.257 C 
BRANCH   8   9
ATOM      9  C   LIG    1       28.310 -20.138   6.174  0.00  0.00    +0.197 C 
BRANCH   9  10
ATOM     10  O   LIG    1       29.304 -21.064   6.602  0.00  0.00    -0.392 OA
ATOM     11  H   LIG    1       29.729 -21.416   5.801  0.00  0.00    +0.209 HD
ENDBRANCH   9  10
ENDBRANCH   8   9
ENDBRANCH   7   8
ENDBRANCH   1   7
TORSDOF 4
ENDMDL
MODEL 2
REMARK VINA RESULT:      -5.3      0.737      1.686
REMARK  Name = *****
REMARK                            x       y       z     vdW  Elec       q    Type
REMARK                         _______ _______ _______ _____ _____    ______ ____
ROOT
ATOM      1  C   LIG    1       24.767 -20.482   5.381  0.00  0.00    +0.121 A 
ATOM      2  C   LIG    1       24.965 -19.784   4.187  0.00  0.00    +0.045 A 
ATOM      3  C   LIG    1       23.928 -19.044   3.615  0.00  0.00    +0.004 A 
ATOM      4  C   LIG    1       22.681 -18.997   4.238  0.00  0.00    +0.000 A 
ATOM      5  C   LIG    1       22.475 -19.693   5.425  0.00  0.00    +0.004 A 
ATOM      6  C   LIG    1       23.514 -20.433   5.996  0.00  0.00    +0.045 A 
ENDROOT
BRANCH   1   7
ATOM      7  O   LIG    1       25.860 -21.165   5.845  0.00  0.00    -0.490 OA
BRANCH   7   8
ATOM      8  C   LIG    1       26.543 -20.586   6.956  0.00  0.00    +0.257 C 
BRANCH   8   9
ATOM      9  C   LIG    1       28.026 -20.455   6.628  0.00  0.00    +0.197 C 
BRANCH   9  10
ATOM     10  O   LIG    1       28.192 -20.183   5.241  0.00  0.00    -0.392 OA
ATOM     11  H   LIG    1       29.091 -19.830   5.126  0.00  0.00    +0.209 HD
ENDBRANCH   9  10
ENDBRANCH   8   9
ENDBRANCH   7   8
ENDBRANCH   1   7
TORSDOF 4
ENDMDL
MODEL 3
REMARK VINA RESULT:      -4.8      6.870      7.485
REMARK  Name = *****
REMARK                            x       y       z     vdW  Elec       q    Type
REMARK                         _______ _______ _______ _____ _____    ______ ____
ROOT
ATOM      1  C   LIG    1       26.423 -13.974   3.309  0.00  0.00    +0.121 A 
ATOM      2  C   LIG    1       26.066 -13.054   2.320  0.00  0.00    +0.045 A 
ATOM      3  C   LIG    1       24.735 -12.662   2.160  0.00  0.00    +0.004 A 
ATOM      4  C   LIG    1       23.749 -13.188   2.995  0.00  0.00    +0.000 A 
ATOM      5  C   LIG    1       24.097 -14.107   3.980  0.00  0.00    +0.004 A 
ATOM      6  C   LIG    1       25.428 -14.499   4.138  0.00  0.00    +0.045 A 
ENDROOT
BRANCH   1   7
ATOM      7  O   LIG    1       27.758 -14.275   3.371  0.00  0.00    -0.490 OA
BRANCH   7   8
ATOM      8  C   LIG    1       28.633 -13.203   3.721  0.00  0.00    +0.257 C 
BRANCH   8   9
ATOM      9  C   LIG    1       28.325 -12.741   5.140  0.00  0.00    +0.197 C 
BRANCH   9  10
ATOM     10  O   LIG    1       29.206 -11.683   5.506  0.00  0.00    -0.392 OA
ATOM     11  H   LIG    1       29.823 -11.557   4.765  0.00  0.00    +0.209 HD
ENDBRANCH   9  10
ENDBRANCH   8   9
ENDBRANCH   7   8
ENDBRANCH   1   7
TORSDOF 4
ENDMDL
MODEL 4
REMARK VINA RESULT:      -4.8      6.857      7.336
REMARK  Name = *****
REMARK                            x       y       z     vdW  Elec       q    Type
REMARK                         _______ _______ _______ _____ _____    ______ ____
ROOT
ATOM      1  C   LIG    1       26.485 -13.879   3.182  0.00  0.00    +0.121 A 
ATOM      2  C   LIG    1       25.623 -14.601   4.011  0.00  0.00    +0.045 A 
ATOM      3  C   LIG    1       24.245 -14.378   3.972  0.00  0.00    +0.004 A 
ATOM      4  C   LIG    1       23.718 -13.427   3.098  0.00  0.00    +0.000 A 
ATOM      5  C   LIG    1       24.570 -12.701   2.272  0.00  0.00    +0.004 A 
ATOM      6  C   LIG    1       25.949 -12.925   2.312  0.00  0.00    +0.045 A 
ENDROOT
BRANCH   1   7
ATOM      7  O   LIG    1       27.813 -14.191   3.307  0.00  0.00    -0.490 OA
BRANCH   7   8
ATOM      8  C   LIG    1       28.676 -13.132   3.718  0.00  0.00    +0.257 C 
BRANCH   8   9
ATOM      9  C   LIG    1       28.306 -12.695   5.130  0.00  0.00    +0.197 C 
BRANCH   9  10
ATOM     10  O   LIG    1       29.223 -11.706   5.587  0.00  0.00    -0.392 OA
ATOM     11  H   LIG    1       29.947 -12.175   6.036  0.00  0.00    +0.209 HD
ENDBRANCH   9  10
ENDBRANCH   8   9
ENDBRANCH   7   8
ENDBRANCH   1   7
TORSDOF 4
ENDMDL
MODEL 5
REMARK VINA RESULT:      -4.7      7.219      7.692
REMARK  Name = *****
REMARK                            x       y       z     vdW  Elec       q    Type
REMARK                         _______ _______ _______ _____ _____    ______ ____
ROOT
ATOM      1  C   LIG    1       25.962 -13.459   3.151  0.00  0.00    +0.121 A 
ATOM      2  C   LIG    1       25.278 -13.367   4.365  0.00  0.00    +0.045 A 
ATOM      3  C   LIG    1       24.162 -12.537   4.492  0.00  0.00    +0.004 A 
ATOM      4  C   LIG    1       23.721 -11.792   3.399  0.00  0.00    +0.000 A 
ATOM      5  C   LIG    1       24.400 -11.875   2.187  0.00  0.00    +0.004 A 
ATOM      6  C   LIG    1       25.517 -12.706   2.062  0.00  0.00    +0.045 A 
ENDROOT
BRANCH   1   7
ATOM      7  O   LIG    1       27.036 -14.311   3.149  0.00  0.00    -0.490 OA
BRANCH   7   8
ATOM      8  C   LIG    1       28.009 -14.103   4.172  0.00  0.00    +0.257 C 
BRANCH   8   9
ATOM      9  C   LIG    1       28.854 -12.883   3.828  0.00  0.00    +0.197 C 
BRANCH   9  10
ATOM     10  O   LIG    1       29.028 -12.073   4.986  0.00  0.00    -0.392 OA
ATOM     11  H   LIG    1       29.124 -11.155   4.680  0.00  0.00    +0.209 HD
ENDBRANCH   9  10
ENDBRANCH   8   9
ENDBRANCH   7   8
ENDBRANCH   1   7
TORSDOF 4
ENDMDL
MODEL 6
REMARK VINA RESULT:      -4.4      6.310      7.020
REMARK  Name = *****
REMARK                            x       y       z     vdW  Elec       q    Type
REMARK                         _______ _______ _______ _____ _____    ______ ____
ROOT
ATOM      1  C   LIG    1       25.560 -13.677   2.815  0.00  0.00    +0.121 A 
ATOM      2  C   LIG    1       25.129 -13.604   4.142  0.00  0.00    +0.045 A 
ATOM      3  C   LIG    1       24.236 -12.610   4.547  0.00  0.00    +0.004 A 
ATOM      4  C   LIG    1       23.764 -11.679   3.621  0.00  0.00    +0.000 A 
ATOM      5  C   LIG    1       24.191 -11.743   2.298  0.00  0.00    +0.004 A 
ATOM      6  C   LIG    1       25.085 -12.738   1.895  0.00  0.00    +0.045 A 
ENDROOT
BRANCH   1   7
ATOM      7  O   LIG    1       26.430 -14.699   2.539  0.00  0.00    -0.490 OA
BRANCH   7   8
ATOM      8  C   LIG    1       27.242 -15.147   3.623  0.00  0.00    +0.257 C 
BRANCH   8   9
ATOM      9  C   LIG    1       27.195 -16.669   3.696  0.00  0.00    +0.197 C 
BRANCH   9  10
ATOM     10  O   LIG    1       25.993 -17.144   3.098  0.00  0.00    -0.392 OA
ATOM     11  H   LIG    1       25.635 -17.831   3.686  0.00  0.00    +0.209 HD
ENDBRANCH   9  10
ENDBRANCH   8   9
ENDBRANCH   7   8
ENDBRANCH   1   7
TORSDOF 4
ENDMDL
MODEL 7
REMARK VINA RESULT:      -4.4      3.520      4.314
REMARK  Name = *****
REMARK                            x       y       z     vdW  Elec       q    Type
REMARK                         _______ _______ _______ _____ _____    ______ ____
ROOT
ATOM      1  C   LIG    1       25.201 -18.543   3.658  0.00  0.00    +0.121 A 
ATOM      2  C   LIG    1       23.828 -18.297   3.735  0.00  0.00    +0.045 A 
ATOM      3  C   LIG    1       22.967 -19.237   4.306  0.00  0.00    +0.004 A 
ATOM      4  C   LIG    1       23.477 -20.434   4.807  0.00  0.00    +0.000 A 
ATOM      5  C   LIG    1       24.843 -20.688   4.731  0.00  0.00    +0.004 A 
ATOM      6  C   LIG    1       25.703 -19.747   4.159  0.00  0.00    +0.045 A 
ENDROOT
BRANCH   1   7
ATOM      7  O   LIG    1       25.941 -17.545   3.082  0.00  0.00    -0.490 OA
BRANCH   7   8
ATOM      8  C   LIG    1       25.541 -16.208   3.380  0.00  0.00    +0.257 C 
BRANCH   8   9
ATOM      9  C   LIG    1       26.747 -15.282   3.276  0.00  0.00    +0.197 C 
BRANCH   9  10
ATOM     10  O   LIG    1       26.661 -14.509   2.083  0.00  0.00    -0.392 OA
ATOM     11  H   LIG    1       25.719 -14.451   1.848  0.00  0.00    +0.209 HD
ENDBRANCH   9  10
ENDBRANCH   8   9
ENDBRANCH   7   8
ENDBRANCH   1   7
TORSDOF 4
ENDMDL
MODEL 8
REMARK VINA RESULT:      -4.3      6.320      7.279
REMARK  Name = *****
REMARK                            x       y       z     vdW  Elec       q    Type
REMARK                         _______ _______ _______ _____ _____    ______ ____
ROOT
ATOM      1  C   LIG    1       25.515 -13.535   2.871  0.00  0.00    +0.121 A 
ATOM      2  C   LIG    1       25.078 -12.654   1.879  0.00  0.00    +0.045 A 
ATOM      3  C   LIG    1       24.165 -11.640   2.180  0.00  0.00    +0.004 A 
ATOM      4  C   LIG    1       23.685 -11.500   3.482  0.00  0.00    +0.000 A 
ATOM      5  C   LIG    1       24.112 -12.376   4.474  0.00  0.00    +0.004 A 
ATOM      6  C   LIG    1       25.024 -13.391   4.171  0.00  0.00    +0.045 A 
ENDROOT
BRANCH   1   7
ATOM      7  O   LIG    1       26.413 -14.483   2.455  0.00  0.00    -0.490 OA
BRANCH   7   8
ATOM      8  C   LIG    1       26.741 -15.501   3.398  0.00  0.00    +0.257 C 
BRANCH   8   9
ATOM      9  C   LIG    1       25.688 -16.602   3.342  0.00  0.00    +0.197 C 
BRANCH   9  10
ATOM     10  O   LIG    1       26.304 -17.845   3.021  0.00  0.00    -0.392 OA
ATOM     11  H   LIG    1       26.970 -18.018   3.708  0.00  0.00    +0.209 HD
ENDBRANCH   9  10
ENDBRANCH   8   9
ENDBRANCH   7   8
ENDBRANCH   1   7
TORSDOF 4
ENDMDL
MODEL 9
REMARK VINA RESULT:      -4.1      4.416      5.488
REMARK  Name = *****
REMARK                            x       y       z     vdW  Elec       q    Type
REMARK                         _______ _______ _______ _____ _____    ______ ____
ROOT
ATOM      1  C   LIG    1       25.985 -16.041   3.485  0.00  0.00    +0.121 A 
ATOM      2  C   LIG    1       27.268 -15.524   3.682  0.00  0.00    +0.045 A 
ATOM      3  C   LIG    1       27.447 -14.211   4.122  0.00  0.00    +0.004 A 
ATOM      4  C   LIG    1       26.337 -13.403   4.371  0.00  0.00    +0.000 A 
ATOM      5  C   LIG    1       25.056 -13.909   4.173  0.00  0.00    +0.004 A 
ATOM      6  C   LIG    1       24.880 -15.224   3.732  0.00  0.00    +0.045 A 
ENDROOT
BRANCH   1   7
ATOM      7  O   LIG    1       25.940 -17.342   3.058  0.00  0.00    -0.490 OA
BRANCH   7   8
ATOM      8  C   LIG    1       24.897 -18.150   3.601  0.00  0.00    +0.257 C 
BRANCH   8   9
ATOM      9  C   LIG    1       25.285 -19.620   3.490  0.00  0.00    +0.197 C 
BRANCH   9  10
ATOM     10  O   LIG    1       26.400 -19.891   4.333  0.00  0.00    -0.392 OA
ATOM     11  H   LIG    1       26.609 -19.065   4.803  0.00  0.00    +0.209 HD
ENDBRANCH   9  10
ENDBRANCH   8   9
ENDBRANCH   7   8
ENDBRANCH   1   7
TORSDOF 4
ENDMDL
