MODEL 1
REMARK VINA RESULT:      -6.6      0.000      0.000
REMARK  Name = *****
REMARK                            x       y       z     vdW  Elec       q    Type
REMARK                         _______ _______ _______ _____ _____    ______ ____
ROOT
ATOM      1  C   LIG    1       29.835 -20.296   7.918  0.00  0.00    +0.268 C 
ENDROOT
BRANCH   1   2
ATOM      2  P   LIG    1       30.505 -18.887   6.980  0.00  0.00    +0.371 P 
ATOM      3  O   LIG    1       29.739 -18.422   5.781  0.00  0.00    -0.255 OA
BRANCH   2   4
ATOM      4  O   LIG    1       32.011 -19.267   6.571  0.00  0.00    -0.322 OA
ATOM      5  H   LIG    1       32.651 -18.558   6.766  0.00  0.00    +0.220 HD
ENDBRANCH   2   4
BRANCH   2   6
ATOM      6  O   LIG    1       30.789 -17.679   7.989  0.00  0.00    -0.322 OA
ATOM      7  H   LIG    1       31.730 -17.557   8.211  0.00  0.00    +0.220 HD
ENDBRANCH   2   6
ENDBRANCH   1   2
BRANCH   1   8
ATOM      8  P   LIG    1       31.062 -21.118   8.992  0.00  0.00    +0.371 P 
ATOM      9  O   LIG    1       30.619 -21.922  10.160  0.00  0.00    -0.255 OA
BRANCH   8  10
ATOM     10  O   LIG    1       32.141 -20.004   9.425  0.00  0.00    -0.322 OA
ATOM     11  H   LIG    1       31.965 -19.614  10.298  0.00  0.00    +0.220 HD
ENDBRANCH   8  10
BRANCH   8  12
ATOM     12  O   LIG    1       31.980 -21.972   7.979  0.00  0.00    -0.322 OA
ATOM     13  H   LIG    1       32.609 -22.562   8.436  0.00  0.00    +0.220 HD
ENDBRANCH   8  12
ENDBRANCH   1   8
BRANCH   1  14
ATOM     14  O   LIG    1       28.854 -19.714   8.846  0.00  0.00    -0.367 OA
ATOM     15  H   LIG    1       29.330 -19.589   9.695  0.00  0.00    +0.212 HD
ENDBRANCH   1  14
BRANCH   1  16
ATOM     16  C   LIG    1       29.042 -21.298   7.068  0.00  0.00    +0.076 C 
BRANCH  16  17
ATOM     17  C   LIG    1       27.595 -21.533   7.528  0.00  0.00    +0.088 C 
BRANCH  17  18
ATOM     18  N   LIG    1       26.661 -20.458   7.125  0.00  0.00    -0.305 NA
ATOM     19  C   LIG    1       25.324 -20.673   7.689  0.00  0.00    +0.105 C 
BRANCH  18  20
ATOM     20  C   LIG    1       26.559 -20.353   5.652  0.00  0.00    +0.084 C 
BRANCH  20  21
ATOM     21  C   LIG    1       25.149 -20.610   5.095  0.00  0.00    +0.015 C 
BRANCH  21  22
ATOM     22  C   LIG    1       24.822 -19.628   3.961  0.00  0.00    +0.001 C 
BRANCH  22  24
ATOM     23  C   LIG    1       22.642 -19.740   5.223  0.00  0.00    +0.004 C 
ATOM     24  C   LIG    1       23.397 -19.086   4.075  0.00  0.00    -0.003 C 
ENDBRANCH  22  24
ENDBRANCH  21  22
ENDBRANCH  20  21
ENDBRANCH  18  20
ENDBRANCH  17  18
ENDBRANCH  16  17
ENDBRANCH   1  16
TORSDOF 14
ENDMDL
MODEL 2
REMARK VINA RESULT:      -6.4      5.413      7.048
REMARK  Name = *****
REMARK                            x       y       z     vdW  Elec       q    Type
REMARK                         _______ _______ _______ _____ _____    ______ ____
ROOT
ATOM      1  C   LIG    1       24.883 -23.231   6.425  0.00  0.00    +0.268 C 
ENDROOT
BRANCH   1   2
ATOM      2  P   LIG    1       23.219 -22.545   6.707  0.00  0.00    +0.371 P 
ATOM      3  O   LIG    1       23.019 -21.680   7.911  0.00  0.00    -0.255 OA
BRANCH   2   4
ATOM      4  O   LIG    1       22.197 -23.784   6.728  0.00  0.00    -0.322 OA
ATOM      5  H   LIG    1       22.019 -24.118   7.626  0.00  0.00    +0.220 HD
ENDBRANCH   2   4
BRANCH   2   6
ATOM      6  O   LIG    1       22.730 -21.806   5.376  0.00  0.00    -0.322 OA
ATOM      7  H   LIG    1       21.779 -21.908   5.189  0.00  0.00    +0.220 HD
ENDBRANCH   2   6
ENDBRANCH   1   2
BRANCH   1   8
ATOM      8  P   LIG    1       24.878 -24.948   5.805  0.00  0.00    +0.371 P 
ATOM      9  O   LIG    1       23.897 -25.933   6.327  0.00  0.00    -0.255 OA
BRANCH   8  10
ATOM     10  O   LIG    1       26.385 -25.503   5.925  0.00  0.00    -0.322 OA
ATOM     11  H   LIG    1       26.681 -25.623   6.844  0.00  0.00    +0.220 HD
ENDBRANCH   8  10
BRANCH   8  12
ATOM     12  O   LIG    1       24.797 -24.800   4.202  0.00  0.00    -0.322 OA
ATOM     13  H   LIG    1       23.971 -24.377   3.897  0.00  0.00    +0.220 HD
ENDBRANCH   8  12
ENDBRANCH   1   8
BRANCH   1  14
ATOM     14  O   LIG    1       25.450 -22.435   5.327  0.00  0.00    -0.367 OA
ATOM     15  H   LIG    1       25.204 -22.906   4.502  0.00  0.00    +0.212 HD
ENDBRANCH   1  14
BRANCH   1  16
ATOM     16  C   LIG    1       25.849 -23.041   7.603  0.00  0.00    +0.076 C 
BRANCH  16  17
ATOM     17  C   LIG    1       27.115 -22.233   7.276  0.00  0.00    +0.088 C 
BRANCH  17  18
ATOM     18  N   LIG    1       27.372 -21.122   8.218  0.00  0.00    -0.305 NA
ATOM     19  C   LIG    1       26.120 -20.531   8.702  0.00  0.00    +0.105 C 
BRANCH  18  20
ATOM     20  C   LIG    1       28.202 -20.066   7.596  0.00  0.00    +0.084 C 
BRANCH  20  21
ATOM     21  C   LIG    1       29.696 -20.416   7.487  0.00  0.00    +0.015 C 
BRANCH  21  22
ATOM     22  C   LIG    1       30.512 -19.195   7.038  0.00  0.00    +0.001 C 
BRANCH  22  24
ATOM     23  C   LIG    1       30.605 -17.654   9.031  0.00  0.00    +0.004 C 
ATOM     24  C   LIG    1       31.377 -18.644   8.173  0.00  0.00    -0.003 C 
ENDBRANCH  22  24
ENDBRANCH  21  22
ENDBRANCH  20  21
ENDBRANCH  18  20
ENDBRANCH  17  18
ENDBRANCH  16  17
ENDBRANCH   1  16
TORSDOF 14
ENDMDL
MODEL 3
REMARK VINA RESULT:      -6.3      1.014      2.964
REMARK  Name = *****
REMARK                            x       y       z     vdW  Elec       q    Type
REMARK                         _______ _______ _______ _____ _____    ______ ____
ROOT
ATOM      1  C   LIG    1       29.817 -20.466   7.778  0.00  0.00    +0.268 C 
ENDROOT
BRANCH   1   2
ATOM      2  P   LIG    1       31.010 -21.221   8.928  0.00  0.00    +0.371 P 
ATOM      3  O   LIG    1       30.466 -22.006  10.079  0.00  0.00    -0.255 OA
BRANCH   2   4
ATOM      4  O   LIG    1       31.968 -20.044   9.453  0.00  0.00    -0.322 OA
ATOM      5  H   LIG    1       31.666 -19.156   9.186  0.00  0.00    +0.220 HD
ENDBRANCH   2   4
BRANCH   2   6
ATOM      6  O   LIG    1       32.066 -22.082   8.089  0.00  0.00    -0.322 OA
ATOM      7  H   LIG    1       32.699 -21.548   7.576  0.00  0.00    +0.220 HD
ENDBRANCH   2   6
ENDBRANCH   1   2
BRANCH   1   8
ATOM      8  P   LIG    1       30.448 -18.976   6.933  0.00  0.00    +0.371 P 
ATOM      9  O   LIG    1       29.795 -18.482   5.694  0.00  0.00    -0.255 OA
BRANCH   8  10
ATOM     10  O   LIG    1       32.030 -19.183   6.716  0.00  0.00    -0.322 OA
ATOM     11  H   LIG    1       32.269 -19.420   5.804  0.00  0.00    +0.220 HD
ENDBRANCH   8  10
BRANCH   8  12
ATOM     12  O   LIG    1       30.501 -17.848   8.083  0.00  0.00    -0.322 OA
ATOM     13  H   LIG    1       29.885 -17.107   7.923  0.00  0.00    +0.220 HD
ENDBRANCH   8  12
ENDBRANCH   1   8
BRANCH   1  14
ATOM     14  O   LIG    1       29.630 -21.455   6.707  0.00  0.00    -0.367 OA
ATOM     15  H   LIG    1       29.959 -22.306   7.068  0.00  0.00    +0.212 HD
ENDBRANCH   1  14
BRANCH   1  16
ATOM     16  C   LIG    1       28.420 -20.248   8.376  0.00  0.00    +0.076 C 
BRANCH  16  17
ATOM     17  C   LIG    1       27.272 -20.258   7.355  0.00  0.00    +0.088 C 
BRANCH  17  18
ATOM     18  N   LIG    1       25.959 -20.609   7.939  0.00  0.00    -0.305 NA
ATOM     19  C   LIG    1       26.033 -21.855   8.710  0.00  0.00    +0.105 C 
BRANCH  18  20
ATOM     20  C   LIG    1       24.920 -20.744   6.893  0.00  0.00    +0.084 C 
BRANCH  20  21
ATOM     21  C   LIG    1       25.429 -20.514   5.460  0.00  0.00    +0.015 C 
BRANCH  21  22
ATOM     22  C   LIG    1       24.259 -20.278   4.496  0.00  0.00    +0.001 C 
BRANCH  22  24
ATOM     23  C   LIG    1       22.284 -18.717   4.648  0.00  0.00    +0.004 C 
ATOM     24  C   LIG    1       22.969 -19.938   5.243  0.00  0.00    -0.003 C 
ENDBRANCH  22  24
ENDBRANCH  21  22
ENDBRANCH  20  21
ENDBRANCH  18  20
ENDBRANCH  17  18
ENDBRANCH  16  17
ENDBRANCH   1  16
TORSDOF 14
ENDMDL
MODEL 4
REMARK VINA RESULT:      -6.1      5.166      7.314
REMARK  Name = *****
REMARK                            x       y       z     vdW  Elec       q    Type
REMARK                         _______ _______ _______ _____ _____    ______ ____
ROOT
ATOM      1  C   LIG    1       23.995 -21.584   6.732  0.00  0.00    +0.268 C 
ENDROOT
BRANCH   1   2
ATOM      2  P   LIG    1       24.406 -23.325   6.395  0.00  0.00    +0.371 P 
ATOM      3  O   LIG    1       25.521 -23.941   7.180  0.00  0.00    -0.255 OA
BRANCH   2   4
ATOM      4  O   LIG    1       24.695 -23.444   4.820  0.00  0.00    -0.322 OA
ATOM      5  H   LIG    1       25.645 -23.506   4.608  0.00  0.00    +0.220 HD
ENDBRANCH   2   4
BRANCH   2   6
ATOM      6  O   LIG    1       23.073 -24.203   6.498  0.00  0.00    -0.322 OA
ATOM      7  H   LIG    1       22.759 -24.348   7.409  0.00  0.00    +0.220 HD
ENDBRANCH   2   6
ENDBRANCH   1   2
BRANCH   1   8
ATOM      8  P   LIG    1       23.009 -20.790   5.416  0.00  0.00    +0.371 P 
ATOM      9  O   LIG    1       22.512 -19.401   5.584  0.00  0.00    -0.255 OA
BRANCH   8  10
ATOM     10  O   LIG    1       21.810 -21.798   5.043  0.00  0.00    -0.322 OA
ATOM     11  H   LIG    1       21.030 -21.352   4.670  0.00  0.00    +0.220 HD
ENDBRANCH   8  10
BRANCH   8  12
ATOM     12  O   LIG    1       23.900 -20.960   4.083  0.00  0.00    -0.322 OA
ATOM     13  H   LIG    1       24.813 -20.632   4.188  0.00  0.00    +0.220 HD
ENDBRANCH   8  12
ENDBRANCH   1   8
BRANCH   1  14
ATOM     14  O   LIG    1       23.105 -21.615   7.901  0.00  0.00    -0.367 OA
ATOM     15  H   LIG    1       22.402 -22.265   7.686  0.00  0.00    +0.212 HD
ENDBRANCH   1  14
BRANCH   1  16
ATOM     16  C   LIG    1       25.194 -20.725   7.158  0.00  0.00    +0.076 C 
BRANCH  16  17
ATOM     17  C   LIG    1       26.283 -20.559   6.087  0.00  0.00    +0.088 C 
BRANCH  17  18
ATOM     18  N   LIG    1       27.632 -20.957   6.544  0.00  0.00    -0.305 NA
ATOM     19  C   LIG    1       27.642 -21.266   7.977  0.00  0.00    +0.105 C 
BRANCH  18  20
ATOM     20  C   LIG    1       28.631 -19.900   6.266  0.00  0.00    +0.084 C 
BRANCH  20  21
ATOM     21  C   LIG    1       29.395 -19.408   7.507  0.00  0.00    +0.015 C 
BRANCH  21  22
ATOM     22  C   LIG    1       30.908 -19.403   7.251  0.00  0.00    +0.001 C 
BRANCH  22  24
ATOM     23  C   LIG    1       30.671 -17.678   9.075  0.00  0.00    +0.004 C 
ATOM     24  C   LIG    1       31.644 -18.479   8.223  0.00  0.00    -0.003 C 
ENDBRANCH  22  24
ENDBRANCH  21  22
ENDBRANCH  20  21
ENDBRANCH  18  20
ENDBRANCH  17  18
ENDBRANCH  16  17
ENDBRANCH   1  16
TORSDOF 14
ENDMDL
MODEL 5
REMARK VINA RESULT:      -5.9      4.889      6.877
REMARK  Name = *****
REMARK                            x       y       z     vdW  Elec       q    Type
REMARK                         _______ _______ _______ _____ _____    ______ ____
ROOT
ATOM      1  C   LIG    1       24.974 -21.847   6.054  0.00  0.00    +0.268 C 
ENDROOT
BRANCH   1   2
ATOM      2  P   LIG    1       23.282 -21.240   6.339  0.00  0.00    +0.371 P 
ATOM      3  O   LIG    1       22.984 -19.818   5.984  0.00  0.00    -0.255 OA
BRANCH   2   4
ATOM      4  O   LIG    1       22.936 -21.518   7.883  0.00  0.00    -0.322 OA
ATOM      5  H   LIG    1       23.274 -22.375   8.203  0.00  0.00    +0.220 HD
ENDBRANCH   2   4
BRANCH   2   6
ATOM      6  O   LIG    1       22.247 -22.240   5.640  0.00  0.00    -0.322 OA
ATOM      7  H   LIG    1       22.663 -23.015   5.221  0.00  0.00    +0.220 HD
ENDBRANCH   2   6
ENDBRANCH   1   2
BRANCH   1   8
ATOM      8  P   LIG    1       25.132 -23.664   6.140  0.00  0.00    +0.371 P 
ATOM      9  O   LIG    1       26.316 -24.285   6.786  0.00  0.00    -0.255 OA
BRANCH   8  10
ATOM     10  O   LIG    1       24.913 -24.234   4.650  0.00  0.00    -0.322 OA
ATOM     11  H   LIG    1       25.665 -24.064   4.056  0.00  0.00    +0.220 HD
ENDBRANCH   8  10
BRANCH   8  12
ATOM     12  O   LIG    1       23.748 -24.160   6.801  0.00  0.00    -0.322 OA
ATOM     13  H   LIG    1       23.705 -25.129   6.919  0.00  0.00    +0.220 HD
ENDBRANCH   8  12
ENDBRANCH   1   8
BRANCH   1  14
ATOM     14  O   LIG    1       25.278 -21.509   4.656  0.00  0.00    -0.367 OA
ATOM     15  H   LIG    1       24.817 -20.662   4.480  0.00  0.00    +0.212 HD
ENDBRANCH   1  14
BRANCH   1  16
ATOM     16  C   LIG    1       26.048 -21.130   6.886  0.00  0.00    +0.076 C 
BRANCH  16  17
ATOM     17  C   LIG    1       27.063 -20.317   6.068  0.00  0.00    +0.088 C 
BRANCH  17  18
ATOM     18  N   LIG    1       28.471 -20.587   6.429  0.00  0.00    -0.305 NA
ATOM     19  C   LIG    1       28.565 -21.387   7.655  0.00  0.00    +0.105 C 
BRANCH  18  20
ATOM     20  C   LIG    1       29.235 -19.331   6.607  0.00  0.00    +0.084 C 
BRANCH  20  21
ATOM     21  C   LIG    1       30.700 -19.534   7.028  0.00  0.00    +0.015 C 
BRANCH  21  22
ATOM     22  C   LIG    1       31.111 -18.506   8.091  0.00  0.00    +0.001 C 
BRANCH  22  24
ATOM     23  C   LIG    1       30.403 -17.537  10.309  0.00  0.00    +0.004 C 
ATOM     24  C   LIG    1       29.932 -18.111   8.981  0.00  0.00    -0.003 C 
ENDBRANCH  22  24
ENDBRANCH  21  22
ENDBRANCH  20  21
ENDBRANCH  18  20
ENDBRANCH  17  18
ENDBRANCH  16  17
ENDBRANCH   1  16
TORSDOF 14
ENDMDL
MODEL 6
REMARK VINA RESULT:      -5.8      4.915      6.943
REMARK  Name = *****
REMARK                            x       y       z     vdW  Elec       q    Type
REMARK                         _______ _______ _______ _____ _____    ______ ____
ROOT
ATOM      1  C   LIG    1       24.826 -21.674   5.925  0.00  0.00    +0.268 C 
ENDROOT
BRANCH   1   2
ATOM      2  P   LIG    1       24.464 -20.689   4.437  0.00  0.00    +0.371 P 
ATOM      3  O   LIG    1       23.545 -19.518   4.584  0.00  0.00    -0.255 OA
BRANCH   2   4
ATOM      4  O   LIG    1       23.906 -21.705   3.325  0.00  0.00    -0.322 OA
ATOM      5  H   LIG    1       24.371 -21.631   2.471  0.00  0.00    +0.220 HD
ENDBRANCH   2   4
BRANCH   2   6
ATOM      6  O   LIG    1       25.844 -20.259   3.750  0.00  0.00    -0.322 OA
ATOM      7  H   LIG    1       26.631 -20.416   4.303  0.00  0.00    +0.220 HD
ENDBRANCH   2   6
ENDBRANCH   1   2
BRANCH   1   8
ATOM      8  P   LIG    1       23.356 -22.470   6.659  0.00  0.00    +0.371 P 
ATOM      9  O   LIG    1       23.358 -23.927   6.951  0.00  0.00    -0.255 OA
BRANCH   8  10
ATOM     10  O   LIG    1       22.088 -22.057   5.757  0.00  0.00    -0.322 OA
ATOM     11  H   LIG    1       21.313 -21.788   6.279  0.00  0.00    +0.220 HD
ENDBRANCH   8  10
BRANCH   8  12
ATOM     12  O   LIG    1       23.029 -21.588   7.968  0.00  0.00    -0.322 OA
ATOM     13  H   LIG    1       22.918 -22.126   8.775  0.00  0.00    +0.220 HD
ENDBRANCH   8  12
ENDBRANCH   1   8
BRANCH   1  14
ATOM     14  O   LIG    1       25.664 -22.788   5.459  0.00  0.00    -0.367 OA
ATOM     15  H   LIG    1       25.506 -22.857   4.493  0.00  0.00    +0.212 HD
ENDBRANCH   1  14
BRANCH   1  16
ATOM     16  C   LIG    1       25.675 -20.940   6.973  0.00  0.00    +0.076 C 
BRANCH  16  17
ATOM     17  C   LIG    1       27.151 -21.364   7.020  0.00  0.00    +0.088 C 
BRANCH  17  18
ATOM     18  N   LIG    1       28.093 -20.227   7.115  0.00  0.00    -0.305 NA
ATOM     19  C   LIG    1       28.433 -19.702   5.788  0.00  0.00    +0.105 C 
BRANCH  18  20
ATOM     20  C   LIG    1       29.337 -20.611   7.820  0.00  0.00    +0.084 C 
BRANCH  20  21
ATOM     21  C   LIG    1       30.573 -19.788   7.420  0.00  0.00    +0.015 C 
BRANCH  21  22
ATOM     22  C   LIG    1       31.131 -19.020   8.626  0.00  0.00    +0.001 C 
BRANCH  22  24
ATOM     23  C   LIG    1       30.340 -17.477  10.456  0.00  0.00    +0.004 C 
ATOM     24  C   LIG    1       30.269 -17.806   8.972  0.00  0.00    -0.003 C 
ENDBRANCH  22  24
ENDBRANCH  21  22
ENDBRANCH  20  21
ENDBRANCH  18  20
ENDBRANCH  17  18
ENDBRANCH  16  17
ENDBRANCH   1  16
TORSDOF 14
ENDMDL
MODEL 7
REMARK VINA RESULT:      -5.7      5.203      6.816
REMARK  Name = *****
REMARK                            x       y       z     vdW  Elec       q    Type
REMARK                         _______ _______ _______ _____ _____    ______ ____
ROOT
ATOM      1  C   LIG    1       24.657 -21.602   5.488  0.00  0.00    +0.268 C 
ENDROOT
BRANCH   1   2
ATOM      2  P   LIG    1       24.210 -20.624   4.019  0.00  0.00    +0.371 P 
ATOM      3  O   LIG    1       23.178 -19.553   4.184  0.00  0.00    -0.255 OA
BRANCH   2   4
ATOM      4  O   LIG    1       23.763 -21.664   2.880  0.00  0.00    -0.322 OA
ATOM      5  H   LIG    1       23.160 -22.356   3.208  0.00  0.00    +0.220 HD
ENDBRANCH   2   4
BRANCH   2   6
ATOM      6  O   LIG    1       25.544 -20.044   3.355  0.00  0.00    -0.322 OA
ATOM      7  H   LIG    1       25.453 -19.143   2.996  0.00  0.00    +0.220 HD
ENDBRANCH   2   6
ENDBRANCH   1   2
BRANCH   1   8
ATOM      8  P   LIG    1       23.223 -22.140   6.482  0.00  0.00    +0.371 P 
ATOM      9  O   LIG    1       23.018 -21.608   7.853  0.00  0.00    -0.255 OA
BRANCH   8  10
ATOM     10  O   LIG    1       23.212 -23.750   6.473  0.00  0.00    -0.322 OA
ATOM     11  H   LIG    1       23.683 -24.136   5.714  0.00  0.00    +0.220 HD
ENDBRANCH   8  10
BRANCH   8  12
ATOM     12  O   LIG    1       21.949 -21.877   5.531  0.00  0.00    -0.322 OA
ATOM     13  H   LIG    1       22.010 -22.338   4.672  0.00  0.00    +0.220 HD
ENDBRANCH   8  12
ENDBRANCH   1   8
BRANCH   1  14
ATOM     14  O   LIG    1       25.239 -22.846   4.965  0.00  0.00    -0.367 OA
ATOM     15  H   LIG    1       24.687 -23.095   4.193  0.00  0.00    +0.212 HD
ENDBRANCH   1  14
BRANCH   1  16
ATOM     16  C   LIG    1       25.759 -20.971   6.351  0.00  0.00    +0.076 C 
BRANCH  16  17
ATOM     17  C   LIG    1       26.781 -21.967   6.922  0.00  0.00    +0.088 C 
BRANCH  17  18
ATOM     18  N   LIG    1       27.454 -21.490   8.150  0.00  0.00    -0.305 NA
ATOM     19  C   LIG    1       26.767 -20.326   8.719  0.00  0.00    +0.105 C 
BRANCH  18  20
ATOM     20  C   LIG    1       28.870 -21.144   7.892  0.00  0.00    +0.084 C 
BRANCH  20  21
ATOM     21  C   LIG    1       29.087 -20.227   6.676  0.00  0.00    +0.015 C 
BRANCH  21  22
ATOM     22  C   LIG    1       29.951 -19.016   7.051  0.00  0.00    +0.001 C 
BRANCH  22  24
ATOM     23  C   LIG    1       30.206 -17.636   9.146  0.00  0.00    +0.004 C 
ATOM     24  C   LIG    1       30.323 -19.024   8.535  0.00  0.00    -0.003 C 
ENDBRANCH  22  24
ENDBRANCH  21  22
ENDBRANCH  20  21
ENDBRANCH  18  20
ENDBRANCH  17  18
ENDBRANCH  16  17
ENDBRANCH   1  16
TORSDOF 14
ENDMDL
MODEL 8
REMARK VINA RESULT:      -5.7      6.395      7.711
REMARK  Name = *****
REMARK                            x       y       z     vdW  Elec       q    Type
REMARK                         _______ _______ _______ _____ _____    ______ ____
ROOT
ATOM      1  C   LIG    1       25.217 -22.838   6.783  0.00  0.00    +0.268 C 
ENDROOT
BRANCH   1   2
ATOM      2  P   LIG    1       26.034 -21.682   7.928  0.00  0.00    +0.371 P 
ATOM      3  O   LIG    1       25.641 -21.737   9.371  0.00  0.00    -0.255 OA
BRANCH   2   4
ATOM      4  O   LIG    1       25.814 -20.204   7.341  0.00  0.00    -0.322 OA
ATOM      5  H   LIG    1       26.648 -19.754   7.111  0.00  0.00    +0.220 HD
ENDBRANCH   2   4
BRANCH   2   6
ATOM      6  O   LIG    1       27.619 -21.814   7.755  0.00  0.00    -0.322 OA
ATOM      7  H   LIG    1       28.009 -22.580   8.214  0.00  0.00    +0.220 HD
ENDBRANCH   2   6
ENDBRANCH   1   2
BRANCH   1   8
ATOM      8  P   LIG    1       23.396 -22.705   6.774  0.00  0.00    +0.371 P 
ATOM      9  O   LIG    1       22.553 -23.919   6.918  0.00  0.00    -0.255 OA
BRANCH   8  10
ATOM     10  O   LIG    1       22.986 -21.860   5.466  0.00  0.00    -0.322 OA
ATOM     11  H   LIG    1       23.596 -21.130   5.269  0.00  0.00    +0.220 HD
ENDBRANCH   8  10
BRANCH   8  12
ATOM     12  O   LIG    1       23.065 -21.598   7.898  0.00  0.00    -0.322 OA
ATOM     13  H   LIG    1       22.988 -20.694   7.535  0.00  0.00    +0.220 HD
ENDBRANCH   8  12
ENDBRANCH   1   8
BRANCH   1  14
ATOM     14  O   LIG    1       25.632 -22.413   5.439  0.00  0.00    -0.367 OA
ATOM     15  H   LIG    1       25.092 -22.941   4.813  0.00  0.00    +0.212 HD
ENDBRANCH   1  14
BRANCH   1  16
ATOM     16  C   LIG    1       25.693 -24.293   6.912  0.00  0.00    +0.076 C 
BRANCH  16  17
ATOM     17  C   LIG    1       25.516 -25.144   5.646  0.00  0.00    +0.088 C 
BRANCH  17  18
ATOM     18  N   LIG    1       25.714 -26.593   5.870  0.00  0.00    -0.305 NA
ATOM     19  C   LIG    1       26.461 -27.208   4.768  0.00  0.00    +0.105 C 
BRANCH  18  20
ATOM     20  C   LIG    1       24.422 -27.296   6.036  0.00  0.00    +0.084 C 
BRANCH  20  21
ATOM     21  C   LIG    1       24.353 -28.667   5.342  0.00  0.00    +0.015 C 
BRANCH  21  22
ATOM     22  C   LIG    1       24.175 -29.792   6.370  0.00  0.00    +0.001 C 
BRANCH  22  24
ATOM     23  C   LIG    1       23.920 -30.226   8.841  0.00  0.00    +0.004 C 
ATOM     24  C   LIG    1       24.547 -29.333   7.781  0.00  0.00    -0.003 C 
ENDBRANCH  22  24
ENDBRANCH  21  22
ENDBRANCH  20  21
ENDBRANCH  18  20
ENDBRANCH  17  18
ENDBRANCH  16  17
ENDBRANCH   1  16
TORSDOF 14
ENDMDL
MODEL 9
REMARK VINA RESULT:      -5.4      4.676      6.679
REMARK  Name = *****
REMARK                            x       y       z     vdW  Elec       q    Type
REMARK                         _______ _______ _______ _____ _____    ______ ____
ROOT
ATOM      1  C   LIG    1       25.249 -21.153   6.096  0.00  0.00    +0.268 C 
ENDROOT
BRANCH   1   2
ATOM      2  P   LIG    1       24.446 -20.462   4.615  0.00  0.00    +0.371 P 
ATOM      3  O   LIG    1       25.253 -19.547   3.749  0.00  0.00    -0.255 OA
BRANCH   2   4
ATOM      4  O   LIG    1       23.102 -19.732   5.106  0.00  0.00    -0.322 OA
ATOM      5  H   LIG    1       22.748 -20.100   5.936  0.00  0.00    +0.220 HD
ENDBRANCH   2   4
BRANCH   2   6
ATOM      6  O   LIG    1       23.813 -21.658   3.761  0.00  0.00    -0.322 OA
ATOM      7  H   LIG    1       22.850 -21.759   3.868  0.00  0.00    +0.220 HD
ENDBRANCH   2   6
ENDBRANCH   1   2
BRANCH   1   8
ATOM      8  P   LIG    1       24.078 -21.664   7.401  0.00  0.00    +0.371 P 
ATOM      9  O   LIG    1       23.155 -22.805   7.176  0.00  0.00    -0.255 OA
BRANCH   8  10
ATOM     10  O   LIG    1       23.277 -20.347   7.866  0.00  0.00    -0.322 OA
ATOM     11  H   LIG    1       23.823 -19.542   7.870  0.00  0.00    +0.220 HD
ENDBRANCH   8  10
BRANCH   8  12
ATOM     12  O   LIG    1       24.995 -21.871   8.710  0.00  0.00    -0.322 OA
ATOM     13  H   LIG    1       25.743 -22.482   8.562  0.00  0.00    +0.220 HD
ENDBRANCH   8  12
ENDBRANCH   1   8
BRANCH   1  14
ATOM     14  O   LIG    1       25.881 -22.403   5.648  0.00  0.00    -0.367 OA
ATOM     15  H   LIG    1       26.829 -22.324   5.888  0.00  0.00    +0.212 HD
ENDBRANCH   1  14
BRANCH   1  16
ATOM     16  C   LIG    1       26.396 -20.295   6.647  0.00  0.00    +0.076 C 
BRANCH  16  17
ATOM     17  C   LIG    1       27.668 -20.286   5.785  0.00  0.00    +0.088 C 
BRANCH  17  18
ATOM     18  N   LIG    1       28.910 -20.516   6.554  0.00  0.00    -0.305 NA
ATOM     19  C   LIG    1       28.658 -21.336   7.744  0.00  0.00    +0.105 C 
BRANCH  18  20
ATOM     20  C   LIG    1       29.537 -19.240   6.965  0.00  0.00    +0.084 C 
BRANCH  20  21
ATOM     21  C   LIG    1       31.061 -19.317   7.165  0.00  0.00    +0.015 C 
BRANCH  21  22
ATOM     22  C   LIG    1       31.491 -18.512   8.399  0.00  0.00    +0.001 C 
BRANCH  22  24
ATOM     23  C   LIG    1       30.404 -17.550  10.461  0.00  0.00    +0.004 C 
ATOM     24  C   LIG    1       30.347 -17.657   8.944  0.00  0.00    -0.003 C 
ENDBRANCH  22  24
ENDBRANCH  21  22
ENDBRANCH  20  21
ENDBRANCH  18  20
ENDBRANCH  17  18
ENDBRANCH  16  17
ENDBRANCH   1  16
TORSDOF 14
ENDMDL
