MODEL 1
REMARK VINA RESULT:      -5.6      0.000      0.000
REMARK  Name = *****
REMARK                            x       y       z     vdW  Elec       q    Type
REMARK                         _______ _______ _______ _____ _____    ______ ____
ROOT
ATOM      1  C   LIG    1       30.471 -20.149   7.621  0.00  0.00    +0.054 A 
ATOM      2  C   LIG    1       30.752 -19.022   6.861  0.00  0.00    +0.123 A 
ATOM      3  N   LIG    1       29.915 -18.513   5.922  0.00  0.00    -0.263 NA
ATOM      4  C   LIG    1       28.753 -19.174   5.722  0.00  0.00    +0.111 A 
ATOM      5  C   LIG    1       28.391 -20.320   6.413  0.00  0.00    +0.020 A 
ATOM      6  C   LIG    1       29.268 -20.816   7.376  0.00  0.00    +0.016 A 
ENDROOT
BRANCH   1  10
ATOM      7  N   LIG    1       31.591 -22.028   8.703  0.00  0.00    -0.325 N 
ATOM      8  H   LIG    1       31.320 -22.663   7.966  0.00  0.00    +0.145 HD
ATOM      9  H   LIG    1       32.308 -22.345   9.346  0.00  0.00    +0.145 HD
ATOM     10  C   LIG    1       31.398 -20.675   8.646  0.00  0.00    +0.243 C 
ATOM     11  O   LIG    1       32.010 -19.925   9.396  0.00  0.00    -0.270 OA
ENDBRANCH   1  10
TORSDOF 1
ENDMDL
MODEL 2
REMARK VINA RESULT:      -5.5      1.021      1.625
REMARK  Name = *****
REMARK                            x       y       z     vdW  Elec       q    Type
REMARK                         _______ _______ _______ _____ _____    ______ ____
ROOT
ATOM      1  C   LIG    1       30.323 -20.248   7.635  0.00  0.00    +0.054 A 
ATOM      2  C   LIG    1       29.167 -20.990   7.435  0.00  0.00    +0.123 A 
ATOM      3  N   LIG    1       28.207 -20.670   6.530  0.00  0.00    -0.263 NA
ATOM      4  C   LIG    1       28.406 -19.546   5.806  0.00  0.00    +0.111 A 
ATOM      5  C   LIG    1       29.515 -18.727   5.947  0.00  0.00    +0.020 A 
ATOM      6  C   LIG    1       30.486 -19.084   6.880  0.00  0.00    +0.016 A 
ENDROOT
BRANCH   1  10
ATOM      7  N   LIG    1       31.661 -21.952   8.757  0.00  0.00    -0.325 N 
ATOM      8  H   LIG    1       31.392 -22.659   8.088  0.00  0.00    +0.145 HD
ATOM      9  H   LIG    1       32.443 -22.166   9.366  0.00  0.00    +0.145 HD
ATOM     10  C   LIG    1       31.357 -20.626   8.621  0.00  0.00    +0.243 C 
ATOM     11  O   LIG    1       31.956 -19.778   9.271  0.00  0.00    -0.270 OA
ENDBRANCH   1  10
TORSDOF 1
ENDMDL
MODEL 3
REMARK VINA RESULT:      -5.4      6.726      7.347
REMARK  Name = *****
REMARK                            x       y       z     vdW  Elec       q    Type
REMARK                         _______ _______ _______ _____ _____    ______ ____
ROOT
ATOM      1  C   LIG    1       23.441 -20.942   5.657  0.00  0.00    +0.054 A 
ATOM      2  C   LIG    1       24.546 -21.060   4.827  0.00  0.00    +0.123 A 
ATOM      3  N   LIG    1       24.836 -20.194   3.823  0.00  0.00    -0.263 NA
ATOM      4  C   LIG    1       23.968 -19.176   3.629  0.00  0.00    +0.111 A 
ATOM      5  C   LIG    1       22.825 -18.986   4.389  0.00  0.00    +0.020 A 
ATOM      6  C   LIG    1       22.556 -19.887   5.417  0.00  0.00    +0.016 A 
ENDROOT
BRANCH   1  10
ATOM      7  N   LIG    1       22.740 -23.154   6.415  0.00  0.00    -0.325 N 
ATOM      8  H   LIG    1       22.823 -23.540   5.486  0.00  0.00    +0.145 HD
ATOM      9  H   LIG    1       22.652 -23.810   7.183  0.00  0.00    +0.145 HD
ATOM     10  C   LIG    1       23.156 -21.895   6.751  0.00  0.00    +0.243 C 
ATOM     11  O   LIG    1       23.326 -21.586   7.924  0.00  0.00    -0.270 OA
ENDBRANCH   1  10
TORSDOF 1
ENDMDL
MODEL 4
REMARK VINA RESULT:      -5.4      4.523      5.288
REMARK  Name = *****
REMARK                            x       y       z     vdW  Elec       q    Type
REMARK                         _______ _______ _______ _____ _____    ______ ____
ROOT
ATOM      1  C   LIG    1       25.317 -20.741   7.119  0.00  0.00    +0.054 A 
ATOM      2  C   LIG    1       25.806 -20.588   5.829  0.00  0.00    +0.123 A 
ATOM      3  N   LIG    1       25.022 -20.389   4.740  0.00  0.00    -0.263 NA
ATOM      4  C   LIG    1       23.686 -20.362   4.949  0.00  0.00    +0.111 A 
ATOM      5  C   LIG    1       23.100 -20.528   6.194  0.00  0.00    +0.020 A 
ATOM      6  C   LIG    1       23.931 -20.724   7.295  0.00  0.00    +0.016 A 
ENDROOT
BRANCH   1  10
ATOM      7  N   LIG    1       27.396 -21.571   8.091  0.00  0.00    -0.325 N 
ATOM      8  H   LIG    1       27.813 -21.703   7.180  0.00  0.00    +0.145 HD
ATOM      9  H   LIG    1       28.016 -21.603   8.892  0.00  0.00    +0.145 HD
ATOM     10  C   LIG    1       26.196 -20.947   8.290  0.00  0.00    +0.243 C 
ATOM     11  O   LIG    1       25.883 -20.534   9.400  0.00  0.00    -0.270 OA
ENDBRANCH   1  10
TORSDOF 1
ENDMDL
MODEL 5
REMARK VINA RESULT:      -5.3      6.903      7.587
REMARK  Name = *****
REMARK                            x       y       z     vdW  Elec       q    Type
REMARK                         _______ _______ _______ _____ _____    ______ ____
ROOT
ATOM      1  C   LIG    1       25.367 -25.340   6.534  0.00  0.00    +0.054 A 
ATOM      2  C   LIG    1       23.990 -25.422   6.387  0.00  0.00    +0.123 A 
ATOM      3  N   LIG    1       23.146 -24.372   6.554  0.00  0.00    -0.263 NA
ATOM      4  C   LIG    1       23.705 -23.193   6.904  0.00  0.00    +0.111 A 
ATOM      5  C   LIG    1       25.066 -23.015   7.097  0.00  0.00    +0.020 A 
ATOM      6  C   LIG    1       25.909 -24.109   6.912  0.00  0.00    +0.016 A 
ENDROOT
BRANCH   1  10
ATOM      7  N   LIG    1       26.198 -27.525   7.237  0.00  0.00    -0.325 N 
ATOM      8  H   LIG    1       25.439 -27.645   7.892  0.00  0.00    +0.145 HD
ATOM      9  H   LIG    1       26.750 -28.345   7.014  0.00  0.00    +0.145 HD
ATOM     10  C   LIG    1       26.264 -26.499   6.335  0.00  0.00    +0.243 C 
ATOM     11  O   LIG    1       27.016 -26.563   5.370  0.00  0.00    -0.270 OA
ENDBRANCH   1  10
TORSDOF 1
ENDMDL
MODEL 6
REMARK VINA RESULT:      -5.2      3.603      4.479
REMARK  Name = *****
REMARK                            x       y       z     vdW  Elec       q    Type
REMARK                         _______ _______ _______ _____ _____    ______ ____
ROOT
ATOM      1  C   LIG    1       31.072 -17.932   8.856  0.00  0.00    +0.054 A 
ATOM      2  C   LIG    1       30.045 -17.754   9.772  0.00  0.00    +0.123 A 
ATOM      3  N   LIG    1       30.147 -16.986  10.887  0.00  0.00    -0.263 NA
ATOM      4  C   LIG    1       31.339 -16.385  11.103  0.00  0.00    +0.111 A 
ATOM      5  C   LIG    1       32.431 -16.519  10.260  0.00  0.00    +0.020 A 
ATOM      6  C   LIG    1       32.294 -17.308   9.120  0.00  0.00    +0.016 A 
ENDROOT
BRANCH   1  10
ATOM      7  N   LIG    1       31.417 -20.043   7.682  0.00  0.00    -0.325 N 
ATOM      8  H   LIG    1       31.667 -20.521   8.536  0.00  0.00    +0.145 HD
ATOM      9  H   LIG    1       31.211 -20.619   6.873  0.00  0.00    +0.145 HD
ATOM     10  C   LIG    1       30.929 -18.767   7.644  0.00  0.00    +0.243 C 
ATOM     11  O   LIG    1       30.353 -18.347   6.648  0.00  0.00    -0.270 OA
ENDBRANCH   1  10
TORSDOF 1
ENDMDL
MODEL 7
REMARK VINA RESULT:      -5.2      3.336      4.103
REMARK  Name = *****
REMARK                            x       y       z     vdW  Elec       q    Type
REMARK                         _______ _______ _______ _____ _____    ______ ____
ROOT
ATOM      1  C   LIG    1       27.009 -20.477   7.393  0.00  0.00    +0.054 A 
ATOM      2  C   LIG    1       26.122 -20.622   8.451  0.00  0.00    +0.123 A 
ATOM      3  N   LIG    1       24.787 -20.810   8.300  0.00  0.00    -0.263 NA
ATOM      4  C   LIG    1       24.316 -20.833   7.033  0.00  0.00    +0.111 A 
ATOM      5  C   LIG    1       25.116 -20.675   5.913  0.00  0.00    +0.020 A 
ATOM      6  C   LIG    1       26.485 -20.491   6.098  0.00  0.00    +0.016 A 
ENDROOT
BRANCH   1  10
ATOM      7  N   LIG    1       29.315 -20.923   6.730  0.00  0.00    -0.325 N 
ATOM      8  H   LIG    1       29.024 -21.333   5.855  0.00  0.00    +0.145 HD
ATOM      9  H   LIG    1       30.297 -20.688   6.828  0.00  0.00    +0.145 HD
ATOM     10  C   LIG    1       28.462 -20.285   7.587  0.00  0.00    +0.243 C 
ATOM     11  O   LIG    1       28.895 -19.543   8.462  0.00  0.00    -0.270 OA
ENDBRANCH   1  10
TORSDOF 1
ENDMDL
MODEL 8
REMARK VINA RESULT:      -5.2      5.250      6.109
REMARK  Name = *****
REMARK                            x       y       z     vdW  Elec       q    Type
REMARK                         _______ _______ _______ _____ _____    ______ ____
ROOT
ATOM      1  C   LIG    1       25.359 -22.377   7.721  0.00  0.00    +0.054 A 
ATOM      2  C   LIG    1       25.763 -23.631   7.285  0.00  0.00    +0.123 A 
ATOM      3  N   LIG    1       24.943 -24.520   6.670  0.00  0.00    -0.263 NA
ATOM      4  C   LIG    1       23.656 -24.144   6.502  0.00  0.00    +0.111 A 
ATOM      5  C   LIG    1       23.150 -22.924   6.923  0.00  0.00    +0.020 A 
ATOM      6  C   LIG    1       24.017 -22.028   7.545  0.00  0.00    +0.016 A 
ENDROOT
BRANCH   1  10
ATOM      7  N   LIG    1       27.553 -21.322   7.896  0.00  0.00    -0.325 N 
ATOM      8  H   LIG    1       27.841 -21.685   6.999  0.00  0.00    +0.145 HD
ATOM      9  H   LIG    1       28.122 -20.588   8.303  0.00  0.00    +0.145 HD
ATOM     10  C   LIG    1       26.278 -21.423   8.379  0.00  0.00    +0.243 C 
ATOM     11  O   LIG    1       25.901 -20.711   9.302  0.00  0.00    -0.270 OA
ENDBRANCH   1  10
TORSDOF 1
ENDMDL
MODEL 9
REMARK VINA RESULT:      -5.2      5.864      6.758
REMARK  Name = *****
REMARK                            x       y       z     vdW  Elec       q    Type
REMARK                         _______ _______ _______ _____ _____    ______ ____
ROOT
ATOM      1  C   LIG    1       24.835 -22.938   6.959  0.00  0.00    +0.054 A 
ATOM      2  C   LIG    1       24.021 -21.907   7.405  0.00  0.00    +0.123 A 
ATOM      3  N   LIG    1       24.469 -20.841   8.116  0.00  0.00    -0.263 NA
ATOM      4  C   LIG    1       25.788 -20.817   8.409  0.00  0.00    +0.111 A 
ATOM      5  C   LIG    1       26.678 -21.809   8.029  0.00  0.00    +0.020 A 
ATOM      6  C   LIG    1       26.191 -22.889   7.295  0.00  0.00    +0.016 A 
ENDROOT
BRANCH   1  10
ATOM      7  N   LIG    1       24.923 -24.367   4.982  0.00  0.00    -0.325 N 
ATOM      8  H   LIG    1       25.819 -23.993   4.705  0.00  0.00    +0.145 HD
ATOM      9  H   LIG    1       24.615 -25.217   4.523  0.00  0.00    +0.145 HD
ATOM     10  C   LIG    1       24.322 -24.083   6.177  0.00  0.00    +0.243 C 
ATOM     11  O   LIG    1       23.412 -24.786   6.601  0.00  0.00    -0.270 OA
ENDBRANCH   1  10
TORSDOF 1
ENDMDL
