MODEL 1
REMARK VINA RESULT:      -6.3      0.000      0.000
REMARK  Name = *****
REMARK                            x       y       z     vdW  Elec       q    Type
REMARK                         _______ _______ _______ _____ _____    ______ ____
ROOT
ATOM      1  C   LIG    1       27.037 -20.439   7.807  0.00  0.00    +0.059 C 
ATOM      2  C   LIG    1       25.892 -21.255   7.247  0.00  0.00    +0.037 C 
ATOM      3  C   LIG    1       25.857 -20.753   8.672  0.00  0.00    +0.029 C 
ENDROOT
BRANCH   2   4
ATOM      4  C   LIG    1       24.973 -20.656   6.209  0.00  0.00    -0.043 A 
ATOM      5  C   LIG    1       23.601 -20.487   6.457  0.00  0.00    +0.004 A 
ATOM      6  C   LIG    1       22.746 -19.945   5.493  0.00  0.00    +0.000 A 
ATOM      7  C   LIG    1       23.248 -19.568   4.251  0.00  0.00    +0.000 A 
ATOM      8  C   LIG    1       24.602 -19.735   3.974  0.00  0.00    +0.000 A 
ATOM      9  C   LIG    1       25.452 -20.277   4.943  0.00  0.00    +0.004 A 
ENDBRANCH   2   4
BRANCH   1  10
ATOM     10  N   LIG    1       28.312 -21.097   8.091  0.00  0.00    -0.327 NA
ATOM     11  H   LIG    1       28.903 -20.501   8.669  0.00  0.00    +0.118 HD
ATOM     12  H   LIG    1       28.162 -21.952   8.627  0.00  0.00    +0.118 HD
ENDBRANCH   1  10
TORSDOF 2
ENDMDL
MODEL 2
REMARK VINA RESULT:      -6.3      0.043      1.521
REMARK  Name = *****
REMARK                            x       y       z     vdW  Elec       q    Type
REMARK                         _______ _______ _______ _____ _____    ______ ____
ROOT
ATOM      1  C   LIG    1       27.054 -20.395   7.808  0.00  0.00    +0.059 C 
ATOM      2  C   LIG    1       25.932 -21.246   7.254  0.00  0.00    +0.037 C 
ATOM      3  C   LIG    1       25.882 -20.734   8.675  0.00  0.00    +0.029 C 
ENDROOT
BRANCH   2   4
ATOM      4  C   LIG    1       24.999 -20.680   6.210  0.00  0.00    -0.043 A 
ATOM      5  C   LIG    1       25.471 -20.269   4.953  0.00  0.00    +0.004 A 
ATOM      6  C   LIG    1       24.612 -19.732   3.989  0.00  0.00    +0.000 A 
ATOM      7  C   LIG    1       23.257 -19.587   4.270  0.00  0.00    +0.000 A 
ATOM      8  C   LIG    1       22.763 -19.975   5.512  0.00  0.00    +0.000 A 
ATOM      9  C   LIG    1       23.628 -20.512   6.471  0.00  0.00    +0.004 A 
ENDBRANCH   2   4
BRANCH   1  10
ATOM     10  N   LIG    1       28.346 -21.018   8.099  0.00  0.00    -0.327 NA
ATOM     11  H   LIG    1       28.261 -22.033   8.105  0.00  0.00    +0.118 HD
ATOM     12  H   LIG    1       29.023 -20.795   7.369  0.00  0.00    +0.118 HD
ENDBRANCH   1  10
TORSDOF 2
ENDMDL
MODEL 3
REMARK VINA RESULT:      -6.3      2.529      2.865
REMARK  Name = *****
REMARK                            x       y       z     vdW  Elec       q    Type
REMARK                         _______ _______ _______ _____ _____    ______ ____
ROOT
ATOM      1  C   LIG    1       24.031 -23.425   6.137  0.00  0.00    +0.059 C 
ATOM      2  C   LIG    1       23.628 -22.031   6.568  0.00  0.00    +0.037 C 
ATOM      3  C   LIG    1       24.890 -22.669   7.102  0.00  0.00    +0.029 C 
ENDROOT
BRANCH   2   4
ATOM      4  C   LIG    1       23.713 -20.883   5.589  0.00  0.00    -0.043 A 
ATOM      5  C   LIG    1       22.610 -20.050   5.342  0.00  0.00    +0.004 A 
ATOM      6  C   LIG    1       22.682 -18.995   4.427  0.00  0.00    +0.000 A 
ATOM      7  C   LIG    1       23.863 -18.758   3.732  0.00  0.00    +0.000 A 
ATOM      8  C   LIG    1       24.969 -19.575   3.949  0.00  0.00    +0.000 A 
ATOM      9  C   LIG    1       24.890 -20.628   4.865  0.00  0.00    +0.004 A 
ENDBRANCH   2   4
BRANCH   1  10
ATOM     10  N   LIG    1       23.267 -24.573   6.627  0.00  0.00    -0.327 NA
ATOM     11  H   LIG    1       22.732 -24.997   5.870  0.00  0.00    +0.118 HD
ATOM     12  H   LIG    1       23.894 -25.299   6.972  0.00  0.00    +0.118 HD
ENDBRANCH   1  10
TORSDOF 2
ENDMDL
MODEL 4
REMARK VINA RESULT:      -6.3      2.545      3.202
REMARK  Name = *****
REMARK                            x       y       z     vdW  Elec       q    Type
REMARK                         _______ _______ _______ _____ _____    ______ ____
ROOT
ATOM      1  C   LIG    1       24.034 -23.466   6.121  0.00  0.00    +0.059 C 
ATOM      2  C   LIG    1       23.599 -22.078   6.540  0.00  0.00    +0.037 C 
ATOM      3  C   LIG    1       24.870 -22.685   7.088  0.00  0.00    +0.029 C 
ENDROOT
BRANCH   2   4
ATOM      4  C   LIG    1       23.668 -20.934   5.555  0.00  0.00    -0.043 A 
ATOM      5  C   LIG    1       24.846 -20.652   4.845  0.00  0.00    +0.004 A 
ATOM      6  C   LIG    1       24.916 -19.586   3.943  0.00  0.00    +0.000 A 
ATOM      7  C   LIG    1       23.806 -18.773   3.739  0.00  0.00    +0.000 A 
ATOM      8  C   LIG    1       22.629 -19.023   4.438  0.00  0.00    +0.000 A 
ATOM      9  C   LIG    1       22.565 -20.091   5.339  0.00  0.00    +0.004 A 
ENDBRANCH   2   4
BRANCH   1  10
ATOM     10  N   LIG    1       23.291 -24.626   6.612  0.00  0.00    -0.327 NA
ATOM     11  H   LIG    1       22.288 -24.479   6.508  0.00  0.00    +0.118 HD
ATOM     12  H   LIG    1       23.515 -25.454   6.060  0.00  0.00    +0.118 HD
ENDBRANCH   1  10
TORSDOF 2
ENDMDL
MODEL 5
REMARK VINA RESULT:      -6.2      2.586      3.148
REMARK  Name = *****
REMARK                            x       y       z     vdW  Elec       q    Type
REMARK                         _______ _______ _______ _____ _____    ______ ____
ROOT
ATOM      1  C   LIG    1       27.759 -21.108   6.857  0.00  0.00    +0.059 C 
ATOM      2  C   LIG    1       26.968 -21.931   7.851  0.00  0.00    +0.037 C 
ATOM      3  C   LIG    1       27.041 -20.427   7.981  0.00  0.00    +0.029 C 
ENDROOT
BRANCH   2   4
ATOM      4  C   LIG    1       25.679 -22.594   7.428  0.00  0.00    -0.043 A 
ATOM      5  C   LIG    1       24.452 -21.914   7.492  0.00  0.00    +0.004 A 
ATOM      6  C   LIG    1       23.256 -22.530   7.113  0.00  0.00    +0.000 A 
ATOM      7  C   LIG    1       23.263 -23.848   6.667  0.00  0.00    +0.000 A 
ATOM      8  C   LIG    1       24.463 -24.550   6.604  0.00  0.00    +0.000 A 
ATOM      9  C   LIG    1       25.657 -23.928   6.985  0.00  0.00    +0.004 A 
ENDBRANCH   2   4
BRANCH   1  10
ATOM     10  N   LIG    1       29.221 -21.162   6.888  0.00  0.00    -0.327 NA
ATOM     11  H   LIG    1       29.540 -21.903   7.510  0.00  0.00    +0.118 HD
ATOM     12  H   LIG    1       29.590 -21.389   5.965  0.00  0.00    +0.118 HD
ENDBRANCH   1  10
TORSDOF 2
ENDMDL
MODEL 6
REMARK VINA RESULT:      -6.2      2.572      4.186
REMARK  Name = *****
REMARK                            x       y       z     vdW  Elec       q    Type
REMARK                         _______ _______ _______ _____ _____    ______ ____
ROOT
ATOM      1  C   LIG    1       30.893 -20.375   8.026  0.00  0.00    +0.059 C 
ATOM      2  C   LIG    1       29.748 -19.391   7.916  0.00  0.00    +0.037 C 
ATOM      3  C   LIG    1       30.949 -19.281   7.006  0.00  0.00    +0.029 C 
ENDROOT
BRANCH   2   4
ATOM      4  C   LIG    1       28.416 -19.840   7.364  0.00  0.00    -0.043 A 
ATOM      5  C   LIG    1       28.138 -19.782   5.989  0.00  0.00    +0.004 A 
ATOM      6  C   LIG    1       26.901 -20.184   5.476  0.00  0.00    +0.000 A 
ATOM      7  C   LIG    1       25.910 -20.648   6.335  0.00  0.00    +0.000 A 
ATOM      8  C   LIG    1       26.154 -20.706   7.704  0.00  0.00    +0.000 A 
ATOM      9  C   LIG    1       27.394 -20.302   8.210  0.00  0.00    +0.004 A 
ENDBRANCH   2   4
BRANCH   1  10
ATOM     10  N   LIG    1       31.788 -20.305   9.182  0.00  0.00    -0.327 NA
ATOM     11  H   LIG    1       32.762 -20.309   8.882  0.00  0.00    +0.118 HD
ATOM     12  H   LIG    1       31.651 -19.431   9.688  0.00  0.00    +0.118 HD
ENDBRANCH   1  10
TORSDOF 2
ENDMDL
MODEL 7
REMARK VINA RESULT:      -6.2      2.703      3.501
REMARK  Name = *****
REMARK                            x       y       z     vdW  Elec       q    Type
REMARK                         _______ _______ _______ _____ _____    ______ ____
ROOT
ATOM      1  C   LIG    1       27.561 -21.265   7.469  0.00  0.00    +0.059 C 
ATOM      2  C   LIG    1       26.453 -21.889   8.290  0.00  0.00    +0.037 C 
ATOM      3  C   LIG    1       26.452 -20.408   7.994  0.00  0.00    +0.029 C 
ENDROOT
BRANCH   2   4
ATOM      4  C   LIG    1       25.441 -22.796   7.630  0.00  0.00    -0.043 A 
ATOM      5  C   LIG    1       25.798 -24.072   7.164  0.00  0.00    +0.004 A 
ATOM      6  C   LIG    1       24.867 -24.908   6.540  0.00  0.00    +0.000 A 
ATOM      7  C   LIG    1       23.556 -24.478   6.362  0.00  0.00    +0.000 A 
ATOM      8  C   LIG    1       23.178 -23.214   6.804  0.00  0.00    +0.000 A 
ATOM      9  C   LIG    1       24.114 -22.382   7.427  0.00  0.00    +0.004 A 
ENDBRANCH   2   4
BRANCH   1  10
ATOM     10  N   LIG    1       28.894 -21.127   8.056  0.00  0.00    -0.327 NA
ATOM     11  H   LIG    1       29.553 -20.765   7.368  0.00  0.00    +0.118 HD
ATOM     12  H   LIG    1       28.881 -20.450   8.819  0.00  0.00    +0.118 HD
ENDBRANCH   1  10
TORSDOF 2
ENDMDL
MODEL 8
REMARK VINA RESULT:      -6.1      1.197      2.300
REMARK  Name = *****
REMARK                            x       y       z     vdW  Elec       q    Type
REMARK                         _______ _______ _______ _____ _____    ______ ____
ROOT
ATOM      1  C   LIG    1       28.189 -21.393   7.293  0.00  0.00    +0.059 C 
ATOM      2  C   LIG    1       27.172 -20.273   7.221  0.00  0.00    +0.037 C 
ATOM      3  C   LIG    1       28.336 -20.322   6.258  0.00  0.00    +0.029 C 
ENDROOT
BRANCH   2   4
ATOM      4  C   LIG    1       25.771 -20.555   6.732  0.00  0.00    -0.043 A 
ATOM      5  C   LIG    1       25.453 -20.520   5.365  0.00  0.00    +0.004 A 
ATOM      6  C   LIG    1       24.154 -20.767   4.911  0.00  0.00    +0.000 A 
ATOM      7  C   LIG    1       23.141 -21.047   5.822  0.00  0.00    +0.000 A 
ATOM      8  C   LIG    1       23.425 -21.078   7.184  0.00  0.00    +0.000 A 
ATOM      9  C   LIG    1       24.727 -20.830   7.632  0.00  0.00    +0.004 A 
ENDBRANCH   2   4
BRANCH   1  10
ATOM     10  N   LIG    1       29.135 -21.427   8.408  0.00  0.00    -0.327 NA
ATOM     11  H   LIG    1       28.662 -21.689   9.272  0.00  0.00    +0.118 HD
ATOM     12  H   LIG    1       29.849 -22.138   8.250  0.00  0.00    +0.118 HD
ENDBRANCH   1  10
TORSDOF 2
ENDMDL
MODEL 9
REMARK VINA RESULT:      -6.1      1.436      2.389
REMARK  Name = *****
REMARK                            x       y       z     vdW  Elec       q    Type
REMARK                         _______ _______ _______ _____ _____    ______ ____
ROOT
ATOM      1  C   LIG    1       29.066 -21.295   7.654  0.00  0.00    +0.059 C 
ATOM      2  C   LIG    1       28.047 -20.176   7.686  0.00  0.00    +0.037 C 
ATOM      3  C   LIG    1       29.232 -20.114   6.750  0.00  0.00    +0.029 C 
ENDROOT
BRANCH   2   4
ATOM      4  C   LIG    1       26.658 -20.402   7.138  0.00  0.00    -0.043 A 
ATOM      5  C   LIG    1       25.576 -20.692   7.985  0.00  0.00    +0.004 A 
ATOM      6  C   LIG    1       24.292 -20.915   7.480  0.00  0.00    +0.000 A 
ATOM      7  C   LIG    1       24.066 -20.860   6.108  0.00  0.00    +0.000 A 
ATOM      8  C   LIG    1       25.121 -20.586   5.244  0.00  0.00    +0.000 A 
ATOM      9  C   LIG    1       26.403 -20.363   5.756  0.00  0.00    +0.004 A 
ENDBRANCH   2   4
BRANCH   1  10
ATOM     10  N   LIG    1       29.988 -21.454   8.779  0.00  0.00    -0.327 NA
ATOM     11  H   LIG    1       30.953 -21.467   8.452  0.00  0.00    +0.118 HD
ATOM     12  H   LIG    1       29.915 -20.662   9.416  0.00  0.00    +0.118 HD
ENDBRANCH   1  10
TORSDOF 2
ENDMDL
