MODEL 1
REMARK VINA RESULT:      -5.8      0.000      0.000
REMARK  Name = *****
REMARK                            x       y       z     vdW  Elec       q    Type
REMARK                         _______ _______ _______ _____ _____    ______ ____
ROOT
ATOM      1  C   LIG    1       23.179 -16.865   4.212  0.00  0.00    +0.121 A 
ATOM      2  C   LIG    1       24.328 -17.464   3.672  0.00  0.00    +0.046 A 
ATOM      3  C   LIG    1       24.546 -18.843   3.824  0.00  0.00    +0.007 A 
ATOM      4  C   LIG    1       23.623 -19.683   4.430  0.00  0.00    -0.045 A 
ATOM      5  C   LIG    1       22.362 -19.127   4.731  0.00  0.00    +0.007 A 
ATOM      6  C   LIG    1       22.175 -17.728   4.637  0.00  0.00    +0.046 A 
ENDROOT
BRANCH   1   7
ATOM      7  O   LIG    1       22.938 -15.524   4.148  0.00  0.00    -0.489 OA
BRANCH   7   8
ATOM      8  C   LIG    1       23.999 -14.526   4.217  0.00  0.00    +0.261 C 
BRANCH   8   9
ATOM      9  C   LIG    1       24.306 -13.655   2.971  0.00  0.00    +0.166 C 
BRANCH   9  10
ATOM     10  O   LIG    1       23.654 -12.373   3.066  0.00  0.00    -0.387 OA
ATOM     11  H   LIG    1       23.645 -11.960   2.185  0.00  0.00    +0.210 HD
ENDBRANCH   9  10
BRANCH   9  12
ATOM     12  C   LIG    1       25.839 -13.444   2.695  0.00  0.00    +0.115 C 
BRANCH  12  13
ATOM     13  N   LIG    1       26.604 -14.497   3.388  0.00  0.00    -0.311 NA
ATOM     14  H   LIG    1       26.970 -15.126   2.665  0.00  0.00    +0.122 HD
BRANCH  13  16
ATOM     15  C   LIG    1       28.657 -13.066   3.649  0.00  0.00    +0.024 C 
ATOM     16  C   LIG    1       27.695 -14.081   4.281  0.00  0.00    +0.048 C 
ATOM     17  C   LIG    1       27.046 -13.499   5.554  0.00  0.00    +0.024 C 
ENDBRANCH  13  16
ENDBRANCH  12  13
ENDBRANCH   9  12
ENDBRANCH   8   9
ENDBRANCH   7   8
ENDBRANCH   1   7
BRANCH   4  18
ATOM     18  C   LIG    1       23.979 -21.133   4.721  0.00  0.00    +0.063 C 
BRANCH  18  19
ATOM     19  C   LIG    1       23.954 -21.565   6.211  0.00  0.00    +0.164 C 
BRANCH  19  20
ATOM     20  O   LIG    1       24.892 -20.843   7.028  0.00  0.00    -0.379 OA
BRANCH  20  21
ATOM     21  C   LIG    1       26.217 -21.392   6.941  0.00  0.00    +0.163 C 
BRANCH  21  22
ATOM     22  C   LIG    1       27.241 -20.289   6.912  0.00  0.00    +0.015 C 
ATOM     23  C   LIG    1       28.705 -20.617   6.698  0.00  0.00    +0.006 C 
ATOM     24  C   LIG    1       27.938 -19.882   5.637  0.00  0.00    +0.006 C 
ENDBRANCH  21  22
ENDBRANCH  20  21
ENDBRANCH  19  20
ENDBRANCH  18  19
ENDBRANCH   4  18
TORSDOF 12
ENDMDL
MODEL 2
REMARK VINA RESULT:      -5.3      2.017      4.000
REMARK  Name = *****
REMARK                            x       y       z     vdW  Elec       q    Type
REMARK                         _______ _______ _______ _____ _____    ______ ____
ROOT
ATOM      1  C   LIG    1       26.926 -17.339   3.761  0.00  0.00    +0.121 A 
ATOM      2  C   LIG    1       27.834 -18.010   4.595  0.00  0.00    +0.046 A 
ATOM      3  C   LIG    1       27.493 -19.250   5.160  0.00  0.00    +0.007 A 
ATOM      4  C   LIG    1       26.303 -19.901   4.872  0.00  0.00    -0.045 A 
ATOM      5  C   LIG    1       25.517 -19.355   3.836  0.00  0.00    +0.007 A 
ATOM      6  C   LIG    1       25.832 -18.075   3.319  0.00  0.00    +0.046 A 
ENDROOT
BRANCH   1   7
ATOM      7  O   LIG    1       27.174 -16.108   3.227  0.00  0.00    -0.489 OA
BRANCH   7   8
ATOM      8  C   LIG    1       27.628 -14.977   4.028  0.00  0.00    +0.261 C 
BRANCH   8   9
ATOM      9  C   LIG    1       27.327 -13.534   3.545  0.00  0.00    +0.166 C 
BRANCH   9  10
ATOM     10  O   LIG    1       28.546 -12.835   3.221  0.00  0.00    -0.387 OA
ATOM     11  H   LIG    1       28.777 -12.249   3.962  0.00  0.00    +0.210 HD
ENDBRANCH   9  10
BRANCH   9  12
ATOM     12  C   LIG    1       26.339 -13.458   2.325  0.00  0.00    +0.115 C 
BRANCH  12  13
ATOM     13  N   LIG    1       25.076 -12.837   2.764  0.00  0.00    -0.311 NA
ATOM     14  H   LIG    1       24.346 -13.154   2.117  0.00  0.00    +0.122 HD
BRANCH  13  16
ATOM     15  C   LIG    1       23.816 -11.913   4.736  0.00  0.00    +0.024 C 
ATOM     16  C   LIG    1       24.641 -13.065   4.150  0.00  0.00    +0.048 C 
ATOM     17  C   LIG    1       23.831 -14.379   4.163  0.00  0.00    +0.024 C 
ENDBRANCH  13  16
ENDBRANCH  12  13
ENDBRANCH   9  12
ENDBRANCH   8   9
ENDBRANCH   7   8
ENDBRANCH   1   7
BRANCH   4  18
ATOM     18  C   LIG    1       25.907 -21.154   5.638  0.00  0.00    +0.063 C 
BRANCH  18  19
ATOM     19  C   LIG    1       24.582 -21.082   6.442  0.00  0.00    +0.164 C 
BRANCH  19  20
ATOM     20  O   LIG    1       23.411 -21.254   5.625  0.00  0.00    -0.379 OA
BRANCH  20  21
ATOM     21  C   LIG    1       22.494 -20.156   5.760  0.00  0.00    +0.163 C 
BRANCH  21  22
ATOM     22  C   LIG    1       22.576 -19.253   4.558  0.00  0.00    +0.015 C 
ATOM     23  C   LIG    1       21.309 -18.718   3.922  0.00  0.00    +0.006 C 
ATOM     24  C   LIG    1       22.240 -17.785   4.640  0.00  0.00    +0.006 C 
ENDBRANCH  21  22
ENDBRANCH  20  21
ENDBRANCH  19  20
ENDBRANCH  18  19
ENDBRANCH   4  18
TORSDOF 12
ENDMDL
MODEL 3
REMARK VINA RESULT:      -5.1      1.878      6.478
REMARK  Name = *****
REMARK                            x       y       z     vdW  Elec       q    Type
REMARK                         _______ _______ _______ _____ _____    ______ ____
ROOT
ATOM      1  C   LIG    1       23.629 -19.055   3.879  0.00  0.00    +0.121 A 
ATOM      2  C   LIG    1       22.417 -18.427   4.207  0.00  0.00    +0.046 A 
ATOM      3  C   LIG    1       22.372 -17.037   4.407  0.00  0.00    +0.007 A 
ATOM      4  C   LIG    1       23.476 -16.218   4.219  0.00  0.00    -0.045 A 
ATOM      5  C   LIG    1       24.614 -16.814   3.635  0.00  0.00    +0.007 A 
ATOM      6  C   LIG    1       24.675 -18.221   3.500  0.00  0.00    +0.046 A 
ENDROOT
BRANCH   1   7
ATOM      7  O   LIG    1       23.751 -20.405   3.727  0.00  0.00    -0.489 OA
BRANCH   7   8
ATOM      8  C   LIG    1       24.318 -21.268   4.758  0.00  0.00    +0.261 C 
BRANCH   8   9
ATOM      9  C   LIG    1       24.456 -20.731   6.206  0.00  0.00    +0.166 C 
BRANCH   9  10
ATOM     10  O   LIG    1       23.248 -20.961   6.958  0.00  0.00    -0.387 OA
ATOM     11  H   LIG    1       22.639 -21.493   6.417  0.00  0.00    +0.210 HD
ENDBRANCH   9  10
BRANCH   9  12
ATOM     12  C   LIG    1       25.683 -21.318   6.995  0.00  0.00    +0.115 C 
BRANCH  12  13
ATOM     13  N   LIG    1       26.747 -20.300   7.062  0.00  0.00    -0.311 NA
ATOM     14  H   LIG    1       27.122 -20.321   8.016  0.00  0.00    +0.122 HD
BRANCH  13  16
ATOM     15  C   LIG    1       28.051 -19.118   5.264  0.00  0.00    +0.024 C 
ATOM     16  C   LIG    1       27.851 -20.392   6.095  0.00  0.00    +0.048 C 
ATOM     17  C   LIG    1       29.128 -20.731   6.892  0.00  0.00    +0.024 C 
ENDBRANCH  13  16
ENDBRANCH  12  13
ENDBRANCH   9  12
ENDBRANCH   8   9
ENDBRANCH   7   8
ENDBRANCH   1   7
BRANCH   4  18
ATOM     18  C   LIG    1       23.419 -14.750   4.611  0.00  0.00    +0.063 C 
BRANCH  18  19
ATOM     19  C   LIG    1       23.777 -13.724   3.503  0.00  0.00    +0.164 C 
BRANCH  19  20
ATOM     20  O   LIG    1       25.175 -13.388   3.470  0.00  0.00    -0.379 OA
BRANCH  20  21
ATOM     21  C   LIG    1       25.742 -13.312   4.789  0.00  0.00    +0.163 C 
BRANCH  21  22
ATOM     22  C   LIG    1       27.212 -13.635   4.747  0.00  0.00    +0.015 C 
ATOM     23  C   LIG    1       27.701 -14.854   3.992  0.00  0.00    +0.006 C 
ATOM     24  C   LIG    1       28.027 -13.478   3.487  0.00  0.00    +0.006 C 
ENDBRANCH  21  22
ENDBRANCH  20  21
ENDBRANCH  19  20
ENDBRANCH  18  19
ENDBRANCH   4  18
TORSDOF 12
ENDMDL
MODEL 4
REMARK VINA RESULT:      -4.5      2.397      7.279
REMARK  Name = *****
REMARK                            x       y       z     vdW  Elec       q    Type
REMARK                         _______ _______ _______ _____ _____    ______ ____
ROOT
ATOM      1  C   LIG    1       26.426 -19.247   4.378  0.00  0.00    +0.121 A 
ATOM      2  C   LIG    1       25.655 -18.452   3.514  0.00  0.00    +0.046 A 
ATOM      3  C   LIG    1       26.000 -17.109   3.293  0.00  0.00    +0.007 A 
ATOM      4  C   LIG    1       27.136 -16.529   3.837  0.00  0.00    -0.045 A 
ATOM      5  C   LIG    1       28.043 -17.396   4.482  0.00  0.00    +0.007 A 
ATOM      6  C   LIG    1       27.659 -18.730   4.758  0.00  0.00    +0.046 A 
ENDROOT
BRANCH   1   7
ATOM      7  O   LIG    1       26.112 -20.540   4.679  0.00  0.00    -0.489 OA
BRANCH   7   8
ATOM      8  C   LIG    1       24.829 -21.142   4.334  0.00  0.00    +0.261 C 
BRANCH   8   9
ATOM      9  C   LIG    1       23.793 -21.416   5.456  0.00  0.00    +0.166 C 
BRANCH   9  10
ATOM     10  O   LIG    1       24.271 -20.934   6.727  0.00  0.00    -0.387 OA
ATOM     11  H   LIG    1       25.234 -20.810   6.673  0.00  0.00    +0.210 HD
ENDBRANCH   9  10
BRANCH   9  12
ATOM     12  C   LIG    1       22.366 -20.821   5.172  0.00  0.00    +0.115 C 
BRANCH  12  13
ATOM     13  N   LIG    1       22.401 -19.362   5.381  0.00  0.00    -0.311 NA
ATOM     14  H   LIG    1       23.318 -19.139   5.782  0.00  0.00    +0.122 HD
BRANCH  13  16
ATOM     15  C   LIG    1       20.772 -18.722   3.573  0.00  0.00    +0.024 C 
ATOM     16  C   LIG    1       22.143 -18.494   4.223  0.00  0.00    +0.048 C 
ATOM     17  C   LIG    1       22.281 -17.035   4.708  0.00  0.00    +0.024 C 
ENDBRANCH  13  16
ENDBRANCH  12  13
ENDBRANCH   9  12
ENDBRANCH   8   9
ENDBRANCH   7   8
ENDBRANCH   1   7
BRANCH   4  18
ATOM     18  C   LIG    1       27.373 -15.033   3.706  0.00  0.00    +0.063 C 
BRANCH  18  19
ATOM     19  C   LIG    1       26.909 -14.373   2.380  0.00  0.00    +0.164 C 
BRANCH  19  20
ATOM     20  O   LIG    1       26.363 -13.055   2.562  0.00  0.00    -0.379 OA
BRANCH  20  21
ATOM     21  C   LIG    1       25.019 -12.955   2.062  0.00  0.00    +0.163 C 
BRANCH  21  22
ATOM     22  C   LIG    1       24.041 -12.854   3.202  0.00  0.00    +0.015 C 
ATOM     23  C   LIG    1       23.805 -14.044   4.109  0.00  0.00    +0.006 C 
ATOM     24  C   LIG    1       24.495 -12.821   4.641  0.00  0.00    +0.006 C 
ENDBRANCH  21  22
ENDBRANCH  20  21
ENDBRANCH  19  20
ENDBRANCH  18  19
ENDBRANCH   4  18
TORSDOF 12
ENDMDL
MODEL 5
REMARK VINA RESULT:      -4.4      0.966      1.676
REMARK  Name = *****
REMARK                            x       y       z     vdW  Elec       q    Type
REMARK                         _______ _______ _______ _____ _____    ______ ____
ROOT
ATOM      1  C   LIG    1       23.325 -16.332   4.179  0.00  0.00    +0.121 A 
ATOM      2  C   LIG    1       22.332 -17.181   4.694  0.00  0.00    +0.046 A 
ATOM      3  C   LIG    1       22.455 -18.574   4.566  0.00  0.00    +0.007 A 
ATOM      4  C   LIG    1       23.573 -19.178   4.009  0.00  0.00    -0.045 A 
ATOM      5  C   LIG    1       24.676 -18.341   3.738  0.00  0.00    +0.007 A 
ATOM      6  C   LIG    1       24.521 -16.936   3.806  0.00  0.00    +0.046 A 
ENDROOT
BRANCH   1   7
ATOM      7  O   LIG    1       23.237 -14.972   4.222  0.00  0.00    -0.489 OA
BRANCH   7   8
ATOM      8  C   LIG    1       23.436 -14.131   3.047  0.00  0.00    +0.261 C 
BRANCH   8   9
ATOM      9  C   LIG    1       24.191 -12.784   3.195  0.00  0.00    +0.166 C 
BRANCH   9  10
ATOM     10  O   LIG    1       23.886 -12.159   4.458  0.00  0.00    -0.387 OA
ATOM     11  H   LIG    1       23.040 -11.686   4.377  0.00  0.00    +0.210 HD
ENDBRANCH   9  10
BRANCH   9  12
ATOM     12  C   LIG    1       25.750 -12.899   3.029  0.00  0.00    +0.115 C 
BRANCH  12  13
ATOM     13  N   LIG    1       26.370 -13.014   4.361  0.00  0.00    -0.311 NA
ATOM     14  H   LIG    1       25.653 -13.385   4.994  0.00  0.00    +0.122 HD
BRANCH  13  16
ATOM     15  C   LIG    1       27.496 -15.203   3.840  0.00  0.00    +0.024 C 
ATOM     16  C   LIG    1       27.598 -13.814   4.482  0.00  0.00    +0.048 C 
ATOM     17  C   LIG    1       28.739 -12.997   3.840  0.00  0.00    +0.024 C 
ENDBRANCH  13  16
ENDBRANCH  12  13
ENDBRANCH   9  12
ENDBRANCH   8   9
ENDBRANCH   7   8
ENDBRANCH   1   7
BRANCH   4  18
ATOM     18  C   LIG    1       23.583 -20.674   3.739  0.00  0.00    +0.063 C 
BRANCH  18  19
ATOM     19  C   LIG    1       24.199 -21.572   4.845  0.00  0.00    +0.164 C 
BRANCH  19  20
ATOM     20  O   LIG    1       23.795 -21.195   6.173  0.00  0.00    -0.379 OA
BRANCH  20  21
ATOM     21  C   LIG    1       24.917 -21.069   7.062  0.00  0.00    +0.163 C 
BRANCH  21  22
ATOM     22  C   LIG    1       26.208 -21.229   6.304  0.00  0.00    +0.015 C 
ATOM     23  C   LIG    1       27.207 -20.090   6.256  0.00  0.00    +0.006 C 
ATOM     24  C   LIG    1       27.537 -21.347   7.009  0.00  0.00    +0.006 C 
ENDBRANCH  21  22
ENDBRANCH  20  21
ENDBRANCH  19  20
ENDBRANCH  18  19
ENDBRANCH   4  18
TORSDOF 12
ENDMDL
MODEL 6
REMARK VINA RESULT:      -3.7      2.436      7.235
REMARK  Name = *****
REMARK                            x       y       z     vdW  Elec       q    Type
REMARK                         _______ _______ _______ _____ _____    ______ ____
ROOT
ATOM      1  C   LIG    1       24.227 -17.701   3.905  0.00  0.00    +0.121 A 
ATOM      2  C   LIG    1       23.048 -17.027   4.262  0.00  0.00    +0.046 A 
ATOM      3  C   LIG    1       23.034 -15.626   4.352  0.00  0.00    +0.007 A 
ATOM      4  C   LIG    1       24.132 -14.844   4.025  0.00  0.00    -0.045 A 
ATOM      5  C   LIG    1       25.221 -15.504   3.417  0.00  0.00    +0.007 A 
ATOM      6  C   LIG    1       25.255 -16.918   3.391  0.00  0.00    +0.046 A 
ENDROOT
BRANCH   1   7
ATOM      7  O   LIG    1       24.322 -19.061   3.855  0.00  0.00    -0.489 OA
BRANCH   7   8
ATOM      8  C   LIG    1       25.562 -19.755   3.526  0.00  0.00    +0.261 C 
BRANCH   8   9
ATOM      9  C   LIG    1       26.367 -20.448   4.656  0.00  0.00    +0.166 C 
BRANCH   9  10
ATOM     10  O   LIG    1       27.418 -19.588   5.142  0.00  0.00    -0.387 OA
ATOM     11  H   LIG    1       27.779 -19.967   5.962  0.00  0.00    +0.210 HD
ENDBRANCH   9  10
BRANCH   9  12
ATOM     12  C   LIG    1       25.489 -20.937   5.865  0.00  0.00    +0.115 C 
BRANCH  12  13
ATOM     13  N   LIG    1       24.257 -21.559   5.347  0.00  0.00    -0.311 NA
ATOM     14  H   LIG    1       24.457 -22.557   5.218  0.00  0.00    +0.122 HD
BRANCH  13  16
ATOM     15  C   LIG    1       23.028 -20.170   7.046  0.00  0.00    +0.024 C 
ATOM     16  C   LIG    1       23.023 -21.400   6.130  0.00  0.00    +0.048 C 
ATOM     17  C   LIG    1       21.852 -21.328   5.126  0.00  0.00    +0.024 C 
ENDBRANCH  13  16
ENDBRANCH  12  13
ENDBRANCH   9  12
ENDBRANCH   8   9
ENDBRANCH   7   8
ENDBRANCH   1   7
BRANCH   4  18
ATOM     18  C   LIG    1       24.121 -13.349   4.301  0.00  0.00    +0.063 C 
BRANCH  18  19
ATOM     19  C   LIG    1       24.143 -12.416   3.061  0.00  0.00    +0.164 C 
BRANCH  19  20
ATOM     20  O   LIG    1       25.233 -12.690   2.164  0.00  0.00    -0.379 OA
BRANCH  20  21
ATOM     21  C   LIG    1       26.479 -12.169   2.655  0.00  0.00    +0.163 C 
BRANCH  21  22
ATOM     22  C   LIG    1       27.346 -13.284   3.174  0.00  0.00    +0.015 C 
ATOM     23  C   LIG    1       28.727 -12.982   3.720  0.00  0.00    +0.006 C 
ATOM     24  C   LIG    1       27.640 -13.446   4.646  0.00  0.00    +0.006 C 
ENDBRANCH  21  22
ENDBRANCH  20  21
ENDBRANCH  19  20
ENDBRANCH  18  19
ENDBRANCH   4  18
TORSDOF 12
ENDMDL
MODEL 7
REMARK VINA RESULT:      -3.1      2.524      7.222
REMARK  Name = *****
REMARK                            x       y       z     vdW  Elec       q    Type
REMARK                         _______ _______ _______ _____ _____    ______ ____
ROOT
ATOM      1  C   LIG    1       28.077 -17.176   4.359  0.00  0.00    +0.121 A 
ATOM      2  C   LIG    1       28.335 -15.825   4.639  0.00  0.00    +0.046 A 
ATOM      3  C   LIG    1       27.580 -14.816   4.019  0.00  0.00    +0.007 A 
ATOM      4  C   LIG    1       26.511 -15.093   3.179  0.00  0.00    -0.045 A 
ATOM      5  C   LIG    1       26.090 -16.438   3.111  0.00  0.00    +0.007 A 
ATOM      6  C   LIG    1       26.894 -17.452   3.683  0.00  0.00    +0.046 A 
ENDROOT
BRANCH   1   7
ATOM      7  O   LIG    1       28.811 -18.199   4.884  0.00  0.00    -0.489 OA
BRANCH   7   8
ATOM      8  C   LIG    1       28.421 -18.908   6.098  0.00  0.00    +0.261 C 
BRANCH   8   9
ATOM      9  C   LIG    1       28.108 -20.425   6.025  0.00  0.00    +0.166 C 
BRANCH   9  10
ATOM     10  O   LIG    1       29.063 -21.186   6.790  0.00  0.00    -0.387 OA
ATOM     11  H   LIG    1       29.346 -21.954   6.264  0.00  0.00    +0.210 HD
ENDBRANCH   9  10
BRANCH   9  12
ATOM     12  C   LIG    1       26.651 -20.803   6.479  0.00  0.00    +0.115 C 
BRANCH  12  13
ATOM     13  N   LIG    1       25.831 -21.086   5.287  0.00  0.00    -0.311 NA
ATOM     14  H   LIG    1       25.461 -22.037   5.398  0.00  0.00    +0.122 HD
BRANCH  13  16
ATOM     15  C   LIG    1       24.263 -20.237   3.513  0.00  0.00    +0.024 C 
ATOM     16  C   LIG    1       24.733 -20.162   4.971  0.00  0.00    +0.048 C 
ATOM     17  C   LIG    1       23.573 -20.484   5.937  0.00  0.00    +0.024 C 
ENDBRANCH  13  16
ENDBRANCH  12  13
ENDBRANCH   9  12
ENDBRANCH   8   9
ENDBRANCH   7   8
ENDBRANCH   1   7
BRANCH   4  18
ATOM     18  C   LIG    1       25.835 -13.974   2.401  0.00  0.00    +0.063 C 
BRANCH  18  19
ATOM     19  C   LIG    1       25.073 -12.913   3.239  0.00  0.00    +0.164 C 
BRANCH  19  20
ATOM     20  O   LIG    1       24.391 -13.469   4.375  0.00  0.00    -0.379 OA
BRANCH  20  21
ATOM     21  C   LIG    1       23.279 -14.293   3.986  0.00  0.00    +0.163 C 
BRANCH  21  22
ATOM     22  C   LIG    1       23.204 -15.519   4.856  0.00  0.00    +0.015 C 
ATOM     23  C   LIG    1       21.952 -15.804   5.660  0.00  0.00    +0.006 C 
ATOM     24  C   LIG    1       22.320 -16.691   4.506  0.00  0.00    +0.006 C 
ENDBRANCH  21  22
ENDBRANCH  20  21
ENDBRANCH  19  20
ENDBRANCH  18  19
ENDBRANCH   4  18
TORSDOF 12
ENDMDL
MODEL 8
REMARK VINA RESULT:      -3.0      1.879      4.026
REMARK  Name = *****
REMARK                            x       y       z     vdW  Elec       q    Type
REMARK                         _______ _______ _______ _____ _____    ______ ____
ROOT
ATOM      1  C   LIG    1       27.058 -16.381   3.725  0.00  0.00    +0.121 A 
ATOM      2  C   LIG    1       28.101 -17.025   4.410  0.00  0.00    +0.046 A 
ATOM      3  C   LIG    1       27.945 -18.348   4.853  0.00  0.00    +0.007 A 
ATOM      4  C   LIG    1       26.813 -19.101   4.578  0.00  0.00    -0.045 A 
ATOM      5  C   LIG    1       25.888 -18.544   3.669  0.00  0.00    +0.007 A 
ATOM      6  C   LIG    1       26.018 -17.190   3.281  0.00  0.00    +0.046 A 
ENDROOT
BRANCH   1   7
ATOM      7  O   LIG    1       27.126 -15.081   3.319  0.00  0.00    -0.489 OA
BRANCH   7   8
ATOM      8  C   LIG    1       26.103 -14.460   2.484  0.00  0.00    +0.261 C 
BRANCH   8   9
ATOM      9  C   LIG    1       25.171 -13.383   3.099  0.00  0.00    +0.166 C 
BRANCH   9  10
ATOM     10  O   LIG    1       24.200 -12.931   2.135  0.00  0.00    -0.387 OA
ATOM     11  H   LIG    1       24.130 -11.963   2.191  0.00  0.00    +0.210 HD
ENDBRANCH   9  10
BRANCH   9  12
ATOM     12  C   LIG    1       24.434 -13.843   4.409  0.00  0.00    +0.115 C 
BRANCH  12  13
ATOM     13  N   LIG    1       23.357 -14.785   4.053  0.00  0.00    -0.311 NA
ATOM     14  H   LIG    1       23.650 -15.262   3.194  0.00  0.00    +0.122 HD
BRANCH  13  16
ATOM     15  C   LIG    1       21.946 -15.242   6.085  0.00  0.00    +0.024 C 
ATOM     16  C   LIG    1       22.951 -15.778   5.057  0.00  0.00    +0.048 C 
ATOM     17  C   LIG    1       22.361 -16.983   4.294  0.00  0.00    +0.024 C 
ENDBRANCH  13  16
ENDBRANCH  12  13
ENDBRANCH   9  12
ENDBRANCH   8   9
ENDBRANCH   7   8
ENDBRANCH   1   7
BRANCH   4  18
ATOM     18  C   LIG    1       26.621 -20.465   5.222  0.00  0.00    +0.063 C 
BRANCH  18  19
ATOM     19  C   LIG    1       26.207 -20.470   6.718  0.00  0.00    +0.164 C 
BRANCH  19  20
ATOM     20  O   LIG    1       25.161 -21.410   7.015  0.00  0.00    -0.379 OA
BRANCH  20  21
ATOM     21  C   LIG    1       23.860 -20.799   6.975  0.00  0.00    +0.163 C 
BRANCH  21  22
ATOM     22  C   LIG    1       23.046 -21.371   5.845  0.00  0.00    +0.015 C 
ATOM     23  C   LIG    1       22.133 -20.472   5.037  0.00  0.00    +0.006 C 
ATOM     24  C   LIG    1       23.359 -21.061   4.402  0.00  0.00    +0.006 C 
ENDBRANCH  21  22
ENDBRANCH  20  21
ENDBRANCH  19  20
ENDBRANCH  18  19
ENDBRANCH   4  18
TORSDOF 12
ENDMDL
MODEL 9
REMARK VINA RESULT:      -3.0      2.430      7.299
REMARK  Name = *****
REMARK                            x       y       z     vdW  Elec       q    Type
REMARK                         _______ _______ _______ _____ _____    ______ ____
ROOT
ATOM      1  C   LIG    1       27.720 -15.588   4.252  0.00  0.00    +0.121 A 
ATOM      2  C   LIG    1       26.773 -15.990   3.297  0.00  0.00    +0.046 A 
ATOM      3  C   LIG    1       26.012 -15.031   2.608  0.00  0.00    +0.007 A 
ATOM      4  C   LIG    1       26.204 -13.667   2.770  0.00  0.00    -0.045 A 
ATOM      5  C   LIG    1       27.329 -13.271   3.525  0.00  0.00    +0.007 A 
ATOM      6  C   LIG    1       28.048 -14.237   4.267  0.00  0.00    +0.046 A 
ENDROOT
BRANCH   1   7
ATOM      7  O   LIG    1       28.450 -16.470   4.994  0.00  0.00    -0.489 OA
BRANCH   7   8
ATOM      8  C   LIG    1       28.618 -17.869   4.617  0.00  0.00    +0.261 C 
BRANCH   8   9
ATOM      9  C   LIG    1       29.154 -18.880   5.664  0.00  0.00    +0.166 C 
BRANCH   9  10
ATOM     10  O   LIG    1       29.473 -18.216   6.904  0.00  0.00    -0.387 OA
ATOM     11  H   LIG    1       28.647 -17.906   7.314  0.00  0.00    +0.210 HD
ENDBRANCH   9  10
BRANCH   9  12
ATOM     12  C   LIG    1       28.185 -20.085   5.949  0.00  0.00    +0.115 C 
BRANCH  12  13
ATOM     13  N   LIG    1       26.901 -19.844   5.267  0.00  0.00    -0.311 NA
ATOM     14  H   LIG    1       27.112 -19.693   4.275  0.00  0.00    +0.122 HD
BRANCH  13  16
ATOM     15  C   LIG    1       25.171 -20.876   6.775  0.00  0.00    +0.024 C 
ATOM     16  C   LIG    1       25.849 -20.863   5.399  0.00  0.00    +0.048 C 
ATOM     17  C   LIG    1       24.816 -20.599   4.283  0.00  0.00    +0.024 C 
ENDBRANCH  13  16
ENDBRANCH  12  13
ENDBRANCH   9  12
ENDBRANCH   8   9
ENDBRANCH   7   8
ENDBRANCH   1   7
BRANCH   4  18
ATOM     18  C   LIG    1       25.245 -12.674   2.133  0.00  0.00    +0.063 C 
BRANCH  18  19
ATOM     19  C   LIG    1       24.187 -12.035   3.072  0.00  0.00    +0.164 C 
BRANCH  19  20
ATOM     20  O   LIG    1       23.795 -12.895   4.155  0.00  0.00    -0.379 OA
BRANCH  20  21
ATOM     21  C   LIG    1       23.102 -14.066   3.690  0.00  0.00    +0.163 C 
BRANCH  21  22
ATOM     22  C   LIG    1       23.295 -15.207   4.653  0.00  0.00    +0.015 C 
ATOM     23  C   LIG    1       22.125 -15.719   5.467  0.00  0.00    +0.006 C 
ATOM     24  C   LIG    1       22.721 -16.577   4.389  0.00  0.00    +0.006 C 
ENDBRANCH  21  22
ENDBRANCH  20  21
ENDBRANCH  19  20
ENDBRANCH  18  19
ENDBRANCH   4  18
TORSDOF 12
ENDMDL
