MODEL 1
REMARK VINA RESULT:     -10.9      0.000      0.000
REMARK  Name = *****
REMARK                            x       y       z     vdW  Elec       q    Type
REMARK                         _______ _______ _______ _____ _____    ______ ____
ROOT
ATOM      1  C   LIG    1       26.606 -21.753   7.176  0.00  0.00    -0.013 C 
ATOM      2  C   LIG    1       25.621 -22.161   6.339  0.00  0.00    -0.014 C 
ATOM      3  C   LIG    1       25.255 -23.602   6.353  0.00  0.00    -0.014 A 
ATOM      4  C   LIG    1       23.930 -24.050   6.546  0.00  0.00    -0.039 A 
ATOM      5  C   LIG    1       23.681 -25.440   6.527  0.00  0.00    +0.004 A 
ATOM      6  C   LIG    1       24.706 -26.366   6.335  0.00  0.00    +0.000 A 
ATOM      7  C   LIG    1       26.005 -25.921   6.137  0.00  0.00    +0.001 A 
ATOM      8  C   LIG    1       22.712 -23.160   6.724  0.00  0.00    +0.040 C 
ATOM      9  C   LIG    1       22.902 -21.695   7.134  0.00  0.00    +0.040 C 
ATOM     10  C   LIG    1       23.518 -20.875   6.027  0.00  0.00    -0.039 A 
ATOM     11  C   LIG    1       22.789 -19.861   5.389  0.00  0.00    +0.004 A 
ATOM     12  C   LIG    1       23.355 -19.143   4.335  0.00  0.00    +0.000 A 
ATOM     13  C   LIG    1       24.645 -19.440   3.897  0.00  0.00    +0.001 A 
ATOM     14  C   LIG    1       25.379 -20.443   4.528  0.00  0.00    +0.009 A 
ATOM     15  C   LIG    1       26.275 -24.553   6.138  0.00  0.00    +0.009 A 
ATOM     16  C   LIG    1       24.832 -21.147   5.609  0.00  0.00    -0.014 A 
ENDROOT
BRANCH   1  17
ATOM     17  C   LIG    1       27.076 -20.340   7.423  0.00  0.00    +0.078 C 
BRANCH  17  18
ATOM     18  C   LIG    1       28.419 -20.075   6.743  0.00  0.00    +0.134 C 
BRANCH  18  20
ATOM     19  C   LIG    1       30.711 -19.210   6.971  0.00  0.00    +0.189 C 
ATOM     20  N   LIG    1       29.584 -19.888   7.705  0.00  0.00    +0.213 N 
ATOM     21  O   LIG    1       29.205 -19.095   8.757  0.00  0.00    -0.776 OA
ATOM     22  C   LIG    1       30.076 -21.212   8.225  0.00  0.00    +0.189 C 
ENDBRANCH  18  20
ENDBRANCH  17  18
ENDBRANCH   1  17
TORSDOF 3
ENDMDL
MODEL 2
REMARK VINA RESULT:      -9.0      2.748      5.634
REMARK  Name = *****
REMARK                            x       y       z     vdW  Elec       q    Type
REMARK                         _______ _______ _______ _____ _____    ______ ____
ROOT
ATOM      1  C   LIG    1       26.544 -22.881   6.881  0.00  0.00    -0.013 C 
ATOM      2  C   LIG    1       26.451 -21.530   6.813  0.00  0.00    -0.014 C 
ATOM      3  C   LIG    1       27.713 -20.747   6.880  0.00  0.00    -0.014 A 
ATOM      4  C   LIG    1       28.069 -19.790   5.905  0.00  0.00    -0.039 A 
ATOM      5  C   LIG    1       29.283 -19.086   6.065  0.00  0.00    +0.004 A 
ATOM      6  C   LIG    1       30.130 -19.323   7.147  0.00  0.00    +0.000 A 
ATOM      7  C   LIG    1       29.773 -20.258   8.107  0.00  0.00    +0.001 A 
ATOM      8  C   LIG    1       27.228 -19.398   4.702  0.00  0.00    +0.040 C 
ATOM      9  C   LIG    1       26.110 -20.333   4.226  0.00  0.00    +0.040 C 
ATOM     10  C   LIG    1       24.957 -20.374   5.200  0.00  0.00    -0.039 A 
ATOM     11  C   LIG    1       23.702 -19.857   4.852  0.00  0.00    +0.004 A 
ATOM     12  C   LIG    1       22.657 -19.857   5.778  0.00  0.00    +0.000 A 
ATOM     13  C   LIG    1       22.862 -20.358   7.063  0.00  0.00    +0.001 A 
ATOM     14  C   LIG    1       24.106 -20.880   7.417  0.00  0.00    +0.009 A 
ATOM     15  C   LIG    1       28.573 -20.957   7.978  0.00  0.00    +0.009 A 
ATOM     16  C   LIG    1       25.149 -20.914   6.482  0.00  0.00    -0.014 A 
ENDROOT
BRANCH   1  17
ATOM     17  C   LIG    1       25.429 -23.887   6.726  0.00  0.00    +0.078 C 
BRANCH  17  18
ATOM     18  C   LIG    1       25.942 -25.315   6.906  0.00  0.00    +0.134 C 
BRANCH  18  20
ATOM     19  C   LIG    1       25.044 -25.421   4.617  0.00  0.00    +0.189 C 
ATOM     20  N   LIG    1       25.711 -26.222   5.705  0.00  0.00    +0.213 N 
ATOM     21  O   LIG    1       26.909 -26.693   5.233  0.00  0.00    -0.776 OA
ATOM     22  C   LIG    1       24.820 -27.381   6.064  0.00  0.00    +0.189 C 
ENDBRANCH  18  20
ENDBRANCH  17  18
ENDBRANCH   1  17
TORSDOF 3
ENDMDL
MODEL 3
REMARK VINA RESULT:      -8.3      2.669      5.720
REMARK  Name = *****
REMARK                            x       y       z     vdW  Elec       q    Type
REMARK                         _______ _______ _______ _____ _____    ______ ____
ROOT
ATOM      1  C   LIG    1       25.712 -20.103   4.549  0.00  0.00    -0.013 C 
ATOM      2  C   LIG    1       26.057 -20.882   5.604  0.00  0.00    -0.014 C 
ATOM      3  C   LIG    1       27.209 -20.446   6.437  0.00  0.00    -0.014 A 
ATOM      4  C   LIG    1       27.121 -20.293   7.838  0.00  0.00    -0.039 A 
ATOM      5  C   LIG    1       28.276 -19.889   8.544  0.00  0.00    +0.004 A 
ATOM      6  C   LIG    1       29.481 -19.631   7.891  0.00  0.00    +0.000 A 
ATOM      7  C   LIG    1       29.565 -19.791   6.515  0.00  0.00    +0.001 A 
ATOM      8  C   LIG    1       25.892 -20.579   8.684  0.00  0.00    +0.040 C 
ATOM      9  C   LIG    1       24.515 -20.650   8.013  0.00  0.00    +0.040 C 
ATOM     10  C   LIG    1       24.376 -21.873   7.140  0.00  0.00    -0.039 A 
ATOM     11  C   LIG    1       23.478 -22.897   7.473  0.00  0.00    +0.004 A 
ATOM     12  C   LIG    1       23.393 -24.044   6.682  0.00  0.00    +0.000 A 
ATOM     13  C   LIG    1       24.214 -24.187   5.564  0.00  0.00    +0.001 A 
ATOM     14  C   LIG    1       25.106 -23.171   5.223  0.00  0.00    +0.009 A 
ATOM     15  C   LIG    1       28.442 -20.202   5.798  0.00  0.00    +0.009 A 
ATOM     16  C   LIG    1       25.173 -22.002   5.991  0.00  0.00    -0.014 A 
ENDROOT
BRANCH   1  17
ATOM     17  C   LIG    1       24.526 -20.272   3.632  0.00  0.00    +0.078 C 
BRANCH  17  18
ATOM     18  C   LIG    1       23.590 -19.066   3.704  0.00  0.00    +0.134 C 
BRANCH  18  20
ATOM     19  C   LIG    1       22.041 -20.781   4.550  0.00  0.00    +0.189 C 
ATOM     20  N   LIG    1       22.322 -19.302   4.513  0.00  0.00    +0.213 N 
ATOM     21  O   LIG    1       22.492 -18.855   5.798  0.00  0.00    -0.776 OA
ATOM     22  C   LIG    1       21.144 -18.604   3.889  0.00  0.00    +0.189 C 
ENDBRANCH  18  20
ENDBRANCH  17  18
ENDBRANCH   1  17
TORSDOF 3
ENDMDL
