MODEL 1
REMARK VINA RESULT:      -3.9      0.000      0.000
REMARK  Name = *****
REMARK                            x       y       z     vdW  Elec       q    Type
REMARK                         _______ _______ _______ _____ _____    ______ ____
ROOT
ATOM      1  C   LIG    1       25.102 -13.315   4.328  0.00  0.00    +0.024 C 
ATOM      2  C   LIG    1       23.839 -14.178   4.585  0.00  0.00    +0.028 C 
ATOM      3  C   LIG    1       25.435 -13.047   2.786  0.00  0.00    -0.014 C 
ATOM      4  C   LIG    1       25.613 -11.563   2.398  0.00  0.00    +0.013 C 
ATOM      5  C   LIG    1       24.377 -13.616   1.813  0.00  0.00    +0.013 C 
ATOM      6  C   LIG    1       26.782 -13.839   2.593  0.00  0.00    -0.003 C 
ATOM      7  C   LIG    1       26.606 -15.046   3.517  0.00  0.00    +0.009 C 
ATOM      8  C   LIG    1       27.970 -13.144   3.285  0.00  0.00    +0.004 C 
ATOM      9  C   LIG    1       27.658 -13.340   4.771  0.00  0.00    +0.005 C 
ATOM     10  C   LIG    1       26.356 -14.175   4.751  0.00  0.00    +0.010 C 
ENDROOT
BRANCH   1  12
ATOM     11  C   LIG    1       23.750 -11.469   5.309  0.00  0.00    +0.101 C 
ATOM     12  N   LIG    1       25.051 -12.110   5.180  0.00  0.00    -0.313 NA
ATOM     13  H   LIG    1       25.391 -12.339   6.115  0.00  0.00    +0.122 HD
ENDBRANCH   1  12
TORSDOF 1
ENDMDL
MODEL 2
REMARK VINA RESULT:      -3.9      1.122      3.219
REMARK  Name = *****
REMARK                            x       y       z     vdW  Elec       q    Type
REMARK                         _______ _______ _______ _____ _____    ______ ____
ROOT
ATOM      1  C   LIG    1       26.011 -13.849   3.671  0.00  0.00    +0.024 C 
ATOM      2  C   LIG    1       26.360 -15.357   3.571  0.00  0.00    +0.028 C 
ATOM      3  C   LIG    1       24.548 -13.530   4.234  0.00  0.00    -0.014 C 
ATOM      4  C   LIG    1       24.499 -12.556   5.431  0.00  0.00    +0.013 C 
ATOM      5  C   LIG    1       23.765 -14.787   4.679  0.00  0.00    +0.013 C 
ATOM      6  C   LIG    1       23.835 -12.906   2.978  0.00  0.00    -0.003 C 
ATOM      7  C   LIG    1       24.450 -13.682   1.812  0.00  0.00    +0.009 C 
ATOM      8  C   LIG    1       24.351 -11.490   2.659  0.00  0.00    +0.004 C 
ATOM      9  C   LIG    1       25.774 -11.753   2.160  0.00  0.00    +0.005 C 
ATOM     10  C   LIG    1       25.882 -13.295   2.198  0.00  0.00    +0.010 C 
ENDROOT
BRANCH   1  12
ATOM     11  C   LIG    1       28.442 -13.324   3.776  0.00  0.00    +0.101 C 
ATOM     12  N   LIG    1       27.114 -13.135   4.344  0.00  0.00    -0.313 NA
ATOM     13  H   LIG    1       26.912 -12.135   4.363  0.00  0.00    +0.122 HD
ENDBRANCH   1  12
TORSDOF 1
ENDMDL
MODEL 3
REMARK VINA RESULT:      -3.7      6.124      7.370
REMARK  Name = *****
REMARK                            x       y       z     vdW  Elec       q    Type
REMARK                         _______ _______ _______ _____ _____    ______ ____
ROOT
ATOM      1  C   LIG    1       22.765 -20.401   4.996  0.00  0.00    +0.024 C 
ATOM      2  C   LIG    1       21.640 -21.451   4.809  0.00  0.00    +0.028 C 
ATOM      3  C   LIG    1       22.504 -18.996   4.276  0.00  0.00    -0.014 C 
ATOM      4  C   LIG    1       22.622 -17.755   5.187  0.00  0.00    +0.013 C 
ATOM      5  C   LIG    1       21.120 -18.893   3.596  0.00  0.00    +0.013 C 
ATOM      6  C   LIG    1       23.619 -18.978   3.165  0.00  0.00    -0.003 C 
ATOM      7  C   LIG    1       23.726 -20.450   2.762  0.00  0.00    +0.009 C 
ATOM      8  C   LIG    1       25.025 -18.759   3.754  0.00  0.00    +0.004 C 
ATOM      9  C   LIG    1       25.290 -20.073   4.495  0.00  0.00    +0.005 C 
ATOM     10  C   LIG    1       24.025 -20.909   4.192  0.00  0.00    +0.010 C 
ENDROOT
BRANCH   1  12
ATOM     11  C   LIG    1       23.518 -21.567   7.062  0.00  0.00    +0.101 C 
ATOM     12  N   LIG    1       23.124 -20.319   6.426  0.00  0.00    -0.313 NA
ATOM     13  H   LIG    1       23.879 -19.643   6.549  0.00  0.00    +0.122 HD
ENDBRANCH   1  12
TORSDOF 1
ENDMDL
MODEL 4
REMARK VINA RESULT:      -2.8      1.415      1.944
REMARK  Name = *****
REMARK                            x       y       z     vdW  Elec       q    Type
REMARK                         _______ _______ _______ _____ _____    ______ ____
ROOT
ATOM      1  C   LIG    1       25.314 -13.621   3.924  0.00  0.00    +0.024 C 
ATOM      2  C   LIG    1       24.042 -14.263   4.535  0.00  0.00    +0.028 C 
ATOM      3  C   LIG    1       26.359 -14.657   3.295  0.00  0.00    -0.014 C 
ATOM      4  C   LIG    1       26.776 -14.370   1.837  0.00  0.00    +0.013 C 
ATOM      5  C   LIG    1       25.869 -16.123   3.316  0.00  0.00    +0.013 C 
ATOM      6  C   LIG    1       27.591 -14.519   4.264  0.00  0.00    -0.003 C 
ATOM      7  C   LIG    1       26.934 -14.264   5.622  0.00  0.00    +0.009 C 
ATOM      8  C   LIG    1       28.336 -13.185   4.073  0.00  0.00    +0.004 C 
ATOM      9  C   LIG    1       27.341 -12.159   4.623  0.00  0.00    +0.005 C 
ATOM     10  C   LIG    1       26.168 -13.037   5.118  0.00  0.00    +0.010 C 
ENDROOT
BRANCH   1  12
ATOM     11  C   LIG    1       23.773 -11.720   3.467  0.00  0.00    +0.101 C 
ATOM     12  N   LIG    1       24.922 -12.506   3.040  0.00  0.00    -0.313 NA
ATOM     13  H   LIG    1       25.715 -11.875   2.915  0.00  0.00    +0.122 HD
ENDBRANCH   1  12
TORSDOF 1
ENDMDL
MODEL 5
REMARK VINA RESULT:      -2.7      5.999      7.740
REMARK  Name = *****
REMARK                            x       y       z     vdW  Elec       q    Type
REMARK                         _______ _______ _______ _____ _____    ______ ____
ROOT
ATOM      1  C   LIG    1       24.125 -20.293   4.315  0.00  0.00    +0.024 C 
ATOM      2  C   LIG    1       24.297 -21.572   3.455  0.00  0.00    +0.028 C 
ATOM      3  C   LIG    1       22.810 -20.265   5.228  0.00  0.00    -0.014 C 
ATOM      4  C   LIG    1       23.054 -19.985   6.727  0.00  0.00    +0.013 C 
ATOM      5  C   LIG    1       21.984 -21.571   5.169  0.00  0.00    +0.013 C 
ATOM      6  C   LIG    1       21.973 -19.105   4.573  0.00  0.00    -0.003 C 
ATOM      7  C   LIG    1       22.312 -19.233   3.087  0.00  0.00    +0.009 C 
ATOM      8  C   LIG    1       22.574 -17.717   4.866  0.00  0.00    +0.004 C 
ATOM      9  C   LIG    1       23.865 -17.726   4.042  0.00  0.00    +0.005 C 
ATOM     10  C   LIG    1       23.819 -19.098   3.330  0.00  0.00    +0.010 C 
ENDROOT
BRANCH   1  12
ATOM     11  C   LIG    1       26.039 -21.140   5.662  0.00  0.00    +0.101 C 
ATOM     12  N   LIG    1       25.388 -20.005   5.022  0.00  0.00    -0.313 NA
ATOM     13  H   LIG    1       26.051 -19.578   4.374  0.00  0.00    +0.122 HD
ENDBRANCH   1  12
TORSDOF 1
ENDMDL
MODEL 6
REMARK VINA RESULT:      -2.4      1.187      2.751
REMARK  Name = *****
REMARK                            x       y       z     vdW  Elec       q    Type
REMARK                         _______ _______ _______ _____ _____    ______ ____
ROOT
ATOM      1  C   LIG    1       25.644 -13.090   3.564  0.00  0.00    +0.024 C 
ATOM      2  C   LIG    1       25.571 -11.796   2.712  0.00  0.00    +0.028 C 
ATOM      3  C   LIG    1       27.066 -13.374   4.241  0.00  0.00    -0.014 C 
ATOM      4  C   LIG    1       27.035 -13.612   5.766  0.00  0.00    +0.013 C 
ATOM      5  C   LIG    1       28.101 -12.249   4.009  0.00  0.00    +0.013 C 
ATOM      6  C   LIG    1       27.544 -14.668   3.484  0.00  0.00    -0.003 C 
ATOM      7  C   LIG    1       26.986 -14.468   2.074  0.00  0.00    +0.009 C 
ATOM      8  C   LIG    1       26.751 -15.918   3.911  0.00  0.00    +0.004 C 
ATOM      9  C   LIG    1       25.364 -15.658   3.318  0.00  0.00    +0.005 C 
ATOM     10  C   LIG    1       25.545 -14.315   2.573  0.00  0.00    +0.010 C 
ENDROOT
BRANCH   1  12
ATOM     11  C   LIG    1       23.826 -11.867   4.745  0.00  0.00    +0.101 C 
ATOM     12  N   LIG    1       24.489 -13.137   4.482  0.00  0.00    -0.313 NA
ATOM     13  H   LIG    1       23.795 -13.794   4.124  0.00  0.00    +0.122 HD
ENDBRANCH   1  12
TORSDOF 1
ENDMDL
MODEL 7
REMARK VINA RESULT:      -2.1      1.346      3.075
REMARK  Name = *****
REMARK                            x       y       z     vdW  Elec       q    Type
REMARK                         _______ _______ _______ _____ _____    ______ ____
ROOT
ATOM      1  C   LIG    1       26.268 -13.869   4.182  0.00  0.00    +0.024 C 
ATOM      2  C   LIG    1       27.633 -14.601   4.101  0.00  0.00    +0.028 C 
ATOM      3  C   LIG    1       25.010 -14.729   3.694  0.00  0.00    -0.014 C 
ATOM      4  C   LIG    1       23.843 -14.822   4.702  0.00  0.00    +0.013 C 
ATOM      5  C   LIG    1       25.361 -16.186   3.316  0.00  0.00    +0.013 C 
ATOM      6  C   LIG    1       24.564 -13.960   2.395  0.00  0.00    -0.003 C 
ATOM      7  C   LIG    1       25.891 -13.472   1.812  0.00  0.00    +0.009 C 
ATOM      8  C   LIG    1       23.900 -12.608   2.718  0.00  0.00    +0.004 C 
ATOM      9  C   LIG    1       25.072 -11.770   3.235  0.00  0.00    +0.005 C 
ATOM     10  C   LIG    1       26.279 -12.727   3.093  0.00  0.00    +0.010 C 
ENDROOT
BRANCH   1  12
ATOM     11  C   LIG    1       27.234 -13.448   6.437  0.00  0.00    +0.101 C 
ATOM     12  N   LIG    1       26.127 -13.246   5.513  0.00  0.00    -0.313 NA
ATOM     13  H   LIG    1       25.978 -12.242   5.405  0.00  0.00    +0.122 HD
ENDBRANCH   1  12
TORSDOF 1
ENDMDL
MODEL 8
REMARK VINA RESULT:      -2.1      1.752      3.514
REMARK  Name = *****
REMARK                            x       y       z     vdW  Elec       q    Type
REMARK                         _______ _______ _______ _____ _____    ______ ____
ROOT
ATOM      1  C   LIG    1       26.387 -14.924   3.835  0.00  0.00    +0.024 C 
ATOM      2  C   LIG    1       27.673 -15.550   4.435  0.00  0.00    +0.028 C 
ATOM      3  C   LIG    1       26.561 -13.437   3.268  0.00  0.00    -0.014 C 
ATOM      4  C   LIG    1       26.093 -13.228   1.812  0.00  0.00    +0.013 C 
ATOM      5  C   LIG    1       28.015 -12.916   3.326  0.00  0.00    +0.013 C 
ATOM      6  C   LIG    1       25.679 -12.595   4.263  0.00  0.00    -0.003 C 
ATOM      7  C   LIG    1       25.871 -13.324   5.594  0.00  0.00    +0.009 C 
ATOM      8  C   LIG    1       24.172 -12.827   4.045  0.00  0.00    +0.004 C 
ATOM      9  C   LIG    1       23.977 -14.265   4.535  0.00  0.00    +0.005 C 
ATOM     10  C   LIG    1       25.387 -14.663   5.029  0.00  0.00    +0.010 C 
ENDROOT
BRANCH   1  12
ATOM     11  C   LIG    1       25.795 -17.283   3.307  0.00  0.00    +0.101 C 
ATOM     12  N   LIG    1       25.764 -15.884   2.904  0.00  0.00    -0.313 NA
ATOM     13  H   LIG    1       24.792 -15.618   2.740  0.00  0.00    +0.122 HD
ENDBRANCH   1  12
TORSDOF 1
ENDMDL
MODEL 9
REMARK VINA RESULT:      -2.1      1.530      2.748
REMARK  Name = *****
REMARK                            x       y       z     vdW  Elec       q    Type
REMARK                         _______ _______ _______ _____ _____    ______ ____
ROOT
ATOM      1  C   LIG    1       24.808 -14.091   3.717  0.00  0.00    +0.024 C 
ATOM      2  C   LIG    1       23.655 -13.377   2.965  0.00  0.00    +0.028 C 
ATOM      3  C   LIG    1       25.614 -13.169   4.747  0.00  0.00    -0.014 C 
ATOM      4  C   LIG    1       25.726 -13.726   6.183  0.00  0.00    +0.013 C 
ATOM      5  C   LIG    1       25.036 -11.742   4.889  0.00  0.00    +0.013 C 
ATOM      6  C   LIG    1       27.034 -13.078   4.074  0.00  0.00    -0.003 C 
ATOM      7  C   LIG    1       26.706 -13.079   2.579  0.00  0.00    +0.009 C 
ATOM      8  C   LIG    1       27.813 -14.402   4.178  0.00  0.00    +0.004 C 
ATOM      9  C   LIG    1       27.038 -15.327   3.236  0.00  0.00    +0.005 C 
ATOM     10  C   LIG    1       25.939 -14.403   2.661  0.00  0.00    +0.010 C 
ENDROOT
BRANCH   1  12
ATOM     11  C   LIG    1       22.908 -15.408   4.638  0.00  0.00    +0.101 C 
ATOM     12  N   LIG    1       24.315 -15.368   4.268  0.00  0.00    -0.313 NA
ATOM     13  H   LIG    1       24.493 -16.118   3.599  0.00  0.00    +0.122 HD
ENDBRANCH   1  12
TORSDOF 1
ENDMDL
