MODEL 1
REMARK VINA RESULT:      -7.5      0.000      0.000
REMARK  Name = *****
REMARK                            x       y       z     vdW  Elec       q    Type
REMARK                         _______ _______ _______ _____ _____    ______ ____
ROOT
ATOM      1  C   LIG    1       25.518 -23.357   6.764  0.00  0.00    +0.394 C 
ATOM      2  N   LIG    1       24.962 -23.038   5.647  0.00  0.00    -0.073 NA
ENDROOT
BRANCH   2   3
ATOM      3  C   LIG    1       24.391 -21.797   5.326  0.00  0.00    +0.142 A 
ATOM      4  C   LIG    1       23.189 -21.478   5.974  0.00  0.00    +0.047 A 
ATOM      5  C   LIG    1       22.497 -20.299   5.688  0.00  0.00    +0.023 A 
ATOM      6  C   LIG    1       23.015 -19.412   4.751  0.00  0.00    +0.041 A 
ATOM      7 CL   LIG    1       22.185 -17.947   4.406  0.00  0.00    -0.084 Cl
ATOM      8  C   LIG    1       24.194 -19.719   4.076  0.00  0.00    +0.023 A 
ATOM      9  C   LIG    1       24.857 -20.925   4.339  0.00  0.00    +0.047 A 
ENDBRANCH   2   3
BRANCH   1  10
ATOM     10  N   LIG    1       26.020 -24.633   6.796  0.00  0.00    -0.288 N 
ATOM     11  H   LIG    1       25.278 -25.251   7.120  0.00  0.00    +0.255 HD
ATOM     12  H   LIG    1       26.284 -24.931   5.859  0.00  0.00    +0.255 HD
ENDBRANCH   1  10
BRANCH   1  13
ATOM     13  N   LIG    1       25.700 -22.647   7.925  0.00  0.00    -0.186 N 
ATOM     14  H   LIG    1       25.204 -23.026   8.718  0.00  0.00    +0.271 HD
BRANCH  13  15
ATOM     15  C   LIG    1       26.418 -21.565   8.335  0.00  0.00    +0.388 C 
ATOM     16  N   LIG    1       25.909 -20.756   9.200  0.00  0.00    -0.129 NA
ATOM     17  H   LIG    1       26.569 -19.993   9.364  0.00  0.00    +0.306 HD
BRANCH  15  18
ATOM     18  N   LIG    1       27.644 -21.441   7.764  0.00  0.00    -0.273 N 
ATOM     19  H   LIG    1       28.293 -22.066   8.245  0.00  0.00    +0.258 HD
BRANCH  18  21
ATOM     20  C   LIG    1       29.802 -20.305   7.695  0.00  0.00    +0.047 C 
ATOM     21  C   LIG    1       28.307 -20.200   7.404  0.00  0.00    +0.139 C 
ATOM     22  C   LIG    1       28.075 -19.982   5.907  0.00  0.00    +0.047 C 
ENDBRANCH  18  21
ENDBRANCH  15  18
ENDBRANCH  13  15
ENDBRANCH   1  13
TORSDOF 6
ENDMDL
MODEL 2
REMARK VINA RESULT:      -7.2      3.241      5.579
REMARK  Name = *****
REMARK                            x       y       z     vdW  Elec       q    Type
REMARK                         _______ _______ _______ _____ _____    ______ ____
ROOT
ATOM      1  C   LIG    1       25.710 -21.446   6.806  0.00  0.00    +0.394 C 
ATOM      2  N   LIG    1       25.489 -22.500   7.513  0.00  0.00    -0.073 NA
ENDROOT
BRANCH   2   3
ATOM      3  C   LIG    1       25.138 -23.770   7.028  0.00  0.00    +0.142 A 
ATOM      4  C   LIG    1       26.194 -24.664   6.801  0.00  0.00    +0.047 A 
ATOM      5  C   LIG    1       25.972 -25.932   6.260  0.00  0.00    +0.023 A 
ATOM      6  C   LIG    1       24.675 -26.327   5.952  0.00  0.00    +0.041 A 
ATOM      7 CL   LIG    1       24.386 -27.894   5.307  0.00  0.00    -0.084 Cl
ATOM      8  C   LIG    1       23.613 -25.447   6.144  0.00  0.00    +0.023 A 
ATOM      9  C   LIG    1       23.852 -24.161   6.646  0.00  0.00    +0.047 A 
ENDBRANCH   2   3
BRANCH   1  10
ATOM     10  N   LIG    1       26.064 -20.343   7.540  0.00  0.00    -0.288 N 
ATOM     11  H   LIG    1       25.262 -20.078   8.107  0.00  0.00    +0.255 HD
ATOM     12  H   LIG    1       26.829 -20.572   8.172  0.00  0.00    +0.255 HD
ENDBRANCH   1  10
BRANCH   1  13
ATOM     13  N   LIG    1       25.658 -21.233   5.450  0.00  0.00    -0.186 N 
ATOM     14  H   LIG    1       25.773 -22.070   4.900  0.00  0.00    +0.271 HD
BRANCH  13  15
ATOM     15  C   LIG    1       25.444 -20.183   4.610  0.00  0.00    +0.388 C 
ATOM     16  N   LIG    1       26.430 -19.417   4.288  0.00  0.00    -0.129 NA
ATOM     17  H   LIG    1       26.082 -18.671   3.681  0.00  0.00    +0.306 HD
BRANCH  15  18
ATOM     18  N   LIG    1       24.162 -20.041   4.184  0.00  0.00    -0.273 N 
ATOM     19  H   LIG    1       24.161 -19.467   3.339  0.00  0.00    +0.258 HD
BRANCH  18  21
ATOM     20  C   LIG    1       22.234 -18.563   4.404  0.00  0.00    +0.047 C 
ATOM     21  C   LIG    1       23.007 -19.732   5.009  0.00  0.00    +0.139 C 
ATOM     22  C   LIG    1       22.129 -20.985   5.043  0.00  0.00    +0.047 C 
ENDBRANCH  18  21
ENDBRANCH  15  18
ENDBRANCH  13  15
ENDBRANCH   1  13
TORSDOF 6
ENDMDL
MODEL 3
REMARK VINA RESULT:      -7.1      2.967      4.488
REMARK  Name = *****
REMARK                            x       y       z     vdW  Elec       q    Type
REMARK                         _______ _______ _______ _____ _____    ______ ____
ROOT
ATOM      1  C   LIG    1       29.487 -21.010   8.023  0.00  0.00    +0.394 C 
ATOM      2  N   LIG    1       28.440 -21.740   7.849  0.00  0.00    -0.073 NA
ENDROOT
BRANCH   2   3
ATOM      3  C   LIG    1       27.193 -21.307   7.370  0.00  0.00    +0.142 A 
ATOM      4  C   LIG    1       26.085 -21.577   8.185  0.00  0.00    +0.047 A 
ATOM      5  C   LIG    1       24.787 -21.250   7.783  0.00  0.00    +0.023 A 
ATOM      6  C   LIG    1       24.588 -20.629   6.554  0.00  0.00    +0.041 A 
ATOM      7 CL   LIG    1       23.000 -20.200   6.057  0.00  0.00    -0.084 Cl
ATOM      8  C   LIG    1       25.671 -20.374   5.717  0.00  0.00    +0.023 A 
ATOM      9  C   LIG    1       26.964 -20.746   6.111  0.00  0.00    +0.047 A 
ENDBRANCH   2   3
BRANCH   1  10
ATOM     10  N   LIG    1       30.581 -21.699   8.478  0.00  0.00    -0.288 N 
ATOM     11  H   LIG    1       30.347 -22.690   8.476  0.00  0.00    +0.255 HD
ATOM     12  H   LIG    1       31.369 -21.565   7.846  0.00  0.00    +0.255 HD
ENDBRANCH   1  10
BRANCH   1  13
ATOM     13  N   LIG    1       29.702 -19.667   7.831  0.00  0.00    -0.186 N 
ATOM     14  H   LIG    1       28.856 -19.118   7.799  0.00  0.00    +0.271 HD
BRANCH  13  15
ATOM     15  C   LIG    1       30.770 -18.831   7.711  0.00  0.00    +0.388 C 
ATOM     16  N   LIG    1       31.737 -19.146   6.919  0.00  0.00    -0.129 NA
ATOM     17  H   LIG    1       32.459 -18.426   6.979  0.00  0.00    +0.306 HD
BRANCH  15  18
ATOM     18  N   LIG    1       30.708 -17.709   8.474  0.00  0.00    -0.273 N 
ATOM     19  H   LIG    1       30.713 -16.895   7.857  0.00  0.00    +0.258 HD
BRANCH  18  21
ATOM     20  C   LIG    1       32.300 -16.167   9.492  0.00  0.00    +0.047 C 
ATOM     21  C   LIG    1       31.477 -17.439   9.677  0.00  0.00    +0.139 C 
ATOM     22  C   LIG    1       30.476 -17.259  10.820  0.00  0.00    +0.047 C 
ENDBRANCH  18  21
ENDBRANCH  15  18
ENDBRANCH  13  15
ENDBRANCH   1  13
TORSDOF 6
ENDMDL
MODEL 4
REMARK VINA RESULT:      -7.1      2.917      5.267
REMARK  Name = *****
REMARK                            x       y       z     vdW  Elec       q    Type
REMARK                         _______ _______ _______ _____ _____    ______ ____
ROOT
ATOM      1  C   LIG    1       24.282 -21.765   5.289  0.00  0.00    +0.394 C 
ATOM      2  N   LIG    1       24.794 -20.646   5.668  0.00  0.00    -0.073 NA
ENDROOT
BRANCH   2   3
ATOM      3  C   LIG    1       26.063 -20.462   6.240  0.00  0.00    +0.142 A 
ATOM      4  C   LIG    1       27.071 -19.998   5.384  0.00  0.00    +0.047 A 
ATOM      5  C   LIG    1       28.387 -19.837   5.827  0.00  0.00    +0.023 A 
ATOM      6  C   LIG    1       28.704 -20.129   7.149  0.00  0.00    +0.041 A 
ATOM      7 CL   LIG    1       30.314 -19.915   7.712  0.00  0.00    -0.084 Cl
ATOM      8  C   LIG    1       27.725 -20.616   8.010  0.00  0.00    +0.023 A 
ATOM      9  C   LIG    1       26.418 -20.815   7.545  0.00  0.00    +0.047 A 
ENDBRANCH   2   3
BRANCH   1  10
ATOM     10  N   LIG    1       23.033 -21.651   4.735  0.00  0.00    -0.288 N 
ATOM     11  H   LIG    1       22.874 -22.474   4.156  0.00  0.00    +0.255 HD
ATOM     12  H   LIG    1       22.324 -21.644   5.466  0.00  0.00    +0.255 HD
ENDBRANCH   1  10
BRANCH   1  13
ATOM     13  N   LIG    1       24.765 -23.050   5.338  0.00  0.00    -0.186 N 
ATOM     14  H   LIG    1       25.482 -23.243   4.655  0.00  0.00    +0.271 HD
BRANCH  13  15
ATOM     15  C   LIG    1       24.577 -24.162   6.101  0.00  0.00    +0.388 C 
ATOM     16  N   LIG    1       23.378 -24.555   6.365  0.00  0.00    -0.129 NA
ATOM     17  H   LIG    1       23.427 -25.378   6.969  0.00  0.00    +0.306 HD
BRANCH  15  18
ATOM     18  N   LIG    1       25.717 -24.764   6.529  0.00  0.00    -0.273 N 
ATOM     19  H   LIG    1       26.463 -24.067   6.555  0.00  0.00    +0.258 HD
BRANCH  18  21
ATOM     20  C   LIG    1       25.892 -27.127   7.107  0.00  0.00    +0.047 C 
ATOM     21  C   LIG    1       26.235 -26.046   6.085  0.00  0.00    +0.139 C 
ATOM     22  C   LIG    1       25.573 -26.360   4.742  0.00  0.00    +0.047 C 
ENDBRANCH  18  21
ENDBRANCH  15  18
ENDBRANCH  13  15
ENDBRANCH   1  13
TORSDOF 6
ENDMDL
MODEL 5
REMARK VINA RESULT:      -7.1      3.276      4.685
REMARK  Name = *****
REMARK                            x       y       z     vdW  Elec       q    Type
REMARK                         _______ _______ _______ _____ _____    ______ ____
ROOT
ATOM      1  C   LIG    1       23.966 -21.423   6.822  0.00  0.00    +0.394 C 
ATOM      2  N   LIG    1       23.955 -22.589   7.371  0.00  0.00    -0.073 NA
ENDROOT
BRANCH   2   3
ATOM      3  C   LIG    1       24.494 -23.767   6.833  0.00  0.00    +0.142 A 
ATOM      4  C   LIG    1       23.578 -24.687   6.303  0.00  0.00    +0.047 A 
ATOM      5  C   LIG    1       23.993 -25.921   5.798  0.00  0.00    +0.023 A 
ATOM      6  C   LIG    1       25.346 -26.244   5.805  0.00  0.00    +0.041 A 
ATOM      7 CL   LIG    1       25.872 -27.750   5.166  0.00  0.00    -0.084 Cl
ATOM      8  C   LIG    1       26.272 -25.357   6.350  0.00  0.00    +0.023 A 
ATOM      9  C   LIG    1       25.840 -24.140   6.894  0.00  0.00    +0.047 A 
ENDBRANCH   2   3
BRANCH   1  10
ATOM     10  N   LIG    1       23.391 -20.439   7.584  0.00  0.00    -0.288 N 
ATOM     11  H   LIG    1       22.434 -20.723   7.786  0.00  0.00    +0.255 HD
ATOM     12  H   LIG    1       23.881 -20.350   8.472  0.00  0.00    +0.255 HD
ENDBRANCH   1  10
BRANCH   1  13
ATOM     13  N   LIG    1       24.454 -20.992   5.613  0.00  0.00    -0.186 N 
ATOM     14  H   LIG    1       23.740 -20.824   4.921  0.00  0.00    +0.271 HD
BRANCH  13  15
ATOM     15  C   LIG    1       25.665 -20.674   5.078  0.00  0.00    +0.388 C 
ATOM     16  N   LIG    1       25.719 -20.080   3.935  0.00  0.00    -0.129 NA
ATOM     17  H   LIG    1       26.699 -19.949   3.678  0.00  0.00    +0.306 HD
BRANCH  15  18
ATOM     18  N   LIG    1       26.737 -21.034   5.831  0.00  0.00    -0.273 N 
ATOM     19  H   LIG    1       26.526 -21.919   6.296  0.00  0.00    +0.258 HD
BRANCH  18  21
ATOM     20  C   LIG    1       27.133 -20.445   8.165  0.00  0.00    +0.047 C 
ATOM     21  C   LIG    1       27.505 -20.170   6.710  0.00  0.00    +0.139 C 
ATOM     22  C   LIG    1       28.984 -20.485   6.474  0.00  0.00    +0.047 C 
ENDBRANCH  18  21
ENDBRANCH  15  18
ENDBRANCH  13  15
ENDBRANCH   1  13
TORSDOF 6
ENDMDL
MODEL 6
REMARK VINA RESULT:      -7.0      3.068      4.709
REMARK  Name = *****
REMARK                            x       y       z     vdW  Elec       q    Type
REMARK                         _______ _______ _______ _____ _____    ______ ____
ROOT
ATOM      1  C   LIG    1       29.569 -19.604   6.665  0.00  0.00    +0.394 C 
ATOM      2  N   LIG    1       28.494 -19.692   5.961  0.00  0.00    -0.073 NA
ENDROOT
BRANCH   2   3
ATOM      3  C   LIG    1       27.255 -20.191   6.392  0.00  0.00    +0.142 A 
ATOM      4  C   LIG    1       26.266 -20.335   5.409  0.00  0.00    +0.047 A 
ATOM      5  C   LIG    1       24.975 -20.763   5.730  0.00  0.00    +0.023 A 
ATOM      6  C   LIG    1       24.665 -21.068   7.051  0.00  0.00    +0.041 A 
ATOM      7 CL   LIG    1       23.088 -21.617   7.457  0.00  0.00    -0.084 Cl
ATOM      8  C   LIG    1       25.624 -20.908   8.048  0.00  0.00    +0.023 A 
ATOM      9  C   LIG    1       26.902 -20.436   7.721  0.00  0.00    +0.047 A 
ENDBRANCH   2   3
BRANCH   1  10
ATOM     10  N   LIG    1       30.632 -19.049   5.999  0.00  0.00    -0.288 N 
ATOM     11  H   LIG    1       30.382 -18.986   5.014  0.00  0.00    +0.255 HD
ATOM     12  H   LIG    1       30.804 -18.104   6.337  0.00  0.00    +0.255 HD
ENDBRANCH   1  10
BRANCH   1  13
ATOM     13  N   LIG    1       29.838 -19.964   7.963  0.00  0.00    -0.186 N 
ATOM     14  H   LIG    1       29.019 -20.031   8.547  0.00  0.00    +0.271 HD
BRANCH  13  15
ATOM     15  C   LIG    1       30.930 -20.311   8.700  0.00  0.00    +0.388 C 
ATOM     16  N   LIG    1       31.527 -21.429   8.464  0.00  0.00    -0.129 NA
ATOM     17  H   LIG    1       32.297 -21.536   9.126  0.00  0.00    +0.306 HD
BRANCH  15  18
ATOM     18  N   LIG    1       31.290 -19.409   9.650  0.00  0.00    -0.273 N 
ATOM     19  H   LIG    1       31.174 -19.840  10.569  0.00  0.00    +0.258 HD
BRANCH  18  21
ATOM     20  C   LIG    1       30.666 -17.583  11.142  0.00  0.00    +0.047 C 
ATOM     21  C   LIG    1       30.914 -18.007   9.697  0.00  0.00    +0.139 C 
ATOM     22  C   LIG    1       32.078 -17.208   9.105  0.00  0.00    +0.047 C 
ENDBRANCH  18  21
ENDBRANCH  15  18
ENDBRANCH  13  15
ENDBRANCH   1  13
TORSDOF 6
ENDMDL
MODEL 7
REMARK VINA RESULT:      -6.9      3.391      6.082
REMARK  Name = *****
REMARK                            x       y       z     vdW  Elec       q    Type
REMARK                         _______ _______ _______ _____ _____    ______ ____
ROOT
ATOM      1  C   LIG    1       26.142 -20.093   4.753  0.00  0.00    +0.394 C 
ATOM      2  N   LIG    1       27.223 -19.505   5.134  0.00  0.00    -0.073 NA
ENDROOT
BRANCH   2   3
ATOM      3  C   LIG    1       28.110 -19.954   6.125  0.00  0.00    +0.142 A 
ATOM      4  C   LIG    1       29.340 -19.285   6.210  0.00  0.00    +0.047 A 
ATOM      5  C   LIG    1       30.326 -19.684   7.114  0.00  0.00    +0.023 A 
ATOM      6  C   LIG    1       30.082 -20.760   7.962  0.00  0.00    +0.041 A 
ATOM      7 CL   LIG    1       31.279 -21.247   9.095  0.00  0.00    -0.084 Cl
ATOM      8  C   LIG    1       28.879 -21.455   7.878  0.00  0.00    +0.023 A 
ATOM      9  C   LIG    1       27.914 -21.074   6.937  0.00  0.00    +0.047 A 
ENDBRANCH   2   3
BRANCH   1  10
ATOM     10  N   LIG    1       25.478 -19.446   3.743  0.00  0.00    -0.288 N 
ATOM     11  H   LIG    1       25.224 -20.141   3.044  0.00  0.00    +0.255 HD
ATOM     12  H   LIG    1       24.617 -19.032   4.097  0.00  0.00    +0.255 HD
ENDBRANCH   1  10
BRANCH   1  13
ATOM     13  N   LIG    1       25.541 -21.253   5.175  0.00  0.00    -0.186 N 
ATOM     14  H   LIG    1       25.978 -21.670   5.983  0.00  0.00    +0.271 HD
BRANCH  13  15
ATOM     15  C   LIG    1       24.458 -22.003   4.828  0.00  0.00    +0.388 C 
ATOM     16  N   LIG    1       23.312 -21.433   4.678  0.00  0.00    -0.129 NA
ATOM     17  H   LIG    1       22.617 -22.146   4.451  0.00  0.00    +0.306 HD
BRANCH  15  18
ATOM     18  N   LIG    1       24.705 -23.330   4.676  0.00  0.00    -0.273 N 
ATOM     19  H   LIG    1       24.043 -23.709   3.997  0.00  0.00    +0.258 HD
BRANCH  18  21
ATOM     20  C   LIG    1       23.693 -24.451   6.591  0.00  0.00    +0.047 C 
ATOM     21  C   LIG    1       24.948 -24.291   5.738  0.00  0.00    +0.139 C 
ATOM     22  C   LIG    1       25.306 -25.620   5.070  0.00  0.00    +0.047 C 
ENDBRANCH  18  21
ENDBRANCH  15  18
ENDBRANCH  13  15
ENDBRANCH   1  13
TORSDOF 6
ENDMDL
MODEL 8
REMARK VINA RESULT:      -6.8      3.134      5.425
REMARK  Name = *****
REMARK                            x       y       z     vdW  Elec       q    Type
REMARK                         _______ _______ _______ _____ _____    ______ ____
ROOT
ATOM      1  C   LIG    1       23.467 -23.274   6.729  0.00  0.00    +0.394 C 
ATOM      2  N   LIG    1       23.736 -22.039   6.975  0.00  0.00    -0.073 NA
ENDROOT
BRANCH   2   3
ATOM      3  C   LIG    1       25.014 -21.460   7.030  0.00  0.00    +0.142 A 
ATOM      4  C   LIG    1       25.574 -21.306   8.306  0.00  0.00    +0.047 A 
ATOM      5  C   LIG    1       26.813 -20.686   8.488  0.00  0.00    +0.023 A 
ATOM      6  C   LIG    1       27.515 -20.223   7.381  0.00  0.00    +0.041 A 
ATOM      7 CL   LIG    1       29.051 -19.479   7.589  0.00  0.00    -0.084 Cl
ATOM      8  C   LIG    1       26.967 -20.343   6.106  0.00  0.00    +0.023 A 
ATOM      9  C   LIG    1       25.705 -20.927   5.939  0.00  0.00    +0.047 A 
ENDBRANCH   2   3
BRANCH   1  10
ATOM     10  N   LIG    1       22.126 -23.563   6.710  0.00  0.00    -0.288 N 
ATOM     11  H   LIG    1       22.011 -24.475   6.273  0.00  0.00    +0.255 HD
ATOM     12  H   LIG    1       21.767 -23.626   7.660  0.00  0.00    +0.255 HD
ENDBRANCH   1  10
BRANCH   1  13
ATOM     13  N   LIG    1       24.282 -24.351   6.479  0.00  0.00    -0.186 N 
ATOM     14  H   LIG    1       24.509 -24.891   7.301  0.00  0.00    +0.271 HD
BRANCH  13  15
ATOM     15  C   LIG    1       24.855 -24.942   5.395  0.00  0.00    +0.388 C 
ATOM     16  N   LIG    1       24.857 -24.327   4.262  0.00  0.00    -0.129 NA
ATOM     17  H   LIG    1       25.297 -24.927   3.562  0.00  0.00    +0.306 HD
BRANCH  15  18
ATOM     18  N   LIG    1       25.383 -26.172   5.625  0.00  0.00    -0.273 N 
ATOM     19  H   LIG    1       25.811 -26.511   4.762  0.00  0.00    +0.258 HD
BRANCH  18  21
ATOM     20  C   LIG    1       24.421 -28.399   5.368  0.00  0.00    +0.047 C 
ATOM     21  C   LIG    1       24.746 -27.266   6.338  0.00  0.00    +0.139 C 
ATOM     22  C   LIG    1       25.735 -27.749   7.401  0.00  0.00    +0.047 C 
ENDBRANCH  18  21
ENDBRANCH  15  18
ENDBRANCH  13  15
ENDBRANCH   1  13
TORSDOF 6
ENDMDL
MODEL 9
REMARK VINA RESULT:      -6.7      4.459      6.375
REMARK  Name = *****
REMARK                            x       y       z     vdW  Elec       q    Type
REMARK                         _______ _______ _______ _____ _____    ______ ____
ROOT
ATOM      1  C   LIG    1       24.394 -27.412   5.983  0.00  0.00    +0.394 C 
ATOM      2  N   LIG    1       23.963 -26.234   5.691  0.00  0.00    -0.073 NA
ENDROOT
BRANCH   2   3
ATOM      3  C   LIG    1       24.368 -25.028   6.284  0.00  0.00    +0.142 A 
ATOM      4  C   LIG    1       23.353 -24.109   6.584  0.00  0.00    +0.047 A 
ATOM      5  C   LIG    1       23.643 -22.851   7.118  0.00  0.00    +0.023 A 
ATOM      6  C   LIG    1       24.965 -22.504   7.372  0.00  0.00    +0.041 A 
ATOM      7 CL   LIG    1       25.334 -20.968   8.050  0.00  0.00    -0.084 Cl
ATOM      8  C   LIG    1       25.992 -23.391   7.059  0.00  0.00    +0.023 A 
ATOM      9  C   LIG    1       25.694 -24.633   6.483  0.00  0.00    +0.047 A 
ENDBRANCH   2   3
BRANCH   1  10
ATOM     10  N   LIG    1       23.845 -28.414   5.224  0.00  0.00    -0.288 N 
ATOM     11  H   LIG    1       23.039 -28.027   4.736  0.00  0.00    +0.255 HD
ATOM     12  H   LIG    1       24.511 -28.730   4.522  0.00  0.00    +0.255 HD
ENDBRANCH   1  10
BRANCH   1  13
ATOM     13  N   LIG    1       25.307 -27.842   6.914  0.00  0.00    -0.186 N 
ATOM     14  H   LIG    1       26.161 -27.305   6.927  0.00  0.00    +0.271 HD
BRANCH  13  15
ATOM     15  C   LIG    1       25.372 -28.791   7.888  0.00  0.00    +0.388 C 
ATOM     16  N   LIG    1       24.507 -29.746   7.903  0.00  0.00    -0.129 NA
ATOM     17  H   LIG    1       24.688 -30.341   8.714  0.00  0.00    +0.306 HD
BRANCH  15  18
ATOM     18  N   LIG    1       26.379 -28.624   8.784  0.00  0.00    -0.273 N 
ATOM     19  H   LIG    1       27.266 -28.827   8.320  0.00  0.00    +0.258 HD
BRANCH  18  21
ATOM     20  C   LIG    1       27.368 -30.282  10.276  0.00  0.00    +0.047 C 
ATOM     21  C   LIG    1       26.404 -29.104  10.155  0.00  0.00    +0.139 C 
ATOM     22  C   LIG    1       26.877 -27.942  11.032  0.00  0.00    +0.047 C 
ENDBRANCH  18  21
ENDBRANCH  15  18
ENDBRANCH  13  15
ENDBRANCH   1  13
TORSDOF 6
ENDMDL
