MODEL 1
REMARK VINA RESULT:      -8.0      0.000      0.000
REMARK  Name = *****
REMARK                            x       y       z     vdW  Elec       q    Type
REMARK                         _______ _______ _______ _____ _____    ______ ____
ROOT
ATOM      1  C   LIG    1       24.355 -27.283   5.380  0.00  0.00    +0.159 C 
ENDROOT
BRANCH   1   2
ATOM      2  C   LIG    1       24.100 -28.651   6.131  0.00  0.00    +0.234 C 
ATOM      3  N   LIG    1       24.913 -28.900   7.222  0.00  0.00    -0.302 N 
ATOM      4  H   LIG    1       25.541 -28.176   7.545  0.00  0.00    +0.149 HD
ATOM      5  O   LIG    1       23.306 -29.500   5.716  0.00  0.00    -0.274 OA
BRANCH   3   6
ATOM      6  C   LIG    1       24.772 -30.080   8.100  0.00  0.00    +0.163 C 
BRANCH   6   7
ATOM      7  C   LIG    1       24.949 -29.708   9.600  0.00  0.00    +0.234 C 
ATOM      8  N   LIG    1       23.972 -30.148  10.459  0.00  0.00    -0.304 N 
ATOM      9  H   LIG    1       23.235 -30.768  10.127  0.00  0.00    +0.149 HD
ATOM     10  O   LIG    1       25.844 -28.978  10.017  0.00  0.00    -0.274 OA
BRANCH   8  11
ATOM     11  C   LIG    1       24.026 -29.829  11.903  0.00  0.00    +0.142 C 
BRANCH  11  12
ATOM     12  C   LIG    1       23.910 -31.060  12.817  0.00  0.00    +0.187 C 
ATOM     13  O   LIG    1       22.904 -31.309  13.506  0.00  0.00    -0.292 OA
BRANCH  12  14
ATOM     14  C   LIG    1       25.078 -31.993  12.971  0.00  0.00    +0.149 C 
ATOM     15  C   LIG    1       25.767 -32.120  14.294  0.00  0.00    +0.052 C 
ATOM     16  O   LIG    1       25.927 -32.130  11.820  0.00  0.00    -0.360 OA
ATOM     17  C   LIG    1       25.060 -33.234  12.103  0.00  0.00    +0.203 C 
ENDBRANCH  12  14
ENDBRANCH  11  12
BRANCH  11  18
ATOM     18  C   LIG    1       23.018 -28.703  12.234  0.00  0.00    +0.033 C 
BRANCH  18  19
ATOM     19  C   LIG    1       23.426 -27.721  13.364  0.00  0.00    -0.015 C 
ATOM     20  C   LIG    1       22.442 -26.549  13.458  0.00  0.00    +0.007 C 
ATOM     21  C   LIG    1       24.848 -27.183  13.186  0.00  0.00    +0.007 C 
ENDBRANCH  18  19
ENDBRANCH  11  18
ENDBRANCH   8  11
ENDBRANCH   6   7
BRANCH   6  22
ATOM     22  C   LIG    1       25.751 -31.220   7.688  0.00  0.00    +0.067 C 
BRANCH  22  23
ATOM     23  C   LIG    1       25.471 -31.942   6.380  0.00  0.00    -0.045 A 
ATOM     24  C   LIG    1       26.296 -31.766   5.262  0.00  0.00    +0.003 A 
ATOM     25  C   LIG    1       26.040 -32.460   4.075  0.00  0.00    +0.000 A 
ATOM     26  C   LIG    1       24.966 -33.345   3.993  0.00  0.00    +0.000 A 
ATOM     27  C   LIG    1       24.144 -33.537   5.097  0.00  0.00    +0.000 A 
ATOM     28  C   LIG    1       24.381 -32.822   6.272  0.00  0.00    +0.003 A 
ENDBRANCH  22  23
ENDBRANCH   6  22
ENDBRANCH   3   6
ENDBRANCH   1   2
BRANCH   1  29
ATOM     29  N   LIG    1       24.294 -26.166   6.357  0.00  0.00    -0.302 N 
ATOM     30  H   LIG    1       24.486 -26.382   7.328  0.00  0.00    +0.149 HD
ATOM     31  C   LIG    1       24.481 -24.864   5.936  0.00  0.00    +0.234 C 
ATOM     32  O   LIG    1       24.621 -24.607   4.743  0.00  0.00    -0.274 OA
BRANCH  31  33
ATOM     33  C   LIG    1       24.510 -23.735   6.995  0.00  0.00    +0.159 C 
BRANCH  33  34
ATOM     34  N   LIG    1       25.830 -23.069   6.819  0.00  0.00    -0.303 N 
ATOM     35  H   LIG    1       26.121 -22.926   5.864  0.00  0.00    +0.149 HD
ATOM     36  C   LIG    1       26.510 -22.303   7.762  0.00  0.00    +0.228 C 
ATOM     37  O   LIG    1       26.130 -22.111   8.911  0.00  0.00    -0.274 OA
BRANCH  36  38
ATOM     38  C   LIG    1       27.800 -21.644   7.205  0.00  0.00    +0.180 C 
BRANCH  38  39
ATOM     39  N   LIG    1       27.747 -20.169   7.241  0.00  0.00    -0.290 NA
ATOM     40  C   LIG    1       28.603 -19.521   8.250  0.00  0.00    +0.113 C 
ATOM     41  C   LIG    1       30.088 -19.392   7.857  0.00  0.00    +0.175 C 
ATOM     42  O   LIG    1       30.254 -18.750   6.589  0.00  0.00    -0.377 OA
ATOM     43  C   LIG    1       29.534 -19.463   5.576  0.00  0.00    +0.175 C 
ATOM     44  C   LIG    1       28.038 -19.538   5.933  0.00  0.00    +0.113 C 
ENDBRANCH  38  39
ENDBRANCH  36  38
ENDBRANCH  33  34
BRANCH  33  45
ATOM     45  C   LIG    1       23.313 -22.808   6.709  0.00  0.00    +0.036 C 
BRANCH  45  46
ATOM     46  C   LIG    1       23.421 -21.308   7.075  0.00  0.00    +0.037 C 
BRANCH  46  47
ATOM     47  C   LIG    1       23.553 -20.426   5.840  0.00  0.00    -0.047 A 
ATOM     48  C   LIG    1       22.507 -19.573   5.459  0.00  0.00    +0.003 A 
ATOM     49  C   LIG    1       22.619 -18.781   4.310  0.00  0.00    +0.000 A 
ATOM     50  C   LIG    1       23.766 -18.839   3.520  0.00  0.00    +0.000 A 
ATOM     51  C   LIG    1       24.803 -19.691   3.873  0.00  0.00    +0.000 A 
ATOM     52  C   LIG    1       24.690 -20.482   5.014  0.00  0.00    +0.003 A 
ENDBRANCH  46  47
ENDBRANCH  45  46
ENDBRANCH  33  45
ENDBRANCH  31  33
ENDBRANCH   1  29
BRANCH   1  53
ATOM     53  C   LIG    1       25.653 -27.304   4.481  0.00  0.00    +0.034 C 
BRANCH  53  55
ATOM     54  C   LIG    1       28.296 -27.349   4.369  0.00  0.00    +0.007 C 
ATOM     55  C   LIG    1       27.017 -27.460   5.232  0.00  0.00    -0.015 C 
ATOM     56  C   LIG    1       27.170 -26.396   6.315  0.00  0.00    +0.007 C 
ENDBRANCH  53  55
ENDBRANCH   1  53
TORSDOF 20
ENDMDL
MODEL 2
REMARK VINA RESULT:      -8.0      1.837      4.023
REMARK  Name = *****
REMARK                            x       y       z     vdW  Elec       q    Type
REMARK                         _______ _______ _______ _____ _____    ______ ____
ROOT
ATOM      1  C   LIG    1       24.974 -27.605   6.916  0.00  0.00    +0.159 C 
ENDROOT
BRANCH   1   2
ATOM      2  C   LIG    1       25.962 -28.179   8.010  0.00  0.00    +0.234 C 
ATOM      3  N   LIG    1       25.481 -29.237   8.761  0.00  0.00    -0.302 N 
ATOM      4  H   LIG    1       24.591 -29.651   8.516  0.00  0.00    +0.149 HD
ATOM      5  O   LIG    1       27.052 -27.657   8.262  0.00  0.00    -0.274 OA
BRANCH   3   6
ATOM      6  C   LIG    1       26.281 -29.960   9.770  0.00  0.00    +0.163 C 
BRANCH   6   7
ATOM      7  C   LIG    1       25.402 -30.467  10.948  0.00  0.00    +0.234 C 
ATOM      8  N   LIG    1       24.204 -29.822  11.141  0.00  0.00    -0.304 N 
ATOM      9  H   LIG    1       23.884 -29.121  10.474  0.00  0.00    +0.149 HD
ATOM     10  O   LIG    1       25.767 -31.324  11.748  0.00  0.00    -0.274 OA
BRANCH   8  11
ATOM     11  C   LIG    1       23.301 -30.204  12.249  0.00  0.00    +0.142 C 
BRANCH  11  12
ATOM     12  C   LIG    1       22.580 -31.543  12.029  0.00  0.00    +0.187 C 
ATOM     13  O   LIG    1       22.416 -32.388  12.928  0.00  0.00    -0.292 OA
BRANCH  12  14
ATOM     14  C   LIG    1       22.100 -31.922  10.656  0.00  0.00    +0.149 C 
ATOM     15  C   LIG    1       22.726 -33.075   9.934  0.00  0.00    +0.052 C 
ATOM     16  O   LIG    1       21.669 -30.835   9.821  0.00  0.00    -0.360 OA
ATOM     17  C   LIG    1       20.636 -31.665  10.366  0.00  0.00    +0.203 C 
ENDBRANCH  12  14
ENDBRANCH  11  12
BRANCH  11  18
ATOM     18  C   LIG    1       22.355 -29.028  12.590  0.00  0.00    +0.033 C 
BRANCH  18  19
ATOM     19  C   LIG    1       23.010 -27.778  13.232  0.00  0.00    -0.015 C 
ATOM     20  C   LIG    1       23.528 -28.088  14.641  0.00  0.00    +0.007 C 
ATOM     21  C   LIG    1       22.057 -26.581  13.288  0.00  0.00    +0.007 C 
ENDBRANCH  18  19
ENDBRANCH  11  18
ENDBRANCH   8  11
ENDBRANCH   6   7
BRANCH   6  22
ATOM     22  C   LIG    1       27.466 -29.092  10.291  0.00  0.00    +0.067 C 
BRANCH  22  23
ATOM     23  C   LIG    1       27.290 -28.405  11.634  0.00  0.00    -0.045 A 
ATOM     24  C   LIG    1       27.854 -28.935  12.801  0.00  0.00    +0.003 A 
ATOM     25  C   LIG    1       27.705 -28.274  14.025  0.00  0.00    +0.000 A 
ATOM     26  C   LIG    1       27.004 -27.072  14.097  0.00  0.00    +0.000 A 
ATOM     27  C   LIG    1       26.446 -26.528  12.945  0.00  0.00    +0.000 A 
ATOM     28  C   LIG    1       26.568 -27.203  11.730  0.00  0.00    +0.003 A 
ENDBRANCH  22  23
ENDBRANCH   6  22
ENDBRANCH   3   6
ENDBRANCH   1   2
BRANCH   1  29
ATOM     29  N   LIG    1       24.702 -26.173   7.202  0.00  0.00    -0.302 N 
ATOM     30  H   LIG    1       24.147 -25.956   8.021  0.00  0.00    +0.149 HD
ATOM     31  C   LIG    1       25.550 -25.195   6.719  0.00  0.00    +0.234 C 
ATOM     32  O   LIG    1       26.489 -25.491   5.985  0.00  0.00    -0.274 OA
BRANCH  31  33
ATOM     33  C   LIG    1       25.293 -23.722   7.118  0.00  0.00    +0.159 C 
BRANCH  33  34
ATOM     34  N   LIG    1       26.604 -23.038   6.947  0.00  0.00    -0.303 N 
ATOM     35  H   LIG    1       27.031 -23.137   6.038  0.00  0.00    +0.149 HD
ATOM     36  C   LIG    1       27.111 -22.001   7.725  0.00  0.00    +0.228 C 
ATOM     37  O   LIG    1       26.558 -21.534   8.714  0.00  0.00    -0.274 OA
BRANCH  36  38
ATOM     38  C   LIG    1       28.450 -21.427   7.189  0.00  0.00    +0.180 C 
BRANCH  38  39
ATOM     39  N   LIG    1       28.956 -20.306   8.004  0.00  0.00    -0.290 NA
ATOM     40  C   LIG    1       30.053 -20.631   8.932  0.00  0.00    +0.113 C 
ATOM     41  C   LIG    1       31.451 -20.706   8.286  0.00  0.00    +0.175 C 
ATOM     42  O   LIG    1       31.767 -19.519   7.553  0.00  0.00    -0.377 OA
ATOM     43  C   LIG    1       30.771 -19.277   6.551  0.00  0.00    +0.175 C 
ATOM     44  C   LIG    1       29.381 -19.137   7.199  0.00  0.00    +0.113 C 
ENDBRANCH  38  39
ENDBRANCH  36  38
ENDBRANCH  33  34
BRANCH  33  45
ATOM     45  C   LIG    1       24.192 -23.181   6.186  0.00  0.00    +0.036 C 
BRANCH  45  46
ATOM     46  C   LIG    1       23.437 -21.891   6.587  0.00  0.00    +0.037 C 
BRANCH  46  47
ATOM     47  C   LIG    1       23.585 -20.792   5.541  0.00  0.00    -0.047 A 
ATOM     48  C   LIG    1       24.781 -20.648   4.823  0.00  0.00    +0.003 A 
ATOM     49  C   LIG    1       24.925 -19.624   3.881  0.00  0.00    +0.000 A 
ATOM     50  C   LIG    1       23.887 -18.722   3.652  0.00  0.00    +0.000 A 
ATOM     51  C   LIG    1       22.703 -18.840   4.366  0.00  0.00    +0.000 A 
ATOM     52  C   LIG    1       22.561 -19.857   5.306  0.00  0.00    +0.003 A 
ENDBRANCH  46  47
ENDBRANCH  45  46
ENDBRANCH  33  45
ENDBRANCH  31  33
ENDBRANCH   1  29
BRANCH   1  53
ATOM     53  C   LIG    1       25.445 -27.907   5.439  0.00  0.00    +0.034 C 
BRANCH  53  55
ATOM     54  C   LIG    1       25.982 -30.467   5.038  0.00  0.00    +0.007 C 
ATOM     55  C   LIG    1       25.007 -29.283   4.837  0.00  0.00    -0.015 C 
ATOM     56  C   LIG    1       23.684 -29.748   5.439  0.00  0.00    +0.007 C 
ENDBRANCH  53  55
ENDBRANCH   1  53
TORSDOF 20
ENDMDL
MODEL 3
REMARK VINA RESULT:      -7.7      1.563      2.307
REMARK  Name = *****
REMARK                            x       y       z     vdW  Elec       q    Type
REMARK                         _______ _______ _______ _____ _____    ______ ____
ROOT
ATOM      1  C   LIG    1       25.842 -27.092   7.047  0.00  0.00    +0.159 C 
ENDROOT
BRANCH   1   2
ATOM      2  C   LIG    1       26.143 -28.120   8.210  0.00  0.00    +0.234 C 
ATOM      3  N   LIG    1       25.213 -29.130   8.377  0.00  0.00    -0.302 N 
ATOM      4  H   LIG    1       24.463 -29.226   7.706  0.00  0.00    +0.149 HD
ATOM      5  O   LIG    1       27.085 -27.980   8.995  0.00  0.00    -0.274 OA
BRANCH   3   6
ATOM      6  C   LIG    1       25.360 -30.231   9.351  0.00  0.00    +0.163 C 
BRANCH   6   7
ATOM      7  C   LIG    1       26.032 -29.748  10.669  0.00  0.00    +0.234 C 
ATOM      8  N   LIG    1       25.378 -28.761  11.364  0.00  0.00    -0.304 N 
ATOM      9  H   LIG    1       24.455 -28.449  11.069  0.00  0.00    +0.149 HD
ATOM     10  O   LIG    1       27.136 -30.131  11.047  0.00  0.00    -0.274 OA
BRANCH   8  11
ATOM     11  C   LIG    1       25.940 -28.208  12.616  0.00  0.00    +0.142 C 
BRANCH  11  12
ATOM     12  C   LIG    1       25.076 -28.477  13.858  0.00  0.00    +0.187 C 
ATOM     13  O   LIG    1       25.550 -28.715  14.984  0.00  0.00    -0.292 OA
BRANCH  12  14
ATOM     14  C   LIG    1       23.579 -28.538  13.733  0.00  0.00    +0.149 C 
ATOM     15  C   LIG    1       22.824 -27.368  13.183  0.00  0.00    +0.052 C 
ATOM     16  O   LIG    1       22.896 -29.288  14.751  0.00  0.00    -0.360 OA
ATOM     17  C   LIG    1       22.988 -29.905  13.462  0.00  0.00    +0.203 C 
ENDBRANCH  12  14
ENDBRANCH  11  12
BRANCH  11  18
ATOM     18  C   LIG    1       26.311 -26.719  12.418  0.00  0.00    +0.033 C 
BRANCH  18  19
ATOM     19  C   LIG    1       26.381 -25.848  13.700  0.00  0.00    -0.015 C 
ATOM     20  C   LIG    1       25.273 -24.789  13.708  0.00  0.00    +0.007 C 
ATOM     21  C   LIG    1       27.741 -25.168  13.872  0.00  0.00    +0.007 C 
ENDBRANCH  18  19
ENDBRANCH  11  18
ENDBRANCH   8  11
ENDBRANCH   6   7
BRANCH   6  22
ATOM     22  C   LIG    1       26.132 -31.438   8.741  0.00  0.00    +0.067 C 
BRANCH  22  23
ATOM     23  C   LIG    1       25.708 -31.912   7.360  0.00  0.00    -0.045 A 
ATOM     24  C   LIG    1       26.637 -32.052   6.323  0.00  0.00    +0.003 A 
ATOM     25  C   LIG    1       26.234 -32.515   5.066  0.00  0.00    +0.000 A 
ATOM     26  C   LIG    1       24.902 -32.857   4.834  0.00  0.00    +0.000 A 
ATOM     27  C   LIG    1       23.970 -32.733   5.858  0.00  0.00    +0.000 A 
ATOM     28  C   LIG    1       24.366 -32.241   7.102  0.00  0.00    +0.003 A 
ENDBRANCH  22  23
ENDBRANCH   6  22
ENDBRANCH   3   6
ENDBRANCH   1   2
BRANCH   1  29
ATOM     29  N   LIG    1       25.707 -25.727   7.619  0.00  0.00    -0.302 N 
ATOM     30  H   LIG    1       26.439 -25.407   8.243  0.00  0.00    +0.149 HD
ATOM     31  C   LIG    1       24.949 -24.774   6.969  0.00  0.00    +0.234 C 
ATOM     32  O   LIG    1       24.315 -25.064   5.958  0.00  0.00    -0.274 OA
BRANCH  31  33
ATOM     33  C   LIG    1       24.910 -23.336   7.540  0.00  0.00    +0.159 C 
BRANCH  33  34
ATOM     34  N   LIG    1       26.207 -22.723   7.140  0.00  0.00    -0.303 N 
ATOM     35  H   LIG    1       26.413 -22.745   6.152  0.00  0.00    +0.149 HD
ATOM     36  C   LIG    1       26.965 -21.818   7.877  0.00  0.00    +0.228 C 
ATOM     37  O   LIG    1       26.688 -21.432   9.007  0.00  0.00    -0.274 OA
BRANCH  36  38
ATOM     38  C   LIG    1       28.198 -21.275   7.107  0.00  0.00    +0.180 C 
BRANCH  38  39
ATOM     39  N   LIG    1       28.401 -19.827   7.303  0.00  0.00    -0.290 NA
ATOM     40  C   LIG    1       29.340 -19.449   8.374  0.00  0.00    +0.113 C 
ATOM     41  C   LIG    1       30.831 -19.539   7.993  0.00  0.00    +0.175 C 
ATOM     42  O   LIG    1       31.125 -18.802   6.801  0.00  0.00    -0.377 OA
ATOM     43  C   LIG    1       30.308 -19.266   5.719  0.00  0.00    +0.175 C 
ATOM     44  C   LIG    1       28.816 -19.118   6.071  0.00  0.00    +0.113 C 
ENDBRANCH  38  39
ENDBRANCH  36  38
ENDBRANCH  33  34
BRANCH  33  45
ATOM     45  C   LIG    1       23.685 -22.631   6.926  0.00  0.00    +0.036 C 
BRANCH  45  46
ATOM     46  C   LIG    1       23.493 -21.115   7.167  0.00  0.00    +0.037 C 
BRANCH  46  47
ATOM     47  C   LIG    1       23.611 -20.312   5.877  0.00  0.00    -0.047 A 
ATOM     48  C   LIG    1       22.542 -19.523   5.428  0.00  0.00    +0.003 A 
ATOM     49  C   LIG    1       22.643 -18.805   4.230  0.00  0.00    +0.000 A 
ATOM     50  C   LIG    1       23.802 -18.876   3.459  0.00  0.00    +0.000 A 
ATOM     51  C   LIG    1       24.862 -19.665   3.880  0.00  0.00    +0.000 A 
ATOM     52  C   LIG    1       24.761 -20.382   5.070  0.00  0.00    +0.003 A 
ENDBRANCH  46  47
ENDBRANCH  45  46
ENDBRANCH  33  45
ENDBRANCH  31  33
ENDBRANCH   1  29
BRANCH   1  53
ATOM     53  C   LIG    1       26.858 -27.206   5.843  0.00  0.00    +0.034 C 
BRANCH  53  55
ATOM     54  C   LIG    1       25.170 -28.863   4.657  0.00  0.00    +0.007 C 
ATOM     55  C   LIG    1       26.295 -27.811   4.514  0.00  0.00    -0.015 C 
ATOM     56  C   LIG    1       25.714 -26.721   3.619  0.00  0.00    +0.007 C 
ENDBRANCH  53  55
ENDBRANCH   1  53
TORSDOF 20
ENDMDL
MODEL 4
REMARK VINA RESULT:      -7.5      1.522      2.608
REMARK  Name = *****
REMARK                            x       y       z     vdW  Elec       q    Type
REMARK                         _______ _______ _______ _____ _____    ______ ____
ROOT
ATOM      1  C   LIG    1       24.430 -26.219   6.033  0.00  0.00    +0.159 C 
ENDROOT
BRANCH   1   2
ATOM      2  C   LIG    1       24.898 -27.471   6.878  0.00  0.00    +0.234 C 
ATOM      3  N   LIG    1       24.066 -28.576   6.829  0.00  0.00    -0.302 N 
ATOM      4  H   LIG    1       23.279 -28.573   6.194  0.00  0.00    +0.149 HD
ATOM      5  O   LIG    1       25.880 -27.441   7.625  0.00  0.00    -0.274 OA
BRANCH   3   6
ATOM      6  C   LIG    1       24.373 -29.865   7.481  0.00  0.00    +0.163 C 
BRANCH   6   7
ATOM      7  C   LIG    1       24.120 -29.810   9.015  0.00  0.00    +0.234 C 
ATOM      8  N   LIG    1       25.218 -29.585   9.810  0.00  0.00    -0.304 N 
ATOM      9  H   LIG    1       26.120 -29.369   9.390  0.00  0.00    +0.149 HD
ATOM     10  O   LIG    1       23.032 -30.050   9.533  0.00  0.00    -0.274 OA
BRANCH   8  11
ATOM     11  C   LIG    1       25.097 -29.540  11.284  0.00  0.00    +0.142 C 
BRANCH  11  12
ATOM     12  C   LIG    1       25.714 -28.284  11.920  0.00  0.00    +0.187 C 
ATOM     13  O   LIG    1       26.821 -27.822  11.589  0.00  0.00    -0.292 OA
BRANCH  12  14
ATOM     14  C   LIG    1       25.009 -27.593  13.054  0.00  0.00    +0.149 C 
ATOM     15  C   LIG    1       23.513 -27.603  13.125  0.00  0.00    +0.052 C 
ATOM     16  O   LIG    1       25.640 -26.401  13.550  0.00  0.00    -0.360 OA
ATOM     17  C   LIG    1       25.743 -27.566  14.378  0.00  0.00    +0.203 C 
ENDBRANCH  12  14
ENDBRANCH  11  12
BRANCH  11  18
ATOM     18  C   LIG    1       25.601 -30.868  11.897  0.00  0.00    +0.033 C 
BRANCH  18  19
ATOM     19  C   LIG    1       24.665 -31.550  12.930  0.00  0.00    -0.015 C 
ATOM     20  C   LIG    1       23.195 -31.234  12.635  0.00  0.00    +0.007 C 
ATOM     21  C   LIG    1       24.996 -31.154  14.371  0.00  0.00    +0.007 C 
ENDBRANCH  18  19
ENDBRANCH  11  18
ENDBRANCH   8  11
ENDBRANCH   6   7
BRANCH   6  22
ATOM     22  C   LIG    1       25.826 -30.333   7.172  0.00  0.00    +0.067 C 
BRANCH  22  23
ATOM     23  C   LIG    1       25.992 -31.547   6.272  0.00  0.00    -0.045 A 
ATOM     24  C   LIG    1       27.106 -32.388   6.386  0.00  0.00    +0.003 A 
ATOM     25  C   LIG    1       27.229 -33.516   5.568  0.00  0.00    +0.000 A 
ATOM     26  C   LIG    1       26.238 -33.824   4.638  0.00  0.00    +0.000 A 
ATOM     27  C   LIG    1       25.122 -33.004   4.520  0.00  0.00    +0.000 A 
ATOM     28  C   LIG    1       25.014 -31.861   5.314  0.00  0.00    +0.003 A 
ENDBRANCH  22  23
ENDBRANCH   6  22
ENDBRANCH   3   6
ENDBRANCH   1   2
BRANCH   1  29
ATOM     29  N   LIG    1       24.212 -25.065   6.942  0.00  0.00    -0.302 N 
ATOM     30  H   LIG    1       23.946 -25.267   7.899  0.00  0.00    +0.149 HD
ATOM     31  C   LIG    1       24.819 -23.852   6.682  0.00  0.00    +0.234 C 
ATOM     32  O   LIG    1       25.478 -23.690   5.659  0.00  0.00    -0.274 OA
BRANCH  31  33
ATOM     33  C   LIG    1       24.650 -22.701   7.703  0.00  0.00    +0.159 C 
BRANCH  33  34
ATOM     34  N   LIG    1       25.832 -21.819   7.494  0.00  0.00    -0.303 N 
ATOM     35  H   LIG    1       26.106 -21.678   6.534  0.00  0.00    +0.149 HD
ATOM     36  C   LIG    1       26.351 -20.893   8.395  0.00  0.00    +0.228 C 
ATOM     37  O   LIG    1       25.927 -20.710   9.531  0.00  0.00    -0.274 OA
BRANCH  36  38
ATOM     38  C   LIG    1       27.509 -20.045   7.807  0.00  0.00    +0.180 C 
BRANCH  38  39
ATOM     39  N   LIG    1       28.538 -20.867   7.142  0.00  0.00    -0.290 NA
ATOM     40  C   LIG    1       29.252 -20.223   6.026  0.00  0.00    +0.113 C 
ATOM     41  C   LIG    1       30.384 -19.264   6.444  0.00  0.00    +0.175 C 
ATOM     42  O   LIG    1       31.320 -19.893   7.326  0.00  0.00    -0.377 OA
ATOM     43  C   LIG    1       30.645 -20.398   8.485  0.00  0.00    +0.175 C 
ATOM     44  C   LIG    1       29.555 -21.405   8.075  0.00  0.00    +0.113 C 
ENDBRANCH  38  39
ENDBRANCH  36  38
ENDBRANCH  33  34
BRANCH  33  45
ATOM     45  C   LIG    1       23.308 -22.009   7.395  0.00  0.00    +0.036 C 
BRANCH  45  46
ATOM     46  C   LIG    1       22.764 -22.037   5.946  0.00  0.00    +0.037 C 
BRANCH  46  47
ATOM     47  C   LIG    1       23.183 -20.804   5.154  0.00  0.00    -0.047 A 
ATOM     48  C   LIG    1       22.361 -19.669   5.113  0.00  0.00    +0.003 A 
ATOM     49  C   LIG    1       22.735 -18.547   4.365  0.00  0.00    +0.000 A 
ATOM     50  C   LIG    1       23.924 -18.546   3.638  0.00  0.00    +0.000 A 
ATOM     51  C   LIG    1       24.741 -19.667   3.653  0.00  0.00    +0.000 A 
ATOM     52  C   LIG    1       24.367 -20.785   4.395  0.00  0.00    +0.003 A 
ENDBRANCH  46  47
ENDBRANCH  45  46
ENDBRANCH  33  45
ENDBRANCH  31  33
ENDBRANCH   1  29
BRANCH   1  53
ATOM     53  C   LIG    1       25.371 -25.921   4.799  0.00  0.00    +0.034 C 
BRANCH  53  55
ATOM     54  C   LIG    1       27.367 -27.643   4.576  0.00  0.00    +0.007 C 
ATOM     55  C   LIG    1       25.984 -27.165   4.075  0.00  0.00    -0.015 C 
ATOM     56  C   LIG    1       25.069 -28.379   4.203  0.00  0.00    +0.007 C 
ENDBRANCH  53  55
ENDBRANCH   1  53
TORSDOF 20
ENDMDL
MODEL 5
REMARK VINA RESULT:      -7.3      1.452      2.100
REMARK  Name = *****
REMARK                            x       y       z     vdW  Elec       q    Type
REMARK                         _______ _______ _______ _____ _____    ______ ____
ROOT
ATOM      1  C   LIG    1       25.136 -26.392   6.325  0.00  0.00    +0.159 C 
ENDROOT
BRANCH   1   2
ATOM      2  C   LIG    1       24.697 -27.720   7.062  0.00  0.00    +0.234 C 
ATOM      3  N   LIG    1       25.641 -28.284   7.902  0.00  0.00    -0.302 N 
ATOM      4  H   LIG    1       26.500 -27.784   8.084  0.00  0.00    +0.149 HD
ATOM      5  O   LIG    1       23.626 -28.288   6.828  0.00  0.00    -0.274 OA
BRANCH   3   6
ATOM      6  C   LIG    1       25.389 -29.475   8.739  0.00  0.00    +0.163 C 
BRANCH   6   7
ATOM      7  C   LIG    1       25.692 -29.200  10.240  0.00  0.00    +0.234 C 
ATOM      8  N   LIG    1       24.797 -29.710  11.149  0.00  0.00    -0.304 N 
ATOM      9  H   LIG    1       24.041 -30.318  10.840  0.00  0.00    +0.149 HD
ATOM     10  O   LIG    1       26.612 -28.485  10.626  0.00  0.00    -0.274 OA
BRANCH   8  11
ATOM     11  C   LIG    1       24.972 -29.486  12.601  0.00  0.00    +0.142 C 
BRANCH  11  12
ATOM     12  C   LIG    1       26.043 -30.381  13.243  0.00  0.00    +0.187 C 
ATOM     13  O   LIG    1       26.141 -31.601  13.019  0.00  0.00    -0.292 OA
BRANCH  12  14
ATOM     14  C   LIG    1       26.993 -29.807  14.257  0.00  0.00    +0.149 C 
ATOM     15  C   LIG    1       28.031 -30.680  14.892  0.00  0.00    +0.052 C 
ATOM     16  O   LIG    1       26.459 -28.773  15.100  0.00  0.00    -0.360 OA
ATOM     17  C   LIG    1       27.364 -28.350  14.074  0.00  0.00    +0.203 C 
ENDBRANCH  12  14
ENDBRANCH  11  12
BRANCH  11  18
ATOM     18  C   LIG    1       23.600 -29.536  13.313  0.00  0.00    +0.033 C 
BRANCH  18  19
ATOM     19  C   LIG    1       22.926 -28.171  13.612  0.00  0.00    -0.015 C 
ATOM     20  C   LIG    1       21.656 -27.988  12.774  0.00  0.00    +0.007 C 
ATOM     21  C   LIG    1       23.870 -26.989  13.377  0.00  0.00    +0.007 C 
ENDBRANCH  18  19
ENDBRANCH  11  18
ENDBRANCH   8  11
ENDBRANCH   6   7
BRANCH   6  22
ATOM     22  C   LIG    1       26.184 -30.713   8.227  0.00  0.00    +0.067 C 
BRANCH  22  23
ATOM     23  C   LIG    1       25.593 -31.490   7.062  0.00  0.00    -0.045 A 
ATOM     24  C   LIG    1       24.216 -31.732   6.975  0.00  0.00    +0.003 A 
ATOM     25  C   LIG    1       23.686 -32.425   5.881  0.00  0.00    +0.000 A 
ATOM     26  C   LIG    1       24.519 -32.872   4.858  0.00  0.00    +0.000 A 
ATOM     27  C   LIG    1       25.887 -32.630   4.926  0.00  0.00    +0.000 A 
ATOM     28  C   LIG    1       26.420 -31.967   6.032  0.00  0.00    +0.003 A 
ENDBRANCH  22  23
ENDBRANCH   6  22
ENDBRANCH   3   6
ENDBRANCH   1   2
BRANCH   1  29
ATOM     29  N   LIG    1       24.808 -25.223   7.181  0.00  0.00    -0.302 N 
ATOM     30  H   LIG    1       24.784 -25.368   8.184  0.00  0.00    +0.149 HD
ATOM     31  C   LIG    1       25.030 -23.940   6.720  0.00  0.00    +0.234 C 
ATOM     32  O   LIG    1       25.424 -23.749   5.573  0.00  0.00    -0.274 OA
BRANCH  31  33
ATOM     33  C   LIG    1       24.770 -22.750   7.674  0.00  0.00    +0.159 C 
BRANCH  33  34
ATOM     34  N   LIG    1       25.929 -21.835   7.480  0.00  0.00    -0.303 N 
ATOM     35  H   LIG    1       26.241 -21.724   6.527  0.00  0.00    +0.149 HD
ATOM     36  C   LIG    1       26.373 -20.853   8.361  0.00  0.00    +0.228 C 
ATOM     37  O   LIG    1       25.893 -20.639   9.468  0.00  0.00    -0.274 OA
BRANCH  36  38
ATOM     38  C   LIG    1       27.527 -19.988   7.788  0.00  0.00    +0.180 C 
BRANCH  38  39
ATOM     39  N   LIG    1       28.549 -20.791   7.089  0.00  0.00    -0.290 NA
ATOM     40  C   LIG    1       29.251 -20.114   5.983  0.00  0.00    +0.113 C 
ATOM     41  C   LIG    1       30.387 -19.167   6.417  0.00  0.00    +0.175 C 
ATOM     42  O   LIG    1       31.332 -19.821   7.271  0.00  0.00    -0.377 OA
ATOM     43  C   LIG    1       30.670 -20.359   8.421  0.00  0.00    +0.175 C 
ATOM     44  C   LIG    1       29.576 -21.355   7.994  0.00  0.00    +0.113 C 
ENDBRANCH  38  39
ENDBRANCH  36  38
ENDBRANCH  33  34
BRANCH  33  45
ATOM     45  C   LIG    1       23.421 -22.124   7.269  0.00  0.00    +0.036 C 
BRANCH  45  46
ATOM     46  C   LIG    1       22.975 -22.195   5.789  0.00  0.00    +0.037 C 
BRANCH  46  47
ATOM     47  C   LIG    1       23.249 -20.892   5.046  0.00  0.00    -0.047 A 
ATOM     48  C   LIG    1       24.445 -20.714   4.337  0.00  0.00    +0.003 A 
ATOM     49  C   LIG    1       24.706 -19.508   3.676  0.00  0.00    +0.000 A 
ATOM     50  C   LIG    1       23.787 -18.461   3.725  0.00  0.00    +0.000 A 
ATOM     51  C   LIG    1       22.606 -18.615   4.438  0.00  0.00    +0.000 A 
ATOM     52  C   LIG    1       22.348 -19.814   5.098  0.00  0.00    +0.003 A 
ENDBRANCH  46  47
ENDBRANCH  45  46
ENDBRANCH  33  45
ENDBRANCH  31  33
ENDBRANCH   1  29
BRANCH   1  53
ATOM     53  C   LIG    1       26.628 -26.436   5.810  0.00  0.00    +0.034 C 
BRANCH  53  55
ATOM     54  C   LIG    1       28.357 -27.542   4.141  0.00  0.00    +0.007 C 
ATOM     55  C   LIG    1       26.883 -27.223   4.482  0.00  0.00    -0.015 C 
ATOM     56  C   LIG    1       26.174 -28.574   4.502  0.00  0.00    +0.007 C 
ENDBRANCH  53  55
ENDBRANCH   1  53
TORSDOF 20
ENDMDL
MODEL 6
REMARK VINA RESULT:      -7.1      2.806     10.934
REMARK  Name = *****
REMARK                            x       y       z     vdW  Elec       q    Type
REMARK                         _______ _______ _______ _____ _____    ______ ____
ROOT
ATOM      1  C   LIG    1       25.829 -27.616   7.251  0.00  0.00    +0.159 C 
ENDROOT
BRANCH   1   2
ATOM      2  C   LIG    1       25.858 -26.232   6.487  0.00  0.00    +0.234 C 
ATOM      3  N   LIG    1       25.297 -25.160   7.160  0.00  0.00    -0.302 N 
ATOM      4  H   LIG    1       24.998 -25.281   8.118  0.00  0.00    +0.149 HD
ATOM      5  O   LIG    1       26.254 -26.122   5.323  0.00  0.00    -0.274 OA
BRANCH   3   6
ATOM      6  C   LIG    1       25.304 -23.775   6.648  0.00  0.00    +0.163 C 
BRANCH   6   7
ATOM      7  C   LIG    1       26.140 -22.828   7.557  0.00  0.00    +0.234 C 
ATOM      8  N   LIG    1       27.360 -22.430   7.069  0.00  0.00    -0.304 N 
ATOM      9  H   LIG    1       27.637 -22.671   6.119  0.00  0.00    +0.149 HD
ATOM     10  O   LIG    1       25.808 -22.515   8.697  0.00  0.00    -0.274 OA
BRANCH   8  11
ATOM     11  C   LIG    1       28.250 -21.552   7.861  0.00  0.00    +0.142 C 
BRANCH  11  12
ATOM     12  C   LIG    1       28.103 -20.058   7.531  0.00  0.00    +0.187 C 
ATOM     13  O   LIG    1       27.771 -19.202   8.371  0.00  0.00    -0.292 OA
BRANCH  12  14
ATOM     14  C   LIG    1       28.288 -19.578   6.119  0.00  0.00    +0.149 C 
ATOM     15  C   LIG    1       27.126 -19.559   5.175  0.00  0.00    +0.052 C 
ATOM     16  O   LIG    1       29.562 -19.868   5.521  0.00  0.00    -0.360 OA
ATOM     17  C   LIG    1       29.339 -18.508   5.910  0.00  0.00    +0.203 C 
ENDBRANCH  12  14
ENDBRANCH  11  12
BRANCH  11  18
ATOM     18  C   LIG    1       29.706 -22.072   7.791  0.00  0.00    +0.033 C 
BRANCH  18  19
ATOM     19  C   LIG    1       30.664 -21.595   8.913  0.00  0.00    -0.015 C 
ATOM     20  C   LIG    1       31.207 -20.193   8.615  0.00  0.00    +0.007 C 
ATOM     21  C   LIG    1       31.831 -22.560   9.136  0.00  0.00    +0.007 C 
ENDBRANCH  18  19
ENDBRANCH  11  18
ENDBRANCH   8  11
ENDBRANCH   6   7
BRANCH   6  22
ATOM     22  C   LIG    1       23.858 -23.228   6.454  0.00  0.00    +0.067 C 
BRANCH  22  23
ATOM     23  C   LIG    1       23.697 -21.948   5.649  0.00  0.00    -0.045 A 
ATOM     24  C   LIG    1       22.945 -20.873   6.137  0.00  0.00    +0.003 A 
ATOM     25  C   LIG    1       22.831 -19.693   5.395  0.00  0.00    +0.000 A 
ATOM     26  C   LIG    1       23.475 -19.567   4.166  0.00  0.00    +0.000 A 
ATOM     27  C   LIG    1       24.234 -20.623   3.673  0.00  0.00    +0.000 A 
ATOM     28  C   LIG    1       24.322 -21.812   4.398  0.00  0.00    +0.003 A 
ENDBRANCH  22  23
ENDBRANCH   6  22
ENDBRANCH   3   6
ENDBRANCH   1   2
BRANCH   1  29
ATOM     29  N   LIG    1       26.242 -27.408   8.663  0.00  0.00    -0.302 N 
ATOM     30  H   LIG    1       25.924 -26.564   9.124  0.00  0.00    +0.149 HD
ATOM     31  C   LIG    1       26.579 -28.489   9.454  0.00  0.00    +0.234 C 
ATOM     32  O   LIG    1       26.619 -29.621   8.980  0.00  0.00    -0.274 OA
BRANCH  31  33
ATOM     33  C   LIG    1       26.908 -28.246  10.947  0.00  0.00    +0.159 C 
BRANCH  33  34
ATOM     34  N   LIG    1       25.626 -28.471  11.670  0.00  0.00    -0.303 N 
ATOM     35  H   LIG    1       25.192 -29.369  11.516  0.00  0.00    +0.149 HD
ATOM     36  C   LIG    1       25.166 -27.779  12.786  0.00  0.00    +0.228 C 
ATOM     37  O   LIG    1       25.742 -26.831  13.307  0.00  0.00    -0.274 OA
BRANCH  36  38
ATOM     38  C   LIG    1       23.850 -28.358  13.371  0.00  0.00    +0.180 C 
BRANCH  38  39
ATOM     39  N   LIG    1       22.644 -27.770  12.755  0.00  0.00    -0.290 NA
ATOM     40  C   LIG    1       21.461 -28.647  12.695  0.00  0.00    +0.113 C 
ATOM     41  C   LIG    1       20.660 -28.749  14.008  0.00  0.00    +0.175 C 
ATOM     42  O   LIG    1       20.291 -27.462  14.512  0.00  0.00    -0.377 OA
ATOM     43  C   LIG    1       21.457 -26.653  14.706  0.00  0.00    +0.175 C 
ATOM     44  C   LIG    1       22.227 -26.494  13.381  0.00  0.00    +0.113 C 
ENDBRANCH  38  39
ENDBRANCH  36  38
ENDBRANCH  33  34
BRANCH  33  45
ATOM     45  C   LIG    1       28.016 -29.242  11.340  0.00  0.00    +0.036 C 
BRANCH  45  46
ATOM     46  C   LIG    1       28.138 -29.684  12.817  0.00  0.00    +0.037 C 
BRANCH  46  47
ATOM     47  C   LIG    1       29.582 -29.662  13.304  0.00  0.00    -0.047 A 
ATOM     48  C   LIG    1       29.872 -29.678  14.676  0.00  0.00    +0.003 A 
ATOM     49  C   LIG    1       31.198 -29.632  15.122  0.00  0.00    +0.000 A 
ATOM     50  C   LIG    1       32.249 -29.557  14.210  0.00  0.00    +0.000 A 
ATOM     51  C   LIG    1       31.979 -29.524  12.849  0.00  0.00    +0.000 A 
ATOM     52  C   LIG    1       30.659 -29.565  12.405  0.00  0.00    +0.003 A 
ENDBRANCH  46  47
ENDBRANCH  45  46
ENDBRANCH  33  45
ENDBRANCH  31  33
ENDBRANCH   1  29
BRANCH   1  53
ATOM     53  C   LIG    1       24.467 -28.394   7.068  0.00  0.00    +0.034 C 
BRANCH  53  55
ATOM     54  C   LIG    1       25.758 -29.747   5.197  0.00  0.00    +0.007 C 
ATOM     55  C   LIG    1       24.469 -29.566   6.032  0.00  0.00    -0.015 C 
ATOM     56  C   LIG    1       24.246 -30.908   6.722  0.00  0.00    +0.007 C 
ENDBRANCH  53  55
ENDBRANCH   1  53
TORSDOF 20
ENDMDL
MODEL 7
REMARK VINA RESULT:      -7.1      2.802     10.091
REMARK  Name = *****
REMARK                            x       y       z     vdW  Elec       q    Type
REMARK                         _______ _______ _______ _____ _____    ______ ____
ROOT
ATOM      1  C   LIG    1       26.163 -28.224  10.976  0.00  0.00    +0.159 C 
ENDROOT
BRANCH   1   2
ATOM      2  C   LIG    1       26.392 -28.507   9.438  0.00  0.00    +0.234 C 
ATOM      3  N   LIG    1       25.851 -27.578   8.567  0.00  0.00    -0.302 N 
ATOM      4  H   LIG    1       25.439 -26.734   8.940  0.00  0.00    +0.149 HD
ATOM      5  O   LIG    1       26.922 -29.542   9.023  0.00  0.00    -0.274 OA
BRANCH   3   6
ATOM      6  C   LIG    1       26.030 -27.623   7.101  0.00  0.00    +0.163 C 
BRANCH   6   7
ATOM      7  C   LIG    1       26.330 -26.215   6.513  0.00  0.00    +0.234 C 
ATOM      8  N   LIG    1       25.769 -25.145   7.169  0.00  0.00    -0.304 N 
ATOM      9  H   LIG    1       25.274 -25.283   8.047  0.00  0.00    +0.149 HD
ATOM     10  O   LIG    1       26.943 -26.033   5.465  0.00  0.00    -0.274 OA
BRANCH   8  11
ATOM     11  C   LIG    1       25.967 -23.762   6.680  0.00  0.00    +0.142 C 
BRANCH  11  12
ATOM     12  C   LIG    1       26.351 -22.762   7.783  0.00  0.00    +0.187 C 
ATOM     13  O   LIG    1       25.959 -22.857   8.960  0.00  0.00    -0.292 OA
BRANCH  12  14
ATOM     14  C   LIG    1       27.180 -21.555   7.446  0.00  0.00    +0.149 C 
ATOM     15  C   LIG    1       28.675 -21.646   7.448  0.00  0.00    +0.052 C 
ATOM     16  O   LIG    1       26.641 -20.289   7.859  0.00  0.00    -0.360 OA
ATOM     17  C   LIG    1       26.571 -20.581   6.459  0.00  0.00    +0.203 C 
ENDBRANCH  12  14
ENDBRANCH  11  12
BRANCH  11  18
ATOM     18  C   LIG    1       24.752 -23.323   5.828  0.00  0.00    +0.033 C 
BRANCH  18  19
ATOM     19  C   LIG    1       23.574 -22.665   6.593  0.00  0.00    -0.015 C 
ATOM     20  C   LIG    1       22.416 -23.651   6.776  0.00  0.00    +0.007 C 
ATOM     21  C   LIG    1       23.064 -21.398   5.902  0.00  0.00    +0.007 C 
ENDBRANCH  18  19
ENDBRANCH  11  18
ENDBRANCH   8  11
ENDBRANCH   6   7
BRANCH   6  22
ATOM     22  C   LIG    1       24.804 -28.274   6.394  0.00  0.00    +0.067 C 
BRANCH  22  23
ATOM     23  C   LIG    1       24.809 -29.786   6.237  0.00  0.00    -0.045 A 
ATOM     24  C   LIG    1       24.065 -30.607   7.093  0.00  0.00    +0.003 A 
ATOM     25  C   LIG    1       24.060 -31.995   6.917  0.00  0.00    +0.000 A 
ATOM     26  C   LIG    1       24.786 -32.577   5.879  0.00  0.00    +0.000 A 
ATOM     27  C   LIG    1       25.522 -31.773   5.016  0.00  0.00    +0.000 A 
ATOM     28  C   LIG    1       25.552 -30.392   5.210  0.00  0.00    +0.003 A 
ENDBRANCH  22  23
ENDBRANCH   6  22
ENDBRANCH   3   6
ENDBRANCH   1   2
BRANCH   1  29
ATOM     29  N   LIG    1       25.638 -29.451  11.629  0.00  0.00    -0.302 N 
ATOM     30  H   LIG    1       26.313 -30.101  12.015  0.00  0.00    +0.149 HD
ATOM     31  C   LIG    1       24.356 -29.470  12.144  0.00  0.00    +0.234 C 
ATOM     32  O   LIG    1       23.611 -28.505  11.997  0.00  0.00    -0.274 OA
BRANCH  31  33
ATOM     33  C   LIG    1       23.878 -30.730  12.905  0.00  0.00    +0.159 C 
BRANCH  33  34
ATOM     34  N   LIG    1       22.589 -30.336  13.538  0.00  0.00    -0.303 N 
ATOM     35  H   LIG    1       21.768 -30.803  13.182  0.00  0.00    +0.149 HD
ATOM     36  C   LIG    1       22.421 -29.713  14.771  0.00  0.00    +0.228 C 
ATOM     37  O   LIG    1       23.337 -29.346  15.499  0.00  0.00    -0.274 OA
BRANCH  36  38
ATOM     38  C   LIG    1       20.934 -29.565  15.190  0.00  0.00    +0.180 C 
BRANCH  38  39
ATOM     39  N   LIG    1       20.112 -28.910  14.154  0.00  0.00    -0.290 NA
ATOM     40  C   LIG    1       18.653 -29.052  14.308  0.00  0.00    +0.113 C 
ATOM     41  C   LIG    1       18.010 -28.095  15.330  0.00  0.00    +0.175 C 
ATOM     42  O   LIG    1       18.344 -26.728  15.067  0.00  0.00    -0.377 OA
ATOM     43  C   LIG    1       19.767 -26.559  15.057  0.00  0.00    +0.175 C 
ATOM     44  C   LIG    1       20.408 -27.468  13.993  0.00  0.00    +0.113 C 
ENDBRANCH  38  39
ENDBRANCH  36  38
ENDBRANCH  33  34
BRANCH  33  45
ATOM     45  C   LIG    1       23.731 -31.862  11.870  0.00  0.00    +0.036 C 
BRANCH  45  46
ATOM     46  C   LIG    1       23.212 -31.521  10.453  0.00  0.00    +0.037 C 
BRANCH  46  47
ATOM     47  C   LIG    1       21.733 -31.851  10.290  0.00  0.00    -0.047 A 
ATOM     48  C   LIG    1       20.753 -30.886  10.561  0.00  0.00    +0.003 A 
ATOM     49  C   LIG    1       19.395 -31.198  10.435  0.00  0.00    +0.000 A 
ATOM     50  C   LIG    1       18.995 -32.477  10.052  0.00  0.00    +0.000 A 
ATOM     51  C   LIG    1       19.952 -33.449   9.797  0.00  0.00    +0.000 A 
ATOM     52  C   LIG    1       21.304 -33.139   9.926  0.00  0.00    +0.003 A 
ENDBRANCH  46  47
ENDBRANCH  45  46
ENDBRANCH  33  45
ENDBRANCH  31  33
ENDBRANCH   1  29
BRANCH   1  53
ATOM     53  C   LIG    1       27.424 -27.587  11.682  0.00  0.00    +0.034 C 
BRANCH  53  55
ATOM     54  C   LIG    1       25.819 -25.984  13.044  0.00  0.00    +0.007 C 
ATOM     55  C   LIG    1       27.151 -26.769  12.987  0.00  0.00    -0.015 C 
ATOM     56  C   LIG    1       27.133 -27.680  14.211  0.00  0.00    +0.007 C 
ENDBRANCH  53  55
ENDBRANCH   1  53
TORSDOF 20
ENDMDL
MODEL 8
REMARK VINA RESULT:      -7.1      2.111     10.502
REMARK  Name = *****
REMARK                            x       y       z     vdW  Elec       q    Type
REMARK                         _______ _______ _______ _____ _____    ______ ____
ROOT
ATOM      1  C   LIG    1       25.908 -27.470   7.151  0.00  0.00    +0.159 C 
ENDROOT
BRANCH   1   2
ATOM      2  C   LIG    1       26.019 -26.038   6.492  0.00  0.00    +0.234 C 
ATOM      3  N   LIG    1       25.323 -25.025   7.128  0.00  0.00    -0.302 N 
ATOM      4  H   LIG    1       24.875 -25.216   8.014  0.00  0.00    +0.149 HD
ATOM      5  O   LIG    1       26.597 -25.842   5.418  0.00  0.00    -0.274 OA
BRANCH   3   6
ATOM      6  C   LIG    1       25.371 -23.608   6.714  0.00  0.00    +0.163 C 
BRANCH   6   7
ATOM      7  C   LIG    1       26.317 -22.773   7.623  0.00  0.00    +0.234 C 
ATOM      8  N   LIG    1       27.509 -22.375   7.066  0.00  0.00    -0.304 N 
ATOM      9  H   LIG    1       27.695 -22.542   6.079  0.00  0.00    +0.149 HD
ATOM     10  O   LIG    1       26.095 -22.548   8.810  0.00  0.00    -0.274 OA
BRANCH   8  11
ATOM     11  C   LIG    1       28.496 -21.600   7.848  0.00  0.00    +0.142 C 
BRANCH  11  12
ATOM     12  C   LIG    1       28.400 -20.080   7.639  0.00  0.00    +0.187 C 
ATOM     13  O   LIG    1       28.143 -19.277   8.555  0.00  0.00    -0.292 OA
BRANCH  12  14
ATOM     14  C   LIG    1       28.544 -19.501   6.259  0.00  0.00    +0.149 C 
ATOM     15  C   LIG    1       27.391 -19.543   5.304  0.00  0.00    +0.052 C 
ATOM     16  O   LIG    1       29.844 -19.625   5.660  0.00  0.00    -0.360 OA
ATOM     17  C   LIG    1       29.482 -18.320   6.126  0.00  0.00    +0.203 C 
ENDBRANCH  12  14
ENDBRANCH  11  12
BRANCH  11  18
ATOM     18  C   LIG    1       29.915 -22.176   7.630  0.00  0.00    +0.033 C 
BRANCH  18  19
ATOM     19  C   LIG    1       30.975 -21.830   8.709  0.00  0.00    -0.015 C 
ATOM     20  C   LIG    1       30.475 -22.197  10.111  0.00  0.00    +0.007 C 
ATOM     21  C   LIG    1       31.380 -20.355   8.679  0.00  0.00    +0.007 C 
ENDBRANCH  18  19
ENDBRANCH  11  18
ENDBRANCH   8  11
ENDBRANCH   6   7
BRANCH   6  22
ATOM     22  C   LIG    1       23.947 -22.977   6.662  0.00  0.00    +0.067 C 
BRANCH  22  23
ATOM     23  C   LIG    1       23.753 -21.766   5.765  0.00  0.00    -0.045 A 
ATOM     24  C   LIG    1       22.923 -20.705   6.147  0.00  0.00    +0.003 A 
ATOM     25  C   LIG    1       22.777 -19.585   5.321  0.00  0.00    +0.000 A 
ATOM     26  C   LIG    1       23.466 -19.506   4.112  0.00  0.00    +0.000 A 
ATOM     27  C   LIG    1       24.301 -20.548   3.724  0.00  0.00    +0.000 A 
ATOM     28  C   LIG    1       24.422 -21.678   4.533  0.00  0.00    +0.003 A 
ENDBRANCH  22  23
ENDBRANCH   6  22
ENDBRANCH   3   6
ENDBRANCH   1   2
BRANCH   1  29
ATOM     29  N   LIG    1       26.505 -27.434   8.511  0.00  0.00    -0.302 N 
ATOM     30  H   LIG    1       26.433 -26.568   9.031  0.00  0.00    +0.149 HD
ATOM     31  C   LIG    1       26.676 -28.604   9.225  0.00  0.00    +0.234 C 
ATOM     32  O   LIG    1       26.411 -29.690   8.717  0.00  0.00    -0.274 OA
BRANCH  31  33
ATOM     33  C   LIG    1       27.208 -28.520  10.676  0.00  0.00    +0.159 C 
BRANCH  33  34
ATOM     34  N   LIG    1       26.196 -27.715  11.416  0.00  0.00    -0.303 N 
ATOM     35  H   LIG    1       25.244 -27.813  11.096  0.00  0.00    +0.149 HD
ATOM     36  C   LIG    1       26.336 -27.164  12.686  0.00  0.00    +0.228 C 
ATOM     37  O   LIG    1       27.355 -27.222  13.365  0.00  0.00    -0.274 OA
BRANCH  36  38
ATOM     38  C   LIG    1       25.038 -26.498  13.215  0.00  0.00    +0.180 C 
BRANCH  38  39
ATOM     39  N   LIG    1       24.162 -27.445  13.931  0.00  0.00    -0.290 NA
ATOM     40  C   LIG    1       23.757 -27.043  15.290  0.00  0.00    +0.113 C 
ATOM     41  C   LIG    1       22.598 -26.028  15.350  0.00  0.00    +0.175 C 
ATOM     42  O   LIG    1       21.457 -26.474  14.611  0.00  0.00    -0.377 OA
ATOM     43  C   LIG    1       21.819 -26.732  13.249  0.00  0.00    +0.175 C 
ATOM     44  C   LIG    1       22.933 -27.793  13.181  0.00  0.00    +0.113 C 
ENDBRANCH  38  39
ENDBRANCH  36  38
ENDBRANCH  33  34
BRANCH  33  45
ATOM     45  C   LIG    1       27.344 -29.963  11.199  0.00  0.00    +0.036 C 
BRANCH  45  46
ATOM     46  C   LIG    1       26.235 -30.537  12.113  0.00  0.00    +0.037 C 
BRANCH  46  47
ATOM     47  C   LIG    1       25.113 -31.187  11.311  0.00  0.00    -0.047 A 
ATOM     48  C   LIG    1       23.978 -30.448  10.947  0.00  0.00    +0.003 A 
ATOM     49  C   LIG    1       22.937 -31.052  10.232  0.00  0.00    +0.000 A 
ATOM     50  C   LIG    1       23.006 -32.401   9.885  0.00  0.00    +0.000 A 
ATOM     51  C   LIG    1       24.114 -33.150  10.254  0.00  0.00    +0.000 A 
ATOM     52  C   LIG    1       25.148 -32.550  10.968  0.00  0.00    +0.003 A 
ENDBRANCH  46  47
ENDBRANCH  45  46
ENDBRANCH  33  45
ENDBRANCH  31  33
ENDBRANCH   1  29
BRANCH   1  53
ATOM     53  C   LIG    1       24.448 -28.069   7.085  0.00  0.00    +0.034 C 
BRANCH  53  55
ATOM     54  C   LIG    1       25.343 -29.438   5.007  0.00  0.00    +0.007 C 
ATOM     55  C   LIG    1       24.201 -29.186   6.018  0.00  0.00    -0.015 C 
ATOM     56  C   LIG    1       23.952 -30.535   6.686  0.00  0.00    +0.007 C 
ENDBRANCH  53  55
ENDBRANCH   1  53
TORSDOF 20
ENDMDL
MODEL 9
REMARK VINA RESULT:      -7.1      1.747      3.043
REMARK  Name = *****
REMARK                            x       y       z     vdW  Elec       q    Type
REMARK                         _______ _______ _______ _____ _____    ______ ____
ROOT
ATOM      1  C   LIG    1       25.486 -26.451   6.414  0.00  0.00    +0.159 C 
ENDROOT
BRANCH   1   2
ATOM      2  C   LIG    1       24.876 -27.780   7.017  0.00  0.00    +0.234 C 
ATOM      3  N   LIG    1       25.673 -28.451   7.927  0.00  0.00    -0.302 N 
ATOM      4  H   LIG    1       26.536 -28.024   8.236  0.00  0.00    +0.149 HD
ATOM      5  O   LIG    1       23.805 -28.257   6.628  0.00  0.00    -0.274 OA
BRANCH   3   6
ATOM      6  C   LIG    1       25.246 -29.661   8.658  0.00  0.00    +0.163 C 
BRANCH   6   7
ATOM      7  C   LIG    1       25.296 -29.451  10.199  0.00  0.00    +0.234 C 
ATOM      8  N   LIG    1       26.348 -28.712  10.683  0.00  0.00    -0.304 N 
ATOM      9  H   LIG    1       26.990 -28.251  10.041  0.00  0.00    +0.149 HD
ATOM     10  O   LIG    1       24.516 -29.986  10.982  0.00  0.00    -0.274 OA
BRANCH   8  11
ATOM     11  C   LIG    1       26.509 -28.473  12.134  0.00  0.00    +0.142 C 
BRANCH  11  12
ATOM     12  C   LIG    1       26.233 -27.022  12.559  0.00  0.00    +0.187 C 
ATOM     13  O   LIG    1       26.970 -26.067  12.254  0.00  0.00    -0.292 OA
BRANCH  12  14
ATOM     14  C   LIG    1       25.066 -26.710  13.453  0.00  0.00    +0.149 C 
ATOM     15  C   LIG    1       23.768 -27.434  13.271  0.00  0.00    +0.052 C 
ATOM     16  O   LIG    1       24.953 -25.343  13.882  0.00  0.00    -0.360 OA
ATOM     17  C   LIG    1       25.402 -26.282  14.866  0.00  0.00    +0.203 C 
ENDBRANCH  12  14
ENDBRANCH  11  12
BRANCH  11  18
ATOM     18  C   LIG    1       27.875 -29.020  12.612  0.00  0.00    +0.033 C 
BRANCH  18  19
ATOM     19  C   LIG    1       27.859 -29.890  13.897  0.00  0.00    -0.015 C 
ATOM     20  C   LIG    1       26.440 -30.372  14.218  0.00  0.00    +0.007 C 
ATOM     21  C   LIG    1       28.438 -29.155  15.108  0.00  0.00    +0.007 C 
ENDBRANCH  18  19
ENDBRANCH  11  18
ENDBRANCH   8  11
ENDBRANCH   6   7
BRANCH   6  22
ATOM     22  C   LIG    1       26.078 -30.909   8.238  0.00  0.00    +0.067 C 
BRANCH  22  23
ATOM     23  C   LIG    1       25.594 -31.698   7.032  0.00  0.00    -0.045 A 
ATOM     24  C   LIG    1       24.632 -32.707   7.163  0.00  0.00    +0.003 A 
ATOM     25  C   LIG    1       24.178 -33.404   6.038  0.00  0.00    +0.000 A 
ATOM     26  C   LIG    1       24.667 -33.093   4.771  0.00  0.00    +0.000 A 
ATOM     27  C   LIG    1       25.615 -32.087   4.624  0.00  0.00    +0.000 A 
ATOM     28  C   LIG    1       26.091 -31.413   5.749  0.00  0.00    +0.003 A 
ENDBRANCH  22  23
ENDBRANCH   6  22
ENDBRANCH   3   6
ENDBRANCH   1   2
BRANCH   1  29
ATOM     29  N   LIG    1       25.143 -25.308   7.298  0.00  0.00    -0.302 N 
ATOM     30  H   LIG    1       25.233 -25.445   8.298  0.00  0.00    +0.149 HD
ATOM     31  C   LIG    1       25.205 -24.015   6.816  0.00  0.00    +0.234 C 
ATOM     32  O   LIG    1       25.465 -23.801   5.634  0.00  0.00    -0.274 OA
BRANCH  31  33
ATOM     33  C   LIG    1       24.938 -22.842   7.790  0.00  0.00    +0.159 C 
BRANCH  33  34
ATOM     34  N   LIG    1       26.091 -21.918   7.612  0.00  0.00    -0.303 N 
ATOM     35  H   LIG    1       26.467 -21.865   6.677  0.00  0.00    +0.149 HD
ATOM     36  C   LIG    1       26.457 -20.870   8.452  0.00  0.00    +0.228 C 
ATOM     37  O   LIG    1       25.898 -20.591   9.506  0.00  0.00    -0.274 OA
BRANCH  36  38
ATOM     38  C   LIG    1       27.633 -20.020   7.900  0.00  0.00    +0.180 C 
BRANCH  38  39
ATOM     39  N   LIG    1       28.641 -20.833   7.192  0.00  0.00    -0.290 NA
ATOM     40  C   LIG    1       29.309 -20.177   6.053  0.00  0.00    +0.113 C 
ATOM     41  C   LIG    1       30.451 -19.215   6.436  0.00  0.00    +0.175 C 
ATOM     42  O   LIG    1       31.422 -19.844   7.278  0.00  0.00    -0.377 OA
ATOM     43  C   LIG    1       30.793 -20.360   8.458  0.00  0.00    +0.175 C 
ATOM     44  C   LIG    1       29.694 -21.371   8.082  0.00  0.00    +0.113 C 
ENDBRANCH  38  39
ENDBRANCH  36  38
ENDBRANCH  33  34
BRANCH  33  45
ATOM     45  C   LIG    1       23.585 -22.218   7.396  0.00  0.00    +0.036 C 
BRANCH  45  46
ATOM     46  C   LIG    1       23.094 -22.353   5.935  0.00  0.00    +0.037 C 
BRANCH  46  47
ATOM     47  C   LIG    1       23.287 -21.063   5.145  0.00  0.00    -0.047 A 
ATOM     48  C   LIG    1       24.477 -20.829   4.441  0.00  0.00    +0.003 A 
ATOM     49  C   LIG    1       24.662 -19.634   3.737  0.00  0.00    +0.000 A 
ATOM     50  C   LIG    1       23.673 -18.652   3.738  0.00  0.00    +0.000 A 
ATOM     51  C   LIG    1       22.497 -18.859   4.444  0.00  0.00    +0.000 A 
ATOM     52  C   LIG    1       22.314 -20.048   5.147  0.00  0.00    +0.003 A 
ENDBRANCH  46  47
ENDBRANCH  45  46
ENDBRANCH  33  45
ENDBRANCH  31  33
ENDBRANCH   1  29
BRANCH   1  53
ATOM     53  C   LIG    1       27.020 -26.580   6.064  0.00  0.00    +0.034 C 
BRANCH  53  55
ATOM     54  C   LIG    1       28.843 -27.377   4.320  0.00  0.00    +0.007 C 
ATOM     55  C   LIG    1       27.366 -27.013   4.601  0.00  0.00    -0.015 C 
ATOM     56  C   LIG    1       26.564 -28.246   4.191  0.00  0.00    +0.007 C 
ENDBRANCH  53  55
ENDBRANCH   1  53
TORSDOF 20
ENDMDL
