MODEL 1
REMARK VINA RESULT:       9.7      0.000      0.000
REMARK  Name = *****
REMARK                            x       y       z     vdW  Elec       q    Type
REMARK                         _______ _______ _______ _____ _____    ______ ____
ROOT
ATOM      1  C   LIG    1       24.080 -18.864   4.625  0.00  0.00    +0.064 A 
ATOM      2  C   LIG    1       25.316 -18.746   3.978  0.00  0.00    +0.049 A 
ATOM      3  I   LIG    1       24.704 -20.149   1.999  0.00  0.00    -0.041 I 
ATOM      4  C   LIG    1       25.872 -17.465   3.606  0.00  0.00    +0.065 A 
ATOM      5  C   LIG    1       25.032 -16.322   3.809  0.00  0.00    +0.040 A 
ATOM      6  I   LIG    1       25.369 -14.556   2.580  0.00  0.00    -0.042 I 
ATOM      7  C   LIG    1       23.719 -16.468   4.312  0.00  0.00    +0.065 A 
ATOM      8  C   LIG    1       23.232 -17.765   4.468  0.00  0.00    +0.049 A 
ATOM      9  I   LIG    1       21.663 -18.086   2.715  0.00  0.00    -0.041 I 
ENDROOT
BRANCH   4  10
ATOM     10  C   LIG    1       27.423 -17.285   3.597  0.00  0.00    +0.246 C 
ATOM     11  N   LIG    1       28.015 -16.062   3.935  0.00  0.00    -0.309 N 
ATOM     12  H   LIG    1       29.014 -15.943   3.802  0.00  0.00    +0.149 HD
ATOM     13  O   LIG    1       28.163 -18.199   3.231  0.00  0.00    -0.270 OA
BRANCH  11  14
ATOM     14  C   LIG    1       27.209 -14.971   4.348  0.00  0.00    +0.138 C 
BRANCH  14  15
ATOM     15  C   LIG    1       27.615 -13.750   5.148  0.00  0.00    +0.157 C 
BRANCH  15  16
ATOM     16  O   LIG    1       26.462 -13.105   5.664  0.00  0.00    -0.388 OA
ATOM     17  H   LIG    1       26.357 -12.271   5.177  0.00  0.00    +0.210 HD
ENDBRANCH  15  16
BRANCH  15  18
ATOM     18  C   LIG    1       28.535 -12.833   4.366  0.00  0.00    +0.188 C 
BRANCH  18  19
ATOM     19  O   LIG    1       28.837 -13.393   3.093  0.00  0.00    -0.392 OA
ATOM     20  H   LIG    1       29.780 -13.629   3.094  0.00  0.00    +0.209 HD
ENDBRANCH  18  19
ENDBRANCH  15  18
ENDBRANCH  14  15
ENDBRANCH  11  14
ENDBRANCH   4  10
BRANCH   1  23
ATOM     21  C   LIG    1       22.117 -21.250   6.824  0.00  0.00    +0.110 C 
ATOM     22  C   LIG    1       22.713 -20.616   5.609  0.00  0.00    +0.217 C 
ATOM     23  N   LIG    1       23.847 -19.787   5.727  0.00  0.00    -0.267 N 
ATOM     24  O   LIG    1       22.135 -20.857   4.546  0.00  0.00    -0.276 OA
BRANCH  23  25
ATOM     25  C   LIG    1       24.739 -19.757   6.943  0.00  0.00    +0.147 C 
BRANCH  25  26
ATOM     26  C   LIG    1       25.947 -20.734   6.916  0.00  0.00    +0.158 C 
BRANCH  26  27
ATOM     27  O   LIG    1       25.859 -21.571   5.759  0.00  0.00    -0.388 OA
ATOM     28  H   LIG    1       24.928 -21.852   5.699  0.00  0.00    +0.210 HD
ENDBRANCH  26  27
BRANCH  26  29
ATOM     29  C   LIG    1       27.339 -20.073   6.873  0.00  0.00    +0.188 C 
BRANCH  29  30
ATOM     30  O   LIG    1       27.976 -20.435   5.636  0.00  0.00    -0.392 OA
ATOM     31  H   LIG    1       28.811 -20.890   5.844  0.00  0.00    +0.209 HD
ENDBRANCH  29  30
ENDBRANCH  26  29
ENDBRANCH  25  26
ENDBRANCH  23  25
ENDBRANCH   1  23
BRANCH   7  32
ATOM     32  C   LIG    1       22.838 -15.484   5.037  0.00  0.00    +0.246 C 
ATOM     33  N   LIG    1       23.286 -14.180   5.067  0.00  0.00    -0.309 N 
ATOM     34  H   LIG    1       24.122 -13.923   4.563  0.00  0.00    +0.149 HD
ATOM     35  O   LIG    1       21.835 -15.824   5.588  0.00  0.00    -0.270 OA
BRANCH  33  36
ATOM     36  C   LIG    1       22.577 -13.132   5.788  0.00  0.00    +0.138 C 
BRANCH  36  37
ATOM     37  C   LIG    1       23.138 -11.750   5.424  0.00  0.00    +0.157 C 
BRANCH  37  38
ATOM     38  O   LIG    1       24.295 -11.447   6.210  0.00  0.00    -0.388 OA
ATOM     39  H   LIG    1       24.906 -12.199   6.109  0.00  0.00    +0.210 HD
ENDBRANCH  37  38
BRANCH  37  40
ATOM     40  C   LIG    1       23.509 -11.692   3.942  0.00  0.00    +0.188 C 
BRANCH  40  41
ATOM     41  O   LIG    1       24.913 -11.846   3.764  0.00  0.00    -0.392 OA
ATOM     42  H   LIG    1       25.339 -11.155   4.301  0.00  0.00    +0.209 HD
ENDBRANCH  40  41
ENDBRANCH  37  40
ENDBRANCH  36  37
ENDBRANCH  33  36
ENDBRANCH   7  32
TORSDOF 18
ENDMDL
MODEL 2
REMARK VINA RESULT:      11.0      1.687      7.228
REMARK  Name = *****
REMARK                            x       y       z     vdW  Elec       q    Type
REMARK                         _______ _______ _______ _____ _____    ______ ____
ROOT
ATOM      1  C   LIG    1       24.694 -14.849   4.242  0.00  0.00    +0.064 A 
ATOM      2  C   LIG    1       23.565 -15.603   3.897  0.00  0.00    +0.049 A 
ATOM      3  I   LIG    1       23.005 -14.297   1.838  0.00  0.00    -0.041 I 
ATOM      4  C   LIG    1       23.634 -17.027   3.656  0.00  0.00    +0.065 A 
ATOM      5  C   LIG    1       24.942 -17.611   3.653  0.00  0.00    +0.040 A 
ATOM      6  I   LIG    1       25.255 -19.447   2.526  0.00  0.00    -0.042 I 
ATOM      7  C   LIG    1       26.093 -16.812   3.841  0.00  0.00    +0.065 A 
ATOM      8  C   LIG    1       25.914 -15.430   3.887  0.00  0.00    +0.049 A 
ATOM      9  I   LIG    1       26.736 -14.597   1.822  0.00  0.00    -0.041 I 
ENDROOT
BRANCH   4  10
ATOM     10  C   LIG    1       22.397 -17.915   4.004  0.00  0.00    +0.246 C 
ATOM     11  N   LIG    1       22.500 -18.983   4.903  0.00  0.00    -0.309 N 
ATOM     12  H   LIG    1       21.712 -19.612   5.014  0.00  0.00    +0.149 HD
ATOM     13  O   LIG    1       21.313 -17.735   3.447  0.00  0.00    -0.270 OA
BRANCH  11  14
ATOM     14  C   LIG    1       23.729 -19.245   5.561  0.00  0.00    +0.138 C 
BRANCH  14  15
ATOM     15  C   LIG    1       24.230 -20.556   6.131  0.00  0.00    +0.157 C 
BRANCH  15  16
ATOM     16  O   LIG    1       25.102 -21.183   5.204  0.00  0.00    -0.388 OA
ATOM     17  H   LIG    1       25.502 -20.480   4.665  0.00  0.00    +0.210 HD
ENDBRANCH  15  16
BRANCH  15  18
ATOM     18  C   LIG    1       23.099 -21.444   6.608  0.00  0.00    +0.188 C 
BRANCH  18  19
ATOM     19  O   LIG    1       22.102 -21.570   5.600  0.00  0.00    -0.392 OA
ATOM     20  H   LIG    1       21.751 -20.681   5.422  0.00  0.00    +0.209 HD
ENDBRANCH  18  19
ENDBRANCH  15  18
ENDBRANCH  14  15
ENDBRANCH  11  14
ENDBRANCH   4  10
BRANCH   1  23
ATOM     21  C   LIG    1       23.965 -11.447   5.750  0.00  0.00    +0.110 C 
ATOM     22  C   LIG    1       23.768 -12.753   5.053  0.00  0.00    +0.217 C 
ATOM     23  N   LIG    1       24.672 -13.814   5.266  0.00  0.00    -0.267 N 
ATOM     24  O   LIG    1       22.798 -12.809   4.292  0.00  0.00    -0.276 OA
BRANCH  23  25
ATOM     25  C   LIG    1       25.644 -13.866   6.419  0.00  0.00    +0.147 C 
BRANCH  25  26
ATOM     26  C   LIG    1       27.060 -13.298   6.130  0.00  0.00    +0.158 C 
BRANCH  26  27
ATOM     27  O   LIG    1       28.033 -14.338   6.275  0.00  0.00    -0.388 OA
ATOM     28  H   LIG    1       28.043 -14.567   7.222  0.00  0.00    +0.210 HD
ENDBRANCH  26  27
BRANCH  26  29
ATOM     29  C   LIG    1       27.266 -12.699   4.724  0.00  0.00    +0.188 C 
BRANCH  29  30
ATOM     30  O   LIG    1       28.393 -13.352   4.113  0.00  0.00    -0.392 OA
ATOM     31  H   LIG    1       29.171 -13.211   4.681  0.00  0.00    +0.209 HD
ENDBRANCH  29  30
ENDBRANCH  26  29
ENDBRANCH  25  26
ENDBRANCH  23  25
ENDBRANCH   1  23
BRANCH   7  32
ATOM     32  C   LIG    1       27.466 -17.182   4.338  0.00  0.00    +0.246 C 
ATOM     33  N   LIG    1       27.577 -18.416   4.945  0.00  0.00    -0.309 N 
ATOM     34  H   LIG    1       26.780 -19.036   4.974  0.00  0.00    +0.149 HD
ATOM     35  O   LIG    1       28.392 -16.434   4.248  0.00  0.00    -0.270 OA
BRANCH  33  36
ATOM     36  C   LIG    1       28.823 -18.882   5.535  0.00  0.00    +0.138 C 
BRANCH  36  37
ATOM     37  C   LIG    1       28.559 -19.585   6.874  0.00  0.00    +0.157 C 
BRANCH  37  38
ATOM     38  O   LIG    1       27.158 -19.819   7.058  0.00  0.00    -0.388 OA
ATOM     39  H   LIG    1       27.006 -19.856   8.020  0.00  0.00    +0.210 HD
ENDBRANCH  37  38
BRANCH  37  40
ATOM     40  C   LIG    1       29.302 -20.920   6.938  0.00  0.00    +0.188 C 
BRANCH  40  41
ATOM     41  O   LIG    1       29.286 -21.571   5.672  0.00  0.00    -0.392 OA
ATOM     42  H   LIG    1       28.821 -22.417   5.800  0.00  0.00    +0.209 HD
ENDBRANCH  40  41
ENDBRANCH  37  40
ENDBRANCH  36  37
ENDBRANCH  33  36
ENDBRANCH   7  32
TORSDOF 18
ENDMDL
