MODEL 1
REMARK VINA RESULT:      -9.1      0.000      0.000
REMARK  Name = *****
REMARK                            x       y       z     vdW  Elec       q    Type
REMARK                         _______ _______ _______ _____ _____    ______ ____
ROOT
ATOM      1  O   LIG    1       26.616 -22.617   7.732  0.00  0.00    -0.270 OA
ATOM      2  C   LIG    1       26.862 -21.652   7.036  0.00  0.00    +0.255 C 
ATOM      3  N   LIG    1       26.078 -21.052   6.086  0.00  0.00    -0.222 N 
ATOM      4  C   LIG    1       26.744 -20.036   5.459  0.00  0.00    +0.255 C 
ATOM      5  O   LIG    1       26.358 -19.312   4.562  0.00  0.00    -0.270 OA
ATOM      6  C   LIG    1       28.061 -19.945   6.082  0.00  0.00    +0.049 A 
ATOM      7  C   LIG    1       29.112 -19.085   5.835  0.00  0.00    +0.014 A 
ATOM      8  C   LIG    1       30.267 -19.250   6.608  0.00  0.00    +0.001 A 
ATOM      9  C   LIG    1       30.340 -20.256   7.594  0.00  0.00    +0.001 A 
ATOM     10  C   LIG    1       29.260 -21.115   7.824  0.00  0.00    +0.014 A 
ATOM     11  C   LIG    1       28.131 -20.930   7.050  0.00  0.00    +0.049 A 
ENDROOT
BRANCH   3  12
ATOM     12  C   LIG    1       24.728 -21.497   5.770  0.00  0.00    +0.171 C 
ATOM     13  C   LIG    1       23.726 -20.749   6.645  0.00  0.00    +0.240 C 
ATOM     14  O   LIG    1       23.782 -20.759   7.876  0.00  0.00    -0.273 OA
ATOM     15  N   LIG    1       22.781 -19.991   5.998  0.00  0.00    -0.255 N 
ATOM     16  H   LIG    1       22.133 -19.497   6.596  0.00  0.00    +0.158 HD
ATOM     17  C   LIG    1       22.788 -19.579   4.691  0.00  0.00    +0.219 C 
ATOM     18  O   LIG    1       21.976 -18.747   4.292  0.00  0.00    -0.275 OA
ATOM     19  C   LIG    1       23.865 -20.140   3.797  0.00  0.00    +0.098 C 
ATOM     20  C   LIG    1       24.374 -21.484   4.285  0.00  0.00    +0.042 C 
ENDBRANCH   3  12
TORSDOF 1
ENDMDL
MODEL 2
REMARK VINA RESULT:      -9.1      2.470      5.814
REMARK  Name = *****
REMARK                            x       y       z     vdW  Elec       q    Type
REMARK                         _______ _______ _______ _____ _____    ______ ____
ROOT
ATOM      1  O   LIG    1       25.964 -20.482   9.475  0.00  0.00    -0.270 OA
ATOM      2  C   LIG    1       26.278 -20.458   8.301  0.00  0.00    +0.255 C 
ATOM      3  N   LIG    1       27.511 -20.246   7.743  0.00  0.00    -0.222 N 
ATOM      4  C   LIG    1       27.442 -20.213   6.378  0.00  0.00    +0.255 C 
ATOM      5  O   LIG    1       28.335 -20.028   5.574  0.00  0.00    -0.270 OA
ATOM      6  C   LIG    1       26.049 -20.461   6.019  0.00  0.00    +0.049 A 
ATOM      7  C   LIG    1       25.444 -20.547   4.780  0.00  0.00    +0.014 A 
ATOM      8  C   LIG    1       24.068 -20.798   4.759  0.00  0.00    +0.001 A 
ATOM      9  C   LIG    1       23.341 -20.953   5.959  0.00  0.00    +0.001 A 
ATOM     10  C   LIG    1       23.980 -20.861   7.200  0.00  0.00    +0.014 A 
ATOM     11  C   LIG    1       25.338 -20.616   7.194  0.00  0.00    +0.049 A 
ENDROOT
BRANCH   3  12
ATOM     12  C   LIG    1       28.717 -20.033   8.532  0.00  0.00    +0.171 C 
ATOM     13  C   LIG    1       29.770 -21.066   8.141  0.00  0.00    +0.240 C 
ATOM     14  O   LIG    1       29.565 -22.279   8.199  0.00  0.00    -0.273 OA
ATOM     15  N   LIG    1       30.958 -20.585   7.646  0.00  0.00    -0.255 N 
ATOM     16  H   LIG    1       31.638 -21.286   7.385  0.00  0.00    +0.158 HD
ATOM     17  C   LIG    1       31.223 -19.323   7.180  0.00  0.00    +0.219 C 
ATOM     18  O   LIG    1       32.273 -19.080   6.589  0.00  0.00    -0.275 OA
ATOM     19  C   LIG    1       30.150 -18.279   7.370  0.00  0.00    +0.098 C 
ATOM     20  C   LIG    1       29.239 -18.599   8.541  0.00  0.00    +0.042 C 
ENDBRANCH   3  12
TORSDOF 1
ENDMDL
MODEL 3
REMARK VINA RESULT:      -9.0      0.168      2.011
REMARK  Name = *****
REMARK                            x       y       z     vdW  Elec       q    Type
REMARK                         _______ _______ _______ _____ _____    ______ ____
ROOT
ATOM      1  O   LIG    1       26.260 -19.338   4.622  0.00  0.00    -0.270 OA
ATOM      2  C   LIG    1       26.638 -20.111   5.480  0.00  0.00    +0.255 C 
ATOM      3  N   LIG    1       25.958 -21.144   6.070  0.00  0.00    -0.222 N 
ATOM      4  C   LIG    1       26.700 -21.732   7.055  0.00  0.00    +0.255 C 
ATOM      5  O   LIG    1       26.400 -22.656   7.786  0.00  0.00    -0.270 OA
ATOM      6  C   LIG    1       27.988 -21.045   7.082  0.00  0.00    +0.049 A 
ATOM      7  C   LIG    1       29.099 -21.255   7.874  0.00  0.00    +0.014 A 
ATOM      8  C   LIG    1       30.201 -20.418   7.661  0.00  0.00    +0.001 A 
ATOM      9  C   LIG    1       30.163 -19.408   6.677  0.00  0.00    +0.001 A 
ATOM     10  C   LIG    1       29.024 -19.218   5.888  0.00  0.00    +0.014 A 
ATOM     11  C   LIG    1       27.952 -20.058   6.115  0.00  0.00    +0.049 A 
ENDROOT
BRANCH   3  12
ATOM     12  C   LIG    1       24.595 -21.510   5.707  0.00  0.00    +0.171 C 
ATOM     13  C   LIG    1       23.610 -20.722   6.566  0.00  0.00    +0.240 C 
ATOM     14  O   LIG    1       23.628 -20.754   7.797  0.00  0.00    -0.273 OA
ATOM     15  N   LIG    1       22.726 -19.904   5.905  0.00  0.00    -0.255 N 
ATOM     16  H   LIG    1       22.088 -19.385   6.492  0.00  0.00    +0.158 HD
ATOM     17  C   LIG    1       22.794 -19.473   4.605  0.00  0.00    +0.219 C 
ATOM     18  O   LIG    1       22.040 -18.592   4.197  0.00  0.00    -0.275 OA
ATOM     19  C   LIG    1       23.866 -20.078   3.733  0.00  0.00    +0.098 C 
ATOM     20  C   LIG    1       24.286 -21.455   4.213  0.00  0.00    +0.042 C 
ENDBRANCH   3  12
TORSDOF 1
ENDMDL
MODEL 4
REMARK VINA RESULT:      -8.9      2.497      6.024
REMARK  Name = *****
REMARK                            x       y       z     vdW  Elec       q    Type
REMARK                         _______ _______ _______ _____ _____    ______ ____
ROOT
ATOM      1  O   LIG    1       28.410 -20.068   5.652  0.00  0.00    -0.270 OA
ATOM      2  C   LIG    1       27.491 -20.198   6.437  0.00  0.00    +0.255 C 
ATOM      3  N   LIG    1       27.513 -20.162   7.805  0.00  0.00    -0.222 N 
ATOM      4  C   LIG    1       26.282 -20.434   8.333  0.00  0.00    +0.255 C 
ATOM      5  O   LIG    1       25.951 -20.502   9.501  0.00  0.00    -0.270 OA
ATOM      6  C   LIG    1       25.373 -20.628   7.206  0.00  0.00    +0.049 A 
ATOM      7  C   LIG    1       24.022 -20.910   7.183  0.00  0.00    +0.014 A 
ATOM      8  C   LIG    1       23.419 -21.043   5.928  0.00  0.00    +0.001 A 
ATOM      9  C   LIG    1       24.173 -20.893   4.744  0.00  0.00    +0.001 A 
ATOM     10  C   LIG    1       25.541 -20.608   4.796  0.00  0.00    +0.014 A 
ATOM     11  C   LIG    1       26.111 -20.479   6.047  0.00  0.00    +0.049 A 
ENDROOT
BRANCH   3  12
ATOM     12  C   LIG    1       28.724 -19.913   8.576  0.00  0.00    +0.171 C 
ATOM     13  C   LIG    1       29.761 -20.988   8.256  0.00  0.00    +0.240 C 
ATOM     14  O   LIG    1       29.537 -22.190   8.398  0.00  0.00    -0.273 OA
ATOM     15  N   LIG    1       30.954 -20.560   7.726  0.00  0.00    -0.255 N 
ATOM     16  H   LIG    1       31.623 -21.288   7.514  0.00  0.00    +0.158 HD
ATOM     17  C   LIG    1       31.237 -19.338   7.174  0.00  0.00    +0.219 C 
ATOM     18  O   LIG    1       32.289 -19.154   6.566  0.00  0.00    -0.275 OA
ATOM     19  C   LIG    1       30.182 -18.267   7.293  0.00  0.00    +0.098 C 
ATOM     20  C   LIG    1       29.269 -18.490   8.485  0.00  0.00    +0.042 C 
ENDBRANCH   3  12
TORSDOF 1
ENDMDL
MODEL 5
REMARK VINA RESULT:      -8.7      2.795      4.392
REMARK  Name = *****
REMARK                            x       y       z     vdW  Elec       q    Type
REMARK                         _______ _______ _______ _____ _____    ______ ____
ROOT
ATOM      1  O   LIG    1       25.851 -22.916   8.406  0.00  0.00    -0.270 OA
ATOM      2  C   LIG    1       25.555 -23.179   7.257  0.00  0.00    +0.255 C 
ATOM      3  N   LIG    1       25.087 -22.348   6.275  0.00  0.00    -0.222 N 
ATOM      4  C   LIG    1       24.790 -23.040   5.134  0.00  0.00    +0.255 C 
ATOM      5  O   LIG    1       24.341 -22.622   4.084  0.00  0.00    -0.270 OA
ATOM      6  C   LIG    1       25.131 -24.437   5.386  0.00  0.00    +0.049 A 
ATOM      7  C   LIG    1       25.041 -25.544   4.566  0.00  0.00    +0.014 A 
ATOM      8  C   LIG    1       25.448 -26.770   5.102  0.00  0.00    +0.001 A 
ATOM      9  C   LIG    1       25.927 -26.858   6.427  0.00  0.00    +0.001 A 
ATOM     10  C   LIG    1       26.008 -25.720   7.237  0.00  0.00    +0.014 A 
ATOM     11  C   LIG    1       25.603 -24.521   6.683  0.00  0.00    +0.049 A 
ENDROOT
BRANCH   3  12
ATOM     12  C   LIG    1       24.890 -20.918   6.469  0.00  0.00    +0.171 C 
ATOM     13  C   LIG    1       25.505 -20.155   5.298  0.00  0.00    +0.240 C 
ATOM     14  O   LIG    1       26.689 -20.271   4.979  0.00  0.00    -0.273 OA
ATOM     15  N   LIG    1       24.658 -19.371   4.554  0.00  0.00    -0.255 N 
ATOM     16  H   LIG    1       25.084 -18.882   3.779  0.00  0.00    +0.158 HD
ATOM     17  C   LIG    1       23.287 -19.402   4.533  0.00  0.00    +0.219 C 
ATOM     18  O   LIG    1       22.659 -18.778   3.681  0.00  0.00    -0.275 OA
ATOM     19  C   LIG    1       22.602 -20.279   5.552  0.00  0.00    +0.098 C 
ATOM     20  C   LIG    1       23.457 -20.499   6.787  0.00  0.00    +0.042 C 
ENDBRANCH   3  12
TORSDOF 1
ENDMDL
MODEL 6
REMARK VINA RESULT:      -8.6      2.802      4.711
REMARK  Name = *****
REMARK                            x       y       z     vdW  Elec       q    Type
REMARK                         _______ _______ _______ _____ _____    ______ ____
ROOT
ATOM      1  O   LIG    1       24.393 -22.586   4.129  0.00  0.00    -0.270 OA
ATOM      2  C   LIG    1       24.798 -23.035   5.183  0.00  0.00    +0.255 C 
ATOM      3  N   LIG    1       25.074 -22.376   6.352  0.00  0.00    -0.222 N 
ATOM      4  C   LIG    1       25.592 -23.221   7.292  0.00  0.00    +0.255 C 
ATOM      5  O   LIG    1       25.961 -22.970   8.423  0.00  0.00    -0.270 OA
ATOM      6  C   LIG    1       25.621 -24.553   6.693  0.00  0.00    +0.049 A 
ATOM      7  C   LIG    1       26.036 -25.762   7.215  0.00  0.00    +0.014 A 
ATOM      8  C   LIG    1       25.944 -26.882   6.382  0.00  0.00    +0.001 A 
ATOM      9  C   LIG    1       25.446 -26.766   5.066  0.00  0.00    +0.001 A 
ATOM     10  C   LIG    1       25.033 -25.529   4.562  0.00  0.00    +0.014 A 
ATOM     11  C   LIG    1       25.132 -24.440   5.405  0.00  0.00    +0.049 A 
ENDROOT
BRANCH   3  12
ATOM     12  C   LIG    1       24.877 -20.943   6.523  0.00  0.00    +0.171 C 
ATOM     13  C   LIG    1       25.538 -20.196   5.367  0.00  0.00    +0.240 C 
ATOM     14  O   LIG    1       26.732 -20.321   5.093  0.00  0.00    -0.273 OA
ATOM     15  N   LIG    1       24.722 -19.416   4.585  0.00  0.00    -0.255 N 
ATOM     16  H   LIG    1       25.178 -18.937   3.820  0.00  0.00    +0.158 HD
ATOM     17  C   LIG    1       23.353 -19.441   4.515  0.00  0.00    +0.219 C 
ATOM     18  O   LIG    1       22.759 -18.823   3.634  0.00  0.00    -0.275 OA
ATOM     19  C   LIG    1       22.628 -20.303   5.517  0.00  0.00    +0.098 C 
ATOM     20  C   LIG    1       23.436 -20.514   6.785  0.00  0.00    +0.042 C 
ENDBRANCH   3  12
TORSDOF 1
ENDMDL
MODEL 7
REMARK VINA RESULT:      -8.4      2.862      5.259
REMARK  Name = *****
REMARK                            x       y       z     vdW  Elec       q    Type
REMARK                         _______ _______ _______ _____ _____    ______ ____
ROOT
ATOM      1  O   LIG    1       27.541 -22.963   7.233  0.00  0.00    -0.270 OA
ATOM      2  C   LIG    1       26.382 -23.132   6.908  0.00  0.00    +0.255 C 
ATOM      3  N   LIG    1       25.389 -22.204   6.740  0.00  0.00    -0.222 N 
ATOM      4  C   LIG    1       24.193 -22.798   6.450  0.00  0.00    +0.255 C 
ATOM      5  O   LIG    1       23.110 -22.280   6.259  0.00  0.00    -0.270 OA
ATOM      6  C   LIG    1       24.439 -24.236   6.390  0.00  0.00    +0.049 A 
ATOM      7  C   LIG    1       23.580 -25.282   6.120  0.00  0.00    +0.014 A 
ATOM      8  C   LIG    1       24.120 -26.573   6.137  0.00  0.00    +0.001 A 
ATOM      9  C   LIG    1       25.487 -26.782   6.421  0.00  0.00    +0.001 A 
ATOM     10  C   LIG    1       26.336 -25.703   6.691  0.00  0.00    +0.014 A 
ATOM     11  C   LIG    1       25.779 -24.440   6.665  0.00  0.00    +0.049 A 
ENDROOT
BRANCH   3  12
ATOM     12  C   LIG    1       25.601 -20.772   6.907  0.00  0.00    +0.171 C 
ATOM     13  C   LIG    1       26.319 -20.514   8.229  0.00  0.00    +0.240 C 
ATOM     14  O   LIG    1       25.874 -20.896   9.312  0.00  0.00    -0.273 OA
ATOM     15  N   LIG    1       27.539 -19.888   8.160  0.00  0.00    -0.255 N 
ATOM     16  H   LIG    1       28.002 -19.734   9.046  0.00  0.00    +0.158 HD
ATOM     17  C   LIG    1       28.337 -19.722   7.057  0.00  0.00    +0.219 C 
ATOM     18  O   LIG    1       29.489 -19.311   7.173  0.00  0.00    -0.275 OA
ATOM     19  C   LIG    1       27.760 -20.125   5.723  0.00  0.00    +0.098 C 
ATOM     20  C   LIG    1       26.243 -20.069   5.713  0.00  0.00    +0.042 C 
ENDBRANCH   3  12
TORSDOF 1
ENDMDL
MODEL 8
REMARK VINA RESULT:      -8.0      3.414      6.342
REMARK  Name = *****
REMARK                            x       y       z     vdW  Elec       q    Type
REMARK                         _______ _______ _______ _____ _____    ______ ____
ROOT
ATOM      1  O   LIG    1       27.709 -21.371   8.711  0.00  0.00    -0.270 OA
ATOM      2  C   LIG    1       27.975 -20.630   7.785  0.00  0.00    +0.255 C 
ATOM      3  N   LIG    1       29.043 -19.785   7.636  0.00  0.00    -0.222 N 
ATOM      4  C   LIG    1       28.944 -19.053   6.486  0.00  0.00    +0.255 C 
ATOM      5  O   LIG    1       29.700 -18.204   6.055  0.00  0.00    -0.270 OA
ATOM      6  C   LIG    1       27.724 -19.488   5.812  0.00  0.00    +0.049 A 
ATOM      7  C   LIG    1       27.169 -19.083   4.614  0.00  0.00    +0.014 A 
ATOM      8  C   LIG    1       25.970 -19.693   4.228  0.00  0.00    +0.001 A 
ATOM      9  C   LIG    1       25.366 -20.679   5.037  0.00  0.00    +0.001 A 
ATOM     10  C   LIG    1       25.951 -21.071   6.246  0.00  0.00    +0.014 A 
ATOM     11  C   LIG    1       27.134 -20.455   6.603  0.00  0.00    +0.049 A 
ENDROOT
BRANCH   3  12
ATOM     12  C   LIG    1       30.108 -19.665   8.623  0.00  0.00    +0.171 C 
ATOM     13  C   LIG    1       31.438 -19.434   7.911  0.00  0.00    +0.240 C 
ATOM     14  O   LIG    1       31.880 -20.209   7.062  0.00  0.00    -0.273 OA
ATOM     15  N   LIG    1       32.107 -18.272   8.207  0.00  0.00    -0.255 N 
ATOM     16  H   LIG    1       32.982 -18.135   7.719  0.00  0.00    +0.158 HD
ATOM     17  C   LIG    1       31.613 -17.155   8.830  0.00  0.00    +0.219 C 
ATOM     18  O   LIG    1       32.266 -16.114   8.862  0.00  0.00    -0.275 OA
ATOM     19  C   LIG    1       30.222 -17.246   9.407  0.00  0.00    +0.098 C 
ATOM     20  C   LIG    1       29.836 -18.673   9.751  0.00  0.00    +0.042 C 
ENDBRANCH   3  12
TORSDOF 1
ENDMDL
MODEL 9
REMARK VINA RESULT:      -7.9      2.193      3.067
REMARK  Name = *****
REMARK                            x       y       z     vdW  Elec       q    Type
REMARK                         _______ _______ _______ _____ _____    ______ ____
ROOT
ATOM      1  O   LIG    1       26.143 -20.447   5.790  0.00  0.00    -0.270 OA
ATOM      2  C   LIG    1       27.171 -20.636   6.410  0.00  0.00    +0.255 C 
ATOM      3  N   LIG    1       27.423 -21.540   7.407  0.00  0.00    -0.222 N 
ATOM      4  C   LIG    1       28.684 -21.388   7.912  0.00  0.00    +0.255 C 
ATOM      5  O   LIG    1       29.225 -22.005   8.810  0.00  0.00    -0.270 OA
ATOM      6  C   LIG    1       29.318 -20.316   7.151  0.00  0.00    +0.049 A 
ATOM      7  C   LIG    1       30.587 -19.779   7.245  0.00  0.00    +0.014 A 
ATOM      8  C   LIG    1       30.907 -18.741   6.363  0.00  0.00    +0.001 A 
ATOM      9  C   LIG    1       29.964 -18.273   5.423  0.00  0.00    +0.001 A 
ATOM     10  C   LIG    1       28.685 -18.835   5.349  0.00  0.00    +0.014 A 
ATOM     11  C   LIG    1       28.395 -19.860   6.228  0.00  0.00    +0.049 A 
ENDROOT
BRANCH   3  12
ATOM     12  C   LIG    1       26.433 -22.495   7.885  0.00  0.00    +0.171 C 
ATOM     13  C   LIG    1       25.251 -21.744   8.493  0.00  0.00    +0.240 C 
ATOM     14  O   LIG    1       25.381 -20.937   9.415  0.00  0.00    -0.273 OA
ATOM     15  N   LIG    1       24.021 -21.952   7.920  0.00  0.00    -0.255 N 
ATOM     16  H   LIG    1       23.254 -21.438   8.333  0.00  0.00    +0.158 HD
ATOM     17  C   LIG    1       23.749 -22.511   6.698  0.00  0.00    +0.219 C 
ATOM     18  O   LIG    1       22.615 -22.464   6.226  0.00  0.00    -0.275 OA
ATOM     19  C   LIG    1       24.905 -23.121   5.946  0.00  0.00    +0.098 C 
ATOM     20  C   LIG    1       26.023 -23.563   6.873  0.00  0.00    +0.042 C 
ENDBRANCH   3  12
TORSDOF 1
ENDMDL
