MODEL 1
REMARK VINA RESULT:      -1.4      0.000      0.000
REMARK  Name = *****
REMARK                            x       y       z     vdW  Elec       q    Type
REMARK                         _______ _______ _______ _____ _____    ______ ____
ROOT
ATOM      1  C   LIG    1       26.359 -15.261   3.460  0.00  0.00    -0.014 A 
ATOM      2  C   LIG    1       27.202 -16.368   3.729  0.00  0.00    +0.056 A 
ATOM      3  C   LIG    1       26.677 -17.676   3.814  0.00  0.00    +0.174 A 
ATOM      4  C   LIG    1       25.302 -17.865   3.689  0.00  0.00    +0.174 A 
ATOM      5  C   LIG    1       24.455 -16.764   3.559  0.00  0.00    +0.050 A 
ATOM      6  C   LIG    1       24.977 -15.484   3.418  0.00  0.00    +0.010 A 
ENDROOT
BRANCH   1   7
ATOM      7  C   LIG    1       26.917 -13.862   3.205  0.00  0.00    +0.158 C 
BRANCH   7   8
ATOM      8  O   LIG    1       27.869 -13.498   4.223  0.00  0.00    -0.386 OA
ATOM      9  H   LIG    1       27.370 -13.040   4.921  0.00  0.00    +0.210 HD
ENDBRANCH   7   8
BRANCH   7  10
ATOM     10  C   LIG    1       25.806 -12.776   3.183  0.00  0.00    +0.116 C 
BRANCH  10  12
ATOM     11  C   LIG    1       24.262 -11.509   1.818  0.00  0.00    +0.101 C 
ATOM     12  N   LIG    1       25.217 -12.607   1.843  0.00  0.00    -0.316 NA
ATOM     13  H   LIG    1       25.963 -12.446   1.163  0.00  0.00    +0.122 HD
ENDBRANCH  10  12
ENDBRANCH   7  10
ENDBRANCH   1   7
BRANCH   3  14
ATOM     14  O   LIG    1       27.615 -18.720   4.065  0.00  0.00    -0.422 OA
BRANCH  14  15
ATOM     15  C   LIG    1       28.421 -18.892   5.205  0.00  0.00    +0.318 C 
ATOM     16  O   LIG    1       29.321 -18.128   5.563  0.00  0.00    -0.250 OA
BRANCH  15  17
ATOM     17  C   LIG    1       27.999 -20.129   6.006  0.00  0.00    +0.060 C 
ATOM     18  C   LIG    1       26.970 -19.707   7.062  0.00  0.00    +0.022 C 
ATOM     19  C   LIG    1       29.205 -20.769   6.738  0.00  0.00    +0.022 C 
ATOM     20  C   LIG    1       27.418 -21.179   5.054  0.00  0.00    +0.022 C 
ENDBRANCH  15  17
ENDBRANCH  14  15
ENDBRANCH   3  14
BRANCH   4  21
ATOM     21  O   LIG    1       24.712 -19.125   3.797  0.00  0.00    -0.422 OA
BRANCH  21  22
ATOM     22  C   LIG    1       23.423 -19.165   4.364  0.00  0.00    +0.318 C 
ATOM     23  O   LIG    1       22.608 -18.255   4.378  0.00  0.00    -0.250 OA
BRANCH  22  24
ATOM     24  C   LIG    1       23.195 -20.547   5.004  0.00  0.00    +0.060 C 
ATOM     25  C   LIG    1       21.725 -20.964   4.810  0.00  0.00    +0.022 C 
ATOM     26  C   LIG    1       23.487 -20.480   6.513  0.00  0.00    +0.022 C 
ATOM     27  C   LIG    1       24.104 -21.568   4.320  0.00  0.00    +0.022 C 
ENDBRANCH  22  24
ENDBRANCH  21  22
ENDBRANCH   4  21
TORSDOF 10
ENDMDL
MODEL 2
REMARK VINA RESULT:      -1.3      1.299      1.853
REMARK  Name = *****
REMARK                            x       y       z     vdW  Elec       q    Type
REMARK                         _______ _______ _______ _____ _____    ______ ____
ROOT
ATOM      1  C   LIG    1       25.791 -15.371   3.508  0.00  0.00    -0.014 A 
ATOM      2  C   LIG    1       26.681 -16.443   3.766  0.00  0.00    +0.056 A 
ATOM      3  C   LIG    1       26.206 -17.766   3.895  0.00  0.00    +0.174 A 
ATOM      4  C   LIG    1       24.834 -18.005   3.826  0.00  0.00    +0.174 A 
ATOM      5  C   LIG    1       23.946 -16.936   3.706  0.00  0.00    +0.050 A 
ATOM      6  C   LIG    1       24.417 -15.643   3.521  0.00  0.00    +0.010 A 
ENDROOT
BRANCH   1   7
ATOM      7  C   LIG    1       26.289 -13.959   3.206  0.00  0.00    +0.158 C 
BRANCH   7   8
ATOM      8  O   LIG    1       27.119 -13.951   2.027  0.00  0.00    -0.386 OA
ATOM      9  H   LIG    1       27.905 -13.419   2.243  0.00  0.00    +0.210 HD
ENDBRANCH   7   8
BRANCH   7  10
ATOM     10  C   LIG    1       27.120 -13.361   4.375  0.00  0.00    +0.116 C 
BRANCH  10  12
ATOM     11  C   LIG    1       29.105 -12.069   4.865  0.00  0.00    +0.101 C 
ATOM     12  N   LIG    1       28.504 -13.051   3.976  0.00  0.00    -0.316 NA
ATOM     13  H   LIG    1       29.055 -13.912   3.970  0.00  0.00    +0.122 HD
ENDBRANCH  10  12
ENDBRANCH   7  10
ENDBRANCH   1   7
BRANCH   3  14
ATOM     14  O   LIG    1       27.188 -18.772   4.132  0.00  0.00    -0.422 OA
BRANCH  14  15
ATOM     15  C   LIG    1       28.251 -18.733   5.054  0.00  0.00    +0.318 C 
ATOM     16  O   LIG    1       29.128 -17.867   5.093  0.00  0.00    -0.250 OA
BRANCH  15  17
ATOM     17  C   LIG    1       28.152 -19.878   6.067  0.00  0.00    +0.060 C 
ATOM     18  C   LIG    1       28.030 -21.204   5.306  0.00  0.00    +0.022 C 
ATOM     19  C   LIG    1       26.907 -19.727   6.974  0.00  0.00    +0.022 C 
ATOM     20  C   LIG    1       29.392 -19.869   6.968  0.00  0.00    +0.022 C 
ENDBRANCH  15  17
ENDBRANCH  14  15
ENDBRANCH   3  14
BRANCH   4  21
ATOM     21  O   LIG    1       24.294 -19.282   3.980  0.00  0.00    -0.422 OA
BRANCH  21  22
ATOM     22  C   LIG    1       23.212 -19.398   4.874  0.00  0.00    +0.318 C 
ATOM     23  O   LIG    1       22.380 -18.539   5.123  0.00  0.00    -0.250 OA
BRANCH  22  24
ATOM     24  C   LIG    1       23.247 -20.791   5.529  0.00  0.00    +0.060 C 
ATOM     25  C   LIG    1       21.977 -21.572   5.139  0.00  0.00    +0.022 C 
ATOM     26  C   LIG    1       23.279 -20.649   7.061  0.00  0.00    +0.022 C 
ATOM     27  C   LIG    1       24.477 -21.547   5.029  0.00  0.00    +0.022 C 
ENDBRANCH  22  24
ENDBRANCH  21  22
ENDBRANCH   4  21
TORSDOF 10
ENDMDL
MODEL 3
REMARK VINA RESULT:      -0.9      1.332      4.330
REMARK  Name = *****
REMARK                            x       y       z     vdW  Elec       q    Type
REMARK                         _______ _______ _______ _____ _____    ______ ____
ROOT
ATOM      1  C   LIG    1       25.946 -16.026   3.316  0.00  0.00    -0.014 A 
ATOM      2  C   LIG    1       24.996 -17.073   3.226  0.00  0.00    +0.056 A 
ATOM      3  C   LIG    1       25.310 -18.380   3.659  0.00  0.00    +0.174 A 
ATOM      4  C   LIG    1       26.596 -18.648   4.127  0.00  0.00    +0.174 A 
ATOM      5  C   LIG    1       27.573 -17.653   4.091  0.00  0.00    +0.050 A 
ATOM      6  C   LIG    1       27.247 -16.356   3.719  0.00  0.00    +0.010 A 
ENDROOT
BRANCH   1   7
ATOM      7  C   LIG    1       25.585 -14.576   3.005  0.00  0.00    +0.158 C 
BRANCH   7   8
ATOM      8  O   LIG    1       26.568 -13.979   2.135  0.00  0.00    -0.386 OA
ATOM      9  H   LIG    1       26.639 -13.044   2.395  0.00  0.00    +0.210 HD
ENDBRANCH   7   8
BRANCH   7  10
ATOM     10  C   LIG    1       25.491 -13.701   4.286  0.00  0.00    +0.116 C 
BRANCH  10  12
ATOM     11  C   LIG    1       24.240 -12.032   3.058  0.00  0.00    +0.101 C 
ATOM     12  N   LIG    1       24.306 -12.825   4.277  0.00  0.00    -0.316 NA
ATOM     13  H   LIG    1       23.463 -13.394   4.378  0.00  0.00    +0.122 HD
ENDBRANCH  10  12
ENDBRANCH   7  10
ENDBRANCH   1   7
BRANCH   3  14
ATOM     14  O   LIG    1       24.274 -19.352   3.546  0.00  0.00    -0.422 OA
BRANCH  14  15
ATOM     15  C   LIG    1       24.033 -20.451   4.391  0.00  0.00    +0.318 C 
ATOM     16  O   LIG    1       24.754 -21.447   4.487  0.00  0.00    -0.250 OA
BRANCH  15  17
ATOM     17  C   LIG    1       22.780 -20.232   5.246  0.00  0.00    +0.060 C 
ATOM     18  C   LIG    1       23.140 -20.464   6.719  0.00  0.00    +0.022 C 
ATOM     19  C   LIG    1       21.653 -21.223   4.865  0.00  0.00    +0.022 C 
ATOM     20  C   LIG    1       22.251 -18.812   5.022  0.00  0.00    +0.022 C 
ENDBRANCH  15  17
ENDBRANCH  14  15
ENDBRANCH   3  14
BRANCH   4  21
ATOM     21  O   LIG    1       26.985 -19.924   4.539  0.00  0.00    -0.422 OA
BRANCH  21  22
ATOM     22  C   LIG    1       28.310 -20.054   4.997  0.00  0.00    +0.318 C 
ATOM     23  O   LIG    1       29.313 -20.147   4.305  0.00  0.00    -0.250 OA
BRANCH  22  24
ATOM     24  C   LIG    1       28.311 -20.089   6.537  0.00  0.00    +0.060 C 
ATOM     25  C   LIG    1       28.963 -21.399   7.019  0.00  0.00    +0.022 C 
ATOM     26  C   LIG    1       26.865 -20.043   7.062  0.00  0.00    +0.022 C 
ATOM     27  C   LIG    1       29.116 -18.901   7.062  0.00  0.00    +0.022 C 
ENDBRANCH  22  24
ENDBRANCH  21  22
ENDBRANCH   4  21
TORSDOF 10
ENDMDL
MODEL 4
REMARK VINA RESULT:      -0.9      2.763      6.581
REMARK  Name = *****
REMARK                            x       y       z     vdW  Elec       q    Type
REMARK                         _______ _______ _______ _____ _____    ______ ____
ROOT
ATOM      1  C   LIG    1       24.256 -18.556   3.884  0.00  0.00    -0.014 A 
ATOM      2  C   LIG    1       25.364 -17.777   3.465  0.00  0.00    +0.056 A 
ATOM      3  C   LIG    1       25.290 -16.367   3.431  0.00  0.00    +0.174 A 
ATOM      4  C   LIG    1       24.087 -15.743   3.759  0.00  0.00    +0.174 A 
ATOM      5  C   LIG    1       22.957 -16.511   4.041  0.00  0.00    +0.050 A 
ATOM      6  C   LIG    1       23.046 -17.894   4.130  0.00  0.00    +0.010 A 
ENDROOT
BRANCH   1   7
ATOM      7  C   LIG    1       24.358 -20.066   4.082  0.00  0.00    +0.158 C 
BRANCH   7   8
ATOM      8  O   LIG    1       23.072 -20.625   4.417  0.00  0.00    -0.386 OA
ATOM      9  H   LIG    1       23.133 -21.582   4.251  0.00  0.00    +0.210 HD
ENDBRANCH   7   8
BRANCH   7  10
ATOM     10  C   LIG    1       25.351 -20.449   5.214  0.00  0.00    +0.116 C 
BRANCH  10  12
ATOM     11  C   LIG    1       27.631 -20.106   5.950  0.00  0.00    +0.101 C 
ATOM     12  N   LIG    1       26.757 -20.290   4.801  0.00  0.00    -0.316 NA
ATOM     13  H   LIG    1       27.045 -21.108   4.261  0.00  0.00    +0.122 HD
ENDBRANCH  10  12
ENDBRANCH   7  10
ENDBRANCH   1   7
BRANCH   3  14
ATOM     14  O   LIG    1       26.467 -15.680   3.017  0.00  0.00    -0.422 OA
BRANCH  14  15
ATOM     15  C   LIG    1       27.562 -15.296   3.814  0.00  0.00    +0.318 C 
ATOM     16  O   LIG    1       28.346 -16.072   4.368  0.00  0.00    -0.250 OA
BRANCH  15  17
ATOM     17  C   LIG    1       27.711 -13.772   3.862  0.00  0.00    +0.060 C 
ATOM     18  C   LIG    1       26.854 -13.157   2.748  0.00  0.00    +0.022 C 
ATOM     19  C   LIG    1       29.180 -13.339   3.634  0.00  0.00    +0.022 C 
ATOM     20  C   LIG    1       27.280 -13.260   5.239  0.00  0.00    +0.022 C 
ENDBRANCH  15  17
ENDBRANCH  14  15
ENDBRANCH   3  14
BRANCH   4  21
ATOM     21  O   LIG    1       23.932 -14.357   3.714  0.00  0.00    -0.422 OA
BRANCH  21  22
ATOM     22  C   LIG    1       23.579 -13.728   4.923  0.00  0.00    +0.318 C 
ATOM     23  O   LIG    1       23.139 -14.274   5.924  0.00  0.00    -0.250 OA
BRANCH  22  24
ATOM     24  C   LIG    1       23.808 -12.211   4.789  0.00  0.00    +0.060 C 
ATOM     25  C   LIG    1       25.164 -11.841   5.420  0.00  0.00    +0.022 C 
ATOM     26  C   LIG    1       22.699 -11.447   5.533  0.00  0.00    +0.022 C 
ATOM     27  C   LIG    1       23.822 -11.839   3.306  0.00  0.00    +0.022 C 
ENDBRANCH  22  24
ENDBRANCH  21  22
ENDBRANCH   4  21
TORSDOF 10
ENDMDL
MODEL 5
REMARK VINA RESULT:      -0.8      3.015      7.463
REMARK  Name = *****
REMARK                            x       y       z     vdW  Elec       q    Type
REMARK                         _______ _______ _______ _____ _____    ______ ____
ROOT
ATOM      1  C   LIG    1       23.711 -18.124   3.940  0.00  0.00    -0.014 A 
ATOM      2  C   LIG    1       23.511 -16.722   4.003  0.00  0.00    +0.056 A 
ATOM      3  C   LIG    1       24.528 -15.825   3.613  0.00  0.00    +0.174 A 
ATOM      4  C   LIG    1       25.765 -16.332   3.217  0.00  0.00    +0.174 A 
ATOM      5  C   LIG    1       26.010 -17.704   3.282  0.00  0.00    +0.050 A 
ATOM      6  C   LIG    1       24.990 -18.588   3.610  0.00  0.00    +0.010 A 
ENDROOT
BRANCH   1   7
ATOM      7  C   LIG    1       22.580 -19.116   4.202  0.00  0.00    +0.158 C 
BRANCH   7   8
ATOM      8  O   LIG    1       21.296 -18.477   4.057  0.00  0.00    -0.386 OA
ATOM      9  H   LIG    1       21.450 -17.520   4.139  0.00  0.00    +0.210 HD
ENDBRANCH   7   8
BRANCH   7  10
ATOM     10  C   LIG    1       22.647 -19.727   5.630  0.00  0.00    +0.116 C 
BRANCH  10  12
ATOM     11  C   LIG    1       24.211 -21.570   5.508  0.00  0.00    +0.101 C 
ATOM     12  N   LIG    1       22.809 -21.191   5.603  0.00  0.00    -0.316 NA
ATOM     13  H   LIG    1       22.387 -21.594   6.442  0.00  0.00    +0.122 HD
ENDBRANCH  10  12
ENDBRANCH   7  10
ENDBRANCH   1   7
BRANCH   3  14
ATOM     14  O   LIG    1       24.215 -14.437   3.694  0.00  0.00    -0.422 OA
BRANCH  14  15
ATOM     15  C   LIG    1       23.591 -13.759   4.758  0.00  0.00    +0.318 C 
ATOM     16  O   LIG    1       22.946 -14.296   5.663  0.00  0.00    -0.250 OA
BRANCH  15  17
ATOM     17  C   LIG    1       23.866 -12.253   4.699  0.00  0.00    +0.060 C 
ATOM     18  C   LIG    1       25.206 -11.967   5.387  0.00  0.00    +0.022 C 
ATOM     19  C   LIG    1       22.767 -11.447   5.433  0.00  0.00    +0.022 C 
ATOM     20  C   LIG    1       23.885 -11.795   3.237  0.00  0.00    +0.022 C 
ENDBRANCH  15  17
ENDBRANCH  14  15
ENDBRANCH   3  14
BRANCH   4  21
ATOM     21  O   LIG    1       26.826 -15.502   2.852  0.00  0.00    -0.422 OA
BRANCH  21  22
ATOM     22  C   LIG    1       27.727 -15.153   3.876  0.00  0.00    +0.318 C 
ATOM     23  O   LIG    1       28.306 -15.924   4.628  0.00  0.00    -0.250 OA
BRANCH  22  24
ATOM     24  C   LIG    1       27.860 -13.620   3.932  0.00  0.00    +0.060 C 
ATOM     25  C   LIG    1       26.955 -12.989   2.856  0.00  0.00    +0.022 C 
ATOM     26  C   LIG    1       29.315 -13.210   3.646  0.00  0.00    +0.022 C 
ATOM     27  C   LIG    1       27.419 -13.132   5.312  0.00  0.00    +0.022 C 
ENDBRANCH  22  24
ENDBRANCH  21  22
ENDBRANCH   4  21
TORSDOF 10
ENDMDL
MODEL 6
REMARK VINA RESULT:      -0.3      2.805      6.605
REMARK  Name = *****
REMARK                            x       y       z     vdW  Elec       q    Type
REMARK                         _______ _______ _______ _____ _____    ______ ____
ROOT
ATOM      1  C   LIG    1       23.726 -18.808   4.191  0.00  0.00    -0.014 A 
ATOM      2  C   LIG    1       24.894 -18.224   3.642  0.00  0.00    +0.056 A 
ATOM      3  C   LIG    1       24.991 -16.827   3.459  0.00  0.00    +0.174 A 
ATOM      4  C   LIG    1       23.894 -16.024   3.770  0.00  0.00    +0.174 A 
ATOM      5  C   LIG    1       22.697 -16.609   4.184  0.00  0.00    +0.050 A 
ATOM      6  C   LIG    1       22.622 -17.976   4.418  0.00  0.00    +0.010 A 
ENDROOT
BRANCH   1   7
ATOM      7  C   LIG    1       23.653 -20.291   4.547  0.00  0.00    +0.158 C 
BRANCH   7   8
ATOM      8  O   LIG    1       22.288 -20.699   4.765  0.00  0.00    -0.386 OA
ATOM      9  H   LIG    1       21.758 -20.285   4.061  0.00  0.00    +0.210 HD
ENDBRANCH   7   8
BRANCH   7  10
ATOM     10  C   LIG    1       24.461 -20.632   5.831  0.00  0.00    +0.116 C 
BRANCH  10  12
ATOM     11  C   LIG    1       26.865 -20.446   6.026  0.00  0.00    +0.101 C 
ATOM     12  N   LIG    1       25.762 -21.251   5.523  0.00  0.00    -0.316 NA
ATOM     13  H   LIG    1       25.794 -22.190   5.925  0.00  0.00    +0.122 HD
ENDBRANCH  10  12
ENDBRANCH   7  10
ENDBRANCH   1   7
BRANCH   3  14
ATOM     14  O   LIG    1       26.218 -16.342   2.921  0.00  0.00    -0.422 OA
BRANCH  14  15
ATOM     15  C   LIG    1       26.678 -15.012   2.898  0.00  0.00    +0.318 C 
ATOM     16  O   LIG    1       26.328 -14.152   2.086  0.00  0.00    -0.250 OA
BRANCH  15  17
ATOM     17  C   LIG    1       27.633 -14.731   4.063  0.00  0.00    +0.060 C 
ATOM     18  C   LIG    1       28.333 -16.039   4.455  0.00  0.00    +0.022 C 
ATOM     19  C   LIG    1       26.873 -14.202   5.304  0.00  0.00    +0.022 C 
ATOM     20  C   LIG    1       28.648 -13.664   3.644  0.00  0.00    +0.022 C 
ENDBRANCH  15  17
ENDBRANCH  14  15
ENDBRANCH   3  14
BRANCH   4  21
ATOM     21  O   LIG    1       23.908 -14.642   3.582  0.00  0.00    -0.422 OA
BRANCH  21  22
ATOM     22  C   LIG    1       23.606 -13.855   4.710  0.00  0.00    +0.318 C 
ATOM     23  O   LIG    1       23.106 -14.245   5.755  0.00  0.00    -0.250 OA
BRANCH  22  24
ATOM     24  C   LIG    1       23.981 -12.390   4.419  0.00  0.00    +0.060 C 
ATOM     25  C   LIG    1       25.444 -12.145   4.836  0.00  0.00    +0.022 C 
ATOM     26  C   LIG    1       23.079 -11.447   5.232  0.00  0.00    +0.022 C 
ATOM     27  C   LIG    1       23.833 -12.126   2.921  0.00  0.00    +0.022 C 
ENDBRANCH  22  24
ENDBRANCH  21  22
ENDBRANCH   4  21
TORSDOF 10
ENDMDL
MODEL 7
REMARK VINA RESULT:       0.1      2.432      5.931
REMARK  Name = *****
REMARK                            x       y       z     vdW  Elec       q    Type
REMARK                         _______ _______ _______ _____ _____    ______ ____
ROOT
ATOM      1  C   LIG    1       23.704 -19.023   3.831  0.00  0.00    -0.014 A 
ATOM      2  C   LIG    1       25.064 -19.409   3.933  0.00  0.00    +0.056 A 
ATOM      3  C   LIG    1       26.098 -18.449   3.887  0.00  0.00    +0.174 A 
ATOM      4  C   LIG    1       25.771 -17.110   3.677  0.00  0.00    +0.174 A 
ATOM      5  C   LIG    1       24.445 -16.744   3.441  0.00  0.00    +0.050 A 
ATOM      6  C   LIG    1       23.425 -17.681   3.545  0.00  0.00    +0.010 A 
ENDROOT
BRANCH   1   7
ATOM      7  C   LIG    1       22.563 -20.016   4.037  0.00  0.00    +0.158 C 
BRANCH   7   8
ATOM      8  O   LIG    1       21.568 -19.474   4.929  0.00  0.00    -0.386 OA
ATOM      9  H   LIG    1       21.941 -19.525   5.826  0.00  0.00    +0.210 HD
ENDBRANCH   7   8
BRANCH   7  10
ATOM     10  C   LIG    1       23.051 -21.365   4.635  0.00  0.00    +0.116 C 
BRANCH  10  12
ATOM     11  C   LIG    1       23.797 -21.318   6.937  0.00  0.00    +0.101 C 
ATOM     12  N   LIG    1       22.663 -21.523   6.048  0.00  0.00    -0.316 NA
ATOM     13  H   LIG    1       21.913 -20.864   6.268  0.00  0.00    +0.122 HD
ENDBRANCH  10  12
ENDBRANCH   7  10
ENDBRANCH   1   7
BRANCH   3  14
ATOM     14  O   LIG    1       27.428 -18.943   4.022  0.00  0.00    -0.422 OA
BRANCH  14  15
ATOM     15  C   LIG    1       28.318 -18.727   5.090  0.00  0.00    +0.318 C 
ATOM     16  O   LIG    1       28.984 -17.703   5.266  0.00  0.00    -0.250 OA
BRANCH  15  17
ATOM     17  C   LIG    1       28.316 -19.907   6.067  0.00  0.00    +0.060 C 
ATOM     18  C   LIG    1       28.448 -21.210   5.268  0.00  0.00    +0.022 C 
ATOM     19  C   LIG    1       26.998 -19.971   6.876  0.00  0.00    +0.022 C 
ATOM     20  C   LIG    1       29.470 -19.748   7.062  0.00  0.00    +0.022 C 
ENDBRANCH  15  17
ENDBRANCH  14  15
ENDBRANCH   3  14
BRANCH   4  21
ATOM     21  O   LIG    1       26.744 -16.113   3.585  0.00  0.00    -0.422 OA
BRANCH  21  22
ATOM     22  C   LIG    1       26.348 -14.910   2.969  0.00  0.00    +0.318 C 
ATOM     23  O   LIG    1       25.777 -14.798   1.895  0.00  0.00    -0.250 OA
BRANCH  22  24
ATOM     24  C   LIG    1       26.773 -13.726   3.857  0.00  0.00    +0.060 C 
ATOM     25  C   LIG    1       26.554 -12.408   3.089  0.00  0.00    +0.022 C 
ATOM     26  C   LIG    1       28.267 -13.843   4.206  0.00  0.00    +0.022 C 
ATOM     27  C   LIG    1       25.918 -13.720   5.124  0.00  0.00    +0.022 C 
ENDBRANCH  22  24
ENDBRANCH  21  22
ENDBRANCH   4  21
TORSDOF 10
ENDMDL
MODEL 8
REMARK VINA RESULT:       0.4      2.382      5.313
REMARK  Name = *****
REMARK                            x       y       z     vdW  Elec       q    Type
REMARK                         _______ _______ _______ _____ _____    ______ ____
ROOT
ATOM      1  C   LIG    1       27.393 -19.830   5.223  0.00  0.00    -0.014 A 
ATOM      2  C   LIG    1       27.246 -18.626   4.491  0.00  0.00    +0.056 A 
ATOM      3  C   LIG    1       25.999 -18.259   3.938  0.00  0.00    +0.174 A 
ATOM      4  C   LIG    1       24.917 -19.128   4.069  0.00  0.00    +0.174 A 
ATOM      5  C   LIG    1       25.092 -20.374   4.672  0.00  0.00    +0.050 A 
ATOM      6  C   LIG    1       26.303 -20.709   5.264  0.00  0.00    +0.010 A 
ENDROOT
BRANCH   1   7
ATOM      7  C   LIG    1       28.683 -20.175   5.964  0.00  0.00    +0.158 C 
BRANCH   7   8
ATOM      8  O   LIG    1       28.578 -21.464   6.601  0.00  0.00    -0.386 OA
ATOM      9  H   LIG    1       28.021 -22.015   6.024  0.00  0.00    +0.210 HD
ENDBRANCH   7   8
BRANCH   7  10
ATOM     10  C   LIG    1       29.032 -19.130   7.061  0.00  0.00    +0.116 C 
BRANCH  10  12
ATOM     11  C   LIG    1       29.473 -17.885   5.034  0.00  0.00    +0.101 C 
ATOM     12  N   LIG    1       29.469 -17.845   6.489  0.00  0.00    -0.316 NA
ATOM     13  H   LIG    1       28.855 -17.099   6.824  0.00  0.00    +0.122 HD
ENDBRANCH  10  12
ENDBRANCH   7  10
ENDBRANCH   1   7
BRANCH   3  14
ATOM     14  O   LIG    1       25.956 -17.017   3.241  0.00  0.00    -0.422 OA
BRANCH  14  15
ATOM     15  C   LIG    1       25.278 -15.844   3.620  0.00  0.00    +0.318 C 
ATOM     16  O   LIG    1       24.108 -15.792   4.010  0.00  0.00    -0.250 OA
BRANCH  15  17
ATOM     17  C   LIG    1       26.199 -14.621   3.556  0.00  0.00    +0.060 C 
ATOM     18  C   LIG    1       25.737 -13.598   4.601  0.00  0.00    +0.022 C 
ATOM     19  C   LIG    1       26.148 -13.944   2.165  0.00  0.00    +0.022 C 
ATOM     20  C   LIG    1       27.645 -15.058   3.812  0.00  0.00    +0.022 C 
ENDBRANCH  15  17
ENDBRANCH  14  15
ENDBRANCH   3  14
BRANCH   4  21
ATOM     21  O   LIG    1       23.666 -18.846   3.518  0.00  0.00    -0.422 OA
BRANCH  21  22
ATOM     22  C   LIG    1       22.566 -18.933   4.392  0.00  0.00    +0.318 C 
ATOM     23  O   LIG    1       22.163 -18.058   5.144  0.00  0.00    -0.250 OA
BRANCH  22  24
ATOM     24  C   LIG    1       21.942 -20.337   4.279  0.00  0.00    +0.060 C 
ATOM     25  C   LIG    1       22.646 -21.120   3.155  0.00  0.00    +0.022 C 
ATOM     26  C   LIG    1       20.449 -20.219   3.929  0.00  0.00    +0.022 C 
ATOM     27  C   LIG    1       22.133 -21.074   5.604  0.00  0.00    +0.022 C 
ENDBRANCH  22  24
ENDBRANCH  21  22
ENDBRANCH   4  21
TORSDOF 10
ENDMDL
MODEL 9
REMARK VINA RESULT:       0.4      1.574      2.125
REMARK  Name = *****
REMARK                            x       y       z     vdW  Elec       q    Type
REMARK                         _______ _______ _______ _____ _____    ______ ____
ROOT
ATOM      1  C   LIG    1       24.396 -14.815   3.798  0.00  0.00    -0.014 A 
ATOM      2  C   LIG    1       25.526 -15.658   3.650  0.00  0.00    +0.056 A 
ATOM      3  C   LIG    1       25.393 -17.063   3.680  0.00  0.00    +0.174 A 
ATOM      4  C   LIG    1       24.138 -17.621   3.917  0.00  0.00    +0.174 A 
ATOM      5  C   LIG    1       23.049 -16.795   4.196  0.00  0.00    +0.050 A 
ATOM      6  C   LIG    1       23.169 -15.414   4.110  0.00  0.00    +0.010 A 
ENDROOT
BRANCH   1   7
ATOM      7  C   LIG    1       24.485 -13.302   3.612  0.00  0.00    +0.158 C 
BRANCH   7   8
ATOM      8  O   LIG    1       25.104 -12.977   2.352  0.00  0.00    -0.386 OA
ATOM      9  H   LIG    1       25.051 -13.777   1.800  0.00  0.00    +0.210 HD
ENDBRANCH   7   8
BRANCH   7  10
ATOM     10  C   LIG    1       25.307 -12.614   4.737  0.00  0.00    +0.116 C 
BRANCH  10  12
ATOM     11  C   LIG    1       27.630 -13.199   5.078  0.00  0.00    +0.101 C 
ATOM     12  N   LIG    1       26.250 -13.542   5.386  0.00  0.00    -0.316 NA
ATOM     13  H   LIG    1       26.096 -13.529   6.397  0.00  0.00    +0.122 HD
ENDBRANCH  10  12
ENDBRANCH   7  10
ENDBRANCH   1   7
BRANCH   3  14
ATOM     14  O   LIG    1       26.589 -17.817   3.499  0.00  0.00    -0.422 OA
BRANCH  14  15
ATOM     15  C   LIG    1       27.597 -18.068   4.449  0.00  0.00    +0.318 C 
ATOM     16  O   LIG    1       28.459 -17.259   4.803  0.00  0.00    -0.250 OA
BRANCH  15  17
ATOM     17  C   LIG    1       27.456 -19.468   5.056  0.00  0.00    +0.060 C 
ATOM     18  C   LIG    1       28.848 -19.979   5.448  0.00  0.00    +0.022 C 
ATOM     19  C   LIG    1       26.845 -20.466   4.043  0.00  0.00    +0.022 C 
ATOM     20  C   LIG    1       26.526 -19.405   6.272  0.00  0.00    +0.022 C 
ENDBRANCH  15  17
ENDBRANCH  14  15
ENDBRANCH   3  14
BRANCH   4  21
ATOM     21  O   LIG    1       23.940 -19.001   3.994  0.00  0.00    -0.422 OA
BRANCH  21  22
ATOM     22  C   LIG    1       22.673 -19.426   4.436  0.00  0.00    +0.318 C 
ATOM     23  O   LIG    1       21.617 -18.827   4.298  0.00  0.00    -0.250 OA
BRANCH  22  24
ATOM     24  C   LIG    1       22.818 -20.777   5.160  0.00  0.00    +0.060 C 
ATOM     25  C   LIG    1       21.503 -21.569   5.034  0.00  0.00    +0.022 C 
ATOM     26  C   LIG    1       23.103 -20.542   6.654  0.00  0.00    +0.022 C 
ATOM     27  C   LIG    1       23.951 -21.572   4.510  0.00  0.00    +0.022 C 
ENDBRANCH  22  24
ENDBRANCH  21  22
ENDBRANCH   4  21
TORSDOF 10
ENDMDL
