MODEL 1
REMARK VINA RESULT:      28.6      0.000      0.000
REMARK  Name = *****
REMARK                            x       y       z     vdW  Elec       q    Type
REMARK                         _______ _______ _______ _____ _____    ______ ____
ROOT
ATOM      1  C   LIG    1       20.788 -19.599   3.322  0.00  0.00    +0.188 C 
ATOM      2  C   LIG    1       22.213 -19.303   3.710  0.00  0.00    +0.008 C 
ATOM      3  C   LIG    1       22.866 -18.088   3.214  0.00  0.00    +0.035 C 
ATOM      4  C   LIG    1       24.098 -17.790   3.643  0.00  0.00    +0.071 C 
ATOM      5  C   LIG    1       24.960 -16.629   3.403  0.00  0.00    +0.093 A 
ATOM      6  C   LIG    1       26.139 -16.843   4.101  0.00  0.00    +0.000 A 
ATOM      7  C   LIG    1       27.111 -15.870   4.093  0.00  0.00    +0.018 A 
ATOM      8  C   LIG    1       26.877 -14.680   3.380  0.00  0.00    +0.009 A 
ATOM      9  C   LIG    1       27.839 -13.630   3.301  0.00  0.00    +0.017 A 
ATOM     10  C   LIG    1       27.502 -12.468   2.589  0.00  0.00    +0.122 A 
ATOM     11  C   LIG    1       26.273 -12.343   1.955  0.00  0.00    +0.048 A 
ATOM     12  C   LIG    1       25.351 -13.390   2.020  0.00  0.00    +0.032 A 
ATOM     13  C   LIG    1       25.615 -14.559   2.715  0.00  0.00    +0.072 A 
ATOM     14  C   LIG    1       26.120 -18.163   4.793  0.00  0.00    +0.163 C 
ATOM     15  N   LIG    1       24.662 -15.518   2.720  0.00  0.00    -0.245 NA
ATOM     16  N   LIG    1       24.781 -18.654   4.481  0.00  0.00    -0.302 N 
ATOM     17  C   LIG    1       24.277 -19.834   4.959  0.00  0.00    +0.259 C 
ATOM     18  O   LIG    1       24.893 -20.598   5.688  0.00  0.00    -0.267 OA
ATOM     19  C   LIG    1       22.869 -20.126   4.547  0.00  0.00    +0.061 C 
ATOM     20  C   LIG    1       22.272 -21.341   5.161  0.00  0.00    +0.273 C 
ATOM     21  O   LIG    1       20.889 -21.570   4.837  0.00  0.00    -0.458 OA
ATOM     22  C   LIG    1       20.324 -21.014   3.745  0.00  0.00    +0.344 C 
ATOM     23  O   LIG    1       19.393 -21.572   3.163  0.00  0.00    -0.247 OA
ENDROOT
BRANCH   1  25
ATOM     24  C   LIG    1       19.350 -17.490   2.875  0.00  0.00    +0.007 C 
ATOM     25  C   LIG    1       19.771 -18.569   3.866  0.00  0.00    +0.048 C 
ENDBRANCH   1  25
BRANCH  10  26
ATOM     26  O   LIG    1       28.407 -11.447   2.505  0.00  0.00    -0.506 OA
ATOM     27  H   LIG    1       27.945 -10.598   2.606  0.00  0.00    +0.292 HD
ENDBRANCH  10  26
BRANCH   1  28
ATOM     28  O   LIG    1       20.712 -19.555   1.885  0.00  0.00    -0.373 OA
ATOM     29  H   LIG    1       19.781 -19.756   1.657  0.00  0.00    +0.211 HD
ENDBRANCH   1  28
BRANCH   9  30
ATOM     30  C   LIG    1       29.241 -13.768   3.885  0.00  0.00    +0.123 C 
BRANCH  30  31
ATOM     31  N   LIG    1       29.474 -13.100   5.185  0.00  0.00    -0.304 NA
ATOM     32  C   LIG    1       28.580 -13.612   6.225  0.00  0.00    +0.105 C 
ATOM     33  C   LIG    1       29.261 -11.657   5.022  0.00  0.00    +0.105 C 
ENDBRANCH  30  31
ENDBRANCH   9  30
TORSDOF 5
ENDMDL
