MODEL 1
REMARK VINA RESULT:      -8.3      0.000      0.000
REMARK  Name = *****
REMARK                            x       y       z     vdW  Elec       q    Type
REMARK                         _______ _______ _______ _____ _____    ______ ____
ROOT
ATOM      1  C   LIG    1       25.656 -21.166   7.022  0.00  0.00    +0.064 C 
ATOM      2  C   LIG    1       24.908 -20.122   6.145  0.00  0.00    +0.117 C 
ATOM      3  C   LIG    1       23.400 -20.422   6.168  0.00  0.00    +0.062 C 
ATOM      4  C   LIG    1       23.097 -21.826   5.615  0.00  0.00    +0.151 C 
ATOM      5  C   LIG    1       24.046 -22.909   6.082  0.00  0.00    -0.011 A 
ATOM      6  C   LIG    1       23.693 -24.248   5.826  0.00  0.00    +0.056 A 
ATOM      7  C   LIG    1       24.526 -25.248   6.271  0.00  0.00    +0.167 A 
ATOM      8  O   LIG    1       24.328 -26.581   6.104  0.00  0.00    -0.453 OA
ATOM      9  C   LIG    1       25.500 -27.111   6.757  0.00  0.00    +0.466 C 
ATOM     10  O   LIG    1       26.340 -26.094   7.340  0.00  0.00    -0.453 OA
ATOM     11  C   LIG    1       25.674 -24.969   6.967  0.00  0.00    +0.167 A 
ATOM     12  C   LIG    1       26.064 -23.674   7.231  0.00  0.00    +0.054 A 
ATOM     13  C   LIG    1       25.269 -22.614   6.744  0.00  0.00    -0.030 A 
ENDROOT
BRANCH   1  18
ATOM     14  C   LIG    1       29.319 -21.104   8.264  0.00  0.00    +0.165 A 
ATOM     15  C   LIG    1       29.914 -20.248   7.315  0.00  0.00    +0.203 A 
ATOM     16  C   LIG    1       29.104 -19.690   6.294  0.00  0.00    +0.165 A 
ATOM     17  C   LIG    1       27.741 -20.001   6.236  0.00  0.00    +0.053 A 
ATOM     18  C   LIG    1       27.151 -20.883   7.147  0.00  0.00    -0.032 A 
ATOM     19  C   LIG    1       27.957 -21.426   8.155  0.00  0.00    +0.053 A 
BRANCH  14  21
ATOM     20  C   LIG    1       31.264 -22.352   8.865  0.00  0.00    +0.277 C 
ATOM     21  O   LIG    1       30.091 -21.647   9.259  0.00  0.00    -0.491 OA
ENDBRANCH  14  21
BRANCH  15  22
ATOM     22  O   LIG    1       31.239 -19.875   7.266  0.00  0.00    -0.488 OA
ATOM     23  C   LIG    1       31.693 -18.784   8.057  0.00  0.00    +0.277 C 
ENDBRANCH  15  22
BRANCH  16  24
ATOM     24  O   LIG    1       29.684 -18.781   5.439  0.00  0.00    -0.491 OA
ATOM     25  C   LIG    1       28.860 -17.755   4.891  0.00  0.00    +0.277 C 
ENDBRANCH  16  24
ENDBRANCH   1  18
BRANCH   2  26
ATOM     26  C   LIG    1       25.390 -20.023   4.709  0.00  0.00    +0.309 C 
ATOM     27  O   LIG    1       25.581 -18.964   4.095  0.00  0.00    -0.251 OA
BRANCH  26  28
ATOM     28  O   LIG    1       25.714 -21.214   4.180  0.00  0.00    -0.480 OA
ATOM     29  H   LIG    1       25.154 -21.458   3.395  0.00  0.00    +0.295 HD
ENDBRANCH  26  28
ENDBRANCH   2  26
BRANCH   4  30
ATOM     30  O   LIG    1       23.078 -21.806   4.191  0.00  0.00    -0.387 OA
ATOM     31  H   LIG    1       23.726 -21.137   3.886  0.00  0.00    +0.210 HD
ENDBRANCH   4  30
BRANCH   3  32
ATOM     32  C   LIG    1       22.578 -19.346   5.449  0.00  0.00    +0.163 C 
BRANCH  32  33
ATOM     33  O   LIG    1       21.530 -19.975   4.711  0.00  0.00    -0.395 OA
ATOM     34  H   LIG    1       20.692 -19.686   5.121  0.00  0.00    +0.209 HD
ENDBRANCH  32  33
ENDBRANCH   3  32
TORSDOF 9
ENDMDL
MODEL 2
REMARK VINA RESULT:      -7.7      0.145      2.231
REMARK  Name = *****
REMARK                            x       y       z     vdW  Elec       q    Type
REMARK                         _______ _______ _______ _____ _____    ______ ____
ROOT
ATOM      1  C   LIG    1       25.624 -21.080   6.963  0.00  0.00    +0.064 C 
ATOM      2  C   LIG    1       24.845 -20.063   6.082  0.00  0.00    +0.117 C 
ATOM      3  C   LIG    1       23.346 -20.408   6.107  0.00  0.00    +0.062 C 
ATOM      4  C   LIG    1       23.084 -21.823   5.561  0.00  0.00    +0.151 C 
ATOM      5  C   LIG    1       24.066 -22.875   6.032  0.00  0.00    -0.011 A 
ATOM      6  C   LIG    1       23.753 -24.225   5.782  0.00  0.00    +0.056 A 
ATOM      7  C   LIG    1       24.616 -25.198   6.232  0.00  0.00    +0.167 A 
ATOM      8  O   LIG    1       24.458 -26.537   6.070  0.00  0.00    -0.453 OA
ATOM      9  C   LIG    1       25.645 -27.029   6.725  0.00  0.00    +0.466 C 
ATOM     10  O   LIG    1       26.455 -25.985   7.302  0.00  0.00    -0.453 OA
ATOM     11  C   LIG    1       25.756 -24.881   6.925  0.00  0.00    +0.167 A 
ATOM     12  C   LIG    1       26.107 -23.574   7.183  0.00  0.00    +0.054 A 
ATOM     13  C   LIG    1       25.280 -22.541   6.692  0.00  0.00    -0.030 A 
ENDROOT
BRANCH   1  18
ATOM     14  C   LIG    1       29.164 -19.664   6.317  0.00  0.00    +0.165 A 
ATOM     15  C   LIG    1       29.889 -20.248   7.377  0.00  0.00    +0.203 A 
ATOM     16  C   LIG    1       29.212 -21.112   8.275  0.00  0.00    +0.165 A 
ATOM     17  C   LIG    1       27.846 -21.361   8.106  0.00  0.00    +0.053 A 
ATOM     18  C   LIG    1       27.110 -20.752   7.085  0.00  0.00    -0.032 A 
ATOM     19  C   LIG    1       27.786 -19.904   6.200  0.00  0.00    +0.053 A 
BRANCH  14  21
ATOM     20  C   LIG    1       29.048 -17.774   4.862  0.00  0.00    +0.277 C 
ATOM     21  O   LIG    1       29.809 -18.831   5.440  0.00  0.00    -0.491 OA
ENDBRANCH  14  21
BRANCH  15  22
ATOM     22  O   LIG    1       31.229 -20.075   7.646  0.00  0.00    -0.488 OA
ATOM     23  C   LIG    1       31.677 -18.863   8.240  0.00  0.00    +0.277 C 
ENDBRANCH  15  22
BRANCH  16  24
ATOM     24  O   LIG    1       29.959 -21.748   9.239  0.00  0.00    -0.491 OA
ATOM     25  C   LIG    1       31.128 -22.451   8.827  0.00  0.00    +0.277 C 
ENDBRANCH  16  24
ENDBRANCH   1  18
BRANCH   2  26
ATOM     26  C   LIG    1       25.322 -19.956   4.645  0.00  0.00    +0.309 C 
ATOM     27  O   LIG    1       25.482 -18.895   4.027  0.00  0.00    -0.251 OA
BRANCH  26  28
ATOM     28  O   LIG    1       25.679 -21.140   4.120  0.00  0.00    -0.480 OA
ATOM     29  H   LIG    1       26.157 -21.726   4.765  0.00  0.00    +0.295 HD
ENDBRANCH  26  28
ENDBRANCH   2  26
BRANCH   4  30
ATOM     30  O   LIG    1       23.063 -21.810   4.137  0.00  0.00    -0.387 OA
ATOM     31  H   LIG    1       23.969 -22.002   3.817  0.00  0.00    +0.210 HD
ENDBRANCH   4  30
BRANCH   3  32
ATOM     32  C   LIG    1       22.492 -19.360   5.384  0.00  0.00    +0.163 C 
BRANCH  32  33
ATOM     33  O   LIG    1       21.450 -20.023   4.666  0.00  0.00    -0.395 OA
ATOM     34  H   LIG    1       21.560 -20.977   4.840  0.00  0.00    +0.209 HD
ENDBRANCH  32  33
ENDBRANCH   3  32
TORSDOF 9
ENDMDL
MODEL 3
REMARK VINA RESULT:      -7.7      5.018      9.582
REMARK  Name = *****
REMARK                            x       y       z     vdW  Elec       q    Type
REMARK                         _______ _______ _______ _____ _____    ______ ____
ROOT
ATOM      1  C   LIG    1       26.145 -29.932   8.316  0.00  0.00    +0.064 C 
ATOM      2  C   LIG    1       25.381 -31.261   8.052  0.00  0.00    +0.117 C 
ATOM      3  C   LIG    1       25.355 -31.544   6.541  0.00  0.00    +0.062 C 
ATOM      4  C   LIG    1       24.647 -30.416   5.768  0.00  0.00    +0.151 C 
ATOM      5  C   LIG    1       25.001 -29.016   6.227  0.00  0.00    -0.011 A 
ATOM      6  C   LIG    1       24.594 -27.938   5.418  0.00  0.00    +0.056 A 
ATOM      7  C   LIG    1       24.935 -26.661   5.799  0.00  0.00    +0.167 A 
ATOM      8  O   LIG    1       24.619 -25.521   5.132  0.00  0.00    -0.453 OA
ATOM      9  C   LIG    1       25.221 -24.530   5.991  0.00  0.00    +0.466 C 
ATOM     10  O   LIG    1       25.921 -25.098   7.116  0.00  0.00    -0.453 OA
ATOM     11  C   LIG    1       25.669 -26.422   6.932  0.00  0.00    +0.167 A 
ATOM     12  C   LIG    1       26.078 -27.445   7.758  0.00  0.00    +0.054 A 
ATOM     13  C   LIG    1       25.704 -28.767   7.437  0.00  0.00    -0.030 A 
ENDROOT
BRANCH   1  18
ATOM     14  C   LIG    1       27.562 -29.703  11.907  0.00  0.00    +0.165 A 
ATOM     15  C   LIG    1       26.507 -29.049  12.576  0.00  0.00    +0.203 A 
ATOM     16  C   LIG    1       25.339 -28.711  11.846  0.00  0.00    +0.165 A 
ATOM     17  C   LIG    1       25.256 -29.017  10.483  0.00  0.00    +0.053 A 
ATOM     18  C   LIG    1       26.315 -29.625   9.802  0.00  0.00    -0.032 A 
ATOM     19  C   LIG    1       27.463 -29.960  10.531  0.00  0.00    +0.053 A 
BRANCH  14  21
ATOM     20  C   LIG    1       29.908 -29.392  12.233  0.00  0.00    +0.277 C 
ATOM     21  O   LIG    1       28.694 -30.039  12.604  0.00  0.00    -0.491 OA
ENDBRANCH  14  21
BRANCH  15  22
ATOM     22  O   LIG    1       26.476 -28.694  13.907  0.00  0.00    -0.488 OA
ATOM     23  C   LIG    1       27.103 -27.490  14.330  0.00  0.00    +0.277 C 
ENDBRANCH  15  22
BRANCH  16  24
ATOM     24  O   LIG    1       24.284 -28.165  12.539  0.00  0.00    -0.491 OA
ATOM     25  C   LIG    1       23.050 -28.878  12.554  0.00  0.00    +0.277 C 
ENDBRANCH  16  24
ENDBRANCH   1  18
BRANCH   2  26
ATOM     26  C   LIG    1       23.970 -31.315   8.609  0.00  0.00    +0.309 C 
ATOM     27  O   LIG    1       23.139 -30.400   8.530  0.00  0.00    -0.251 OA
BRANCH  26  28
ATOM     28  O   LIG    1       23.648 -32.520   9.109  0.00  0.00    -0.480 OA
ATOM     29  H   LIG    1       24.400 -32.957   9.590  0.00  0.00    +0.295 HD
ENDBRANCH  26  28
ENDBRANCH   2  26
BRANCH   4  30
ATOM     30  O   LIG    1       23.234 -30.582   5.830  0.00  0.00    -0.387 OA
ATOM     31  H   LIG    1       22.868 -29.879   6.406  0.00  0.00    +0.210 HD
ENDBRANCH   4  30
BRANCH   3  32
ATOM     32  C   LIG    1       24.751 -32.914   6.211  0.00  0.00    +0.163 C 
BRANCH  32  33
ATOM     33  O   LIG    1       24.315 -32.916   4.851  0.00  0.00    -0.395 OA
ATOM     34  H   LIG    1       23.383 -32.627   4.860  0.00  0.00    +0.209 HD
ENDBRANCH  32  33
ENDBRANCH   3  32
TORSDOF 9
ENDMDL
MODEL 4
REMARK VINA RESULT:      -7.7      5.350      9.942
REMARK  Name = *****
REMARK                            x       y       z     vdW  Elec       q    Type
REMARK                         _______ _______ _______ _____ _____    ______ ____
ROOT
ATOM      1  C   LIG    1       26.033 -30.257   8.545  0.00  0.00    +0.064 C 
ATOM      2  C   LIG    1       25.289 -31.603   8.310  0.00  0.00    +0.117 C 
ATOM      3  C   LIG    1       25.379 -31.984   6.823  0.00  0.00    +0.062 C 
ATOM      4  C   LIG    1       24.734 -30.911   5.927  0.00  0.00    +0.151 C 
ATOM      5  C   LIG    1       25.054 -29.484   6.318  0.00  0.00    -0.011 A 
ATOM      6  C   LIG    1       24.712 -28.462   5.411  0.00  0.00    +0.056 A 
ATOM      7  C   LIG    1       25.024 -27.161   5.734  0.00  0.00    +0.167 A 
ATOM      8  O   LIG    1       24.761 -26.069   4.971  0.00  0.00    -0.453 OA
ATOM      9  C   LIG    1       25.297 -25.022   5.806  0.00  0.00    +0.466 C 
ATOM     10  O   LIG    1       25.908 -25.512   7.017  0.00  0.00    -0.453 OA
ATOM     11  C   LIG    1       25.669 -26.846   6.902  0.00  0.00    +0.167 A 
ATOM     12  C   LIG    1       26.012 -27.812   7.822  0.00  0.00    +0.054 A 
ATOM     13  C   LIG    1       25.662 -29.154   7.560  0.00  0.00    -0.030 A 
ENDROOT
BRANCH   1  18
ATOM     14  C   LIG    1       25.143 -28.813  12.021  0.00  0.00    +0.165 A 
ATOM     15  C   LIG    1       26.320 -29.099  12.744  0.00  0.00    +0.203 A 
ATOM     16  C   LIG    1       27.393 -29.742  12.077  0.00  0.00    +0.165 A 
ATOM     17  C   LIG    1       27.268 -30.091  10.729  0.00  0.00    +0.053 A 
ATOM     18  C   LIG    1       26.089 -29.852  10.016  0.00  0.00    -0.032 A 
ATOM     19  C   LIG    1       25.035 -29.212  10.680  0.00  0.00    +0.053 A 
BRANCH  14  21
ATOM     20  C   LIG    1       22.810 -28.779  12.530  0.00  0.00    +0.277 C 
ATOM     21  O   LIG    1       24.100 -28.188  12.654  0.00  0.00    -0.491 OA
ENDBRANCH  14  21
BRANCH  15  22
ATOM     22  O   LIG    1       26.557 -28.809  14.070  0.00  0.00    -0.488 OA
ATOM     23  C   LIG    1       26.922 -27.488  14.448  0.00  0.00    +0.277 C 
ENDBRANCH  15  22
BRANCH  16  24
ATOM     24  O   LIG    1       28.567 -29.921  12.774  0.00  0.00    -0.491 OA
ATOM     25  C   LIG    1       29.772 -29.425  12.196  0.00  0.00    +0.277 C 
ENDBRANCH  16  24
ENDBRANCH   1  18
BRANCH   2  26
ATOM     26  C   LIG    1       23.840 -31.626   8.760  0.00  0.00    +0.309 C 
ATOM     27  O   LIG    1       23.033 -30.699   8.603  0.00  0.00    -0.251 OA
BRANCH  26  28
ATOM     28  O   LIG    1       23.462 -32.816   9.254  0.00  0.00    -0.480 OA
ATOM     29  H   LIG    1       23.878 -33.586   8.782  0.00  0.00    +0.295 HD
ENDBRANCH  26  28
ENDBRANCH   2  26
BRANCH   4  30
ATOM     30  O   LIG    1       23.320 -31.079   5.891  0.00  0.00    -0.387 OA
ATOM     31  H   LIG    1       23.030 -31.410   6.767  0.00  0.00    +0.210 HD
ENDBRANCH   4  30
BRANCH   3  32
ATOM     32  C   LIG    1       24.801 -33.375   6.539  0.00  0.00    +0.163 C 
BRANCH  32  33
ATOM     33  O   LIG    1       24.647 -33.536   5.128  0.00  0.00    -0.395 OA
ATOM     34  H   LIG    1       23.840 -34.071   4.999  0.00  0.00    +0.209 HD
ENDBRANCH  32  33
ENDBRANCH   3  32
TORSDOF 9
ENDMDL
MODEL 5
REMARK VINA RESULT:      -7.1      5.705     10.753
REMARK  Name = *****
REMARK                            x       y       z     vdW  Elec       q    Type
REMARK                         _______ _______ _______ _____ _____    ______ ____
ROOT
ATOM      1  C   LIG    1       25.429 -30.461   8.113  0.00  0.00    +0.064 C 
ATOM      2  C   LIG    1       25.304 -31.906   7.549  0.00  0.00    +0.117 C 
ATOM      3  C   LIG    1       26.287 -32.085   6.380  0.00  0.00    +0.062 C 
ATOM      4  C   LIG    1       25.993 -31.092   5.240  0.00  0.00    +0.151 C 
ATOM      5  C   LIG    1       25.674 -29.683   5.695  0.00  0.00    -0.011 A 
ATOM      6  C   LIG    1       25.641 -28.670   4.717  0.00  0.00    +0.056 A 
ATOM      7  C   LIG    1       25.385 -27.378   5.114  0.00  0.00    +0.167 A 
ATOM      8  O   LIG    1       25.319 -26.294   4.298  0.00  0.00    -0.453 OA
ATOM      9  C   LIG    1       25.024 -25.255   5.255  0.00  0.00    +0.466 C 
ATOM     10  O   LIG    1       24.972 -25.728   6.616  0.00  0.00    -0.453 OA
ATOM     11  C   LIG    1       25.180 -27.059   6.432  0.00  0.00    +0.167 A 
ATOM     12  C   LIG    1       25.193 -28.019   7.419  0.00  0.00    +0.054 A 
ATOM     13  C   LIG    1       25.396 -29.367   7.052  0.00  0.00    -0.030 A 
ENDROOT
BRANCH   1  18
ATOM     14  C   LIG    1       24.260 -29.617  11.702  0.00  0.00    +0.165 A 
ATOM     15  C   LIG    1       22.875 -29.864  11.603  0.00  0.00    +0.203 A 
ATOM     16  C   LIG    1       22.349 -30.322  10.368  0.00  0.00    +0.165 A 
ATOM     17  C   LIG    1       23.199 -30.509   9.273  0.00  0.00    +0.053 A 
ATOM     18  C   LIG    1       24.566 -30.225   9.349  0.00  0.00    -0.032 A 
ATOM     19  C   LIG    1       25.080 -29.778  10.573  0.00  0.00    +0.053 A 
BRANCH  14  21
ATOM     20  C   LIG    1       25.089 -27.792  13.000  0.00  0.00    +0.277 C 
ATOM     21  O   LIG    1       24.782 -29.179  12.891  0.00  0.00    -0.491 OA
ENDBRANCH  14  21
BRANCH  15  22
ATOM     22  O   LIG    1       21.943 -29.713  12.605  0.00  0.00    -0.488 OA
ATOM     23  C   LIG    1       21.373 -28.433  12.849  0.00  0.00    +0.277 C 
ENDBRANCH  15  22
BRANCH  16  24
ATOM     24  O   LIG    1       21.013 -30.651  10.323  0.00  0.00    -0.491 OA
ATOM     25  C   LIG    1       20.665 -32.032  10.265  0.00  0.00    +0.277 C 
ENDBRANCH  16  24
ENDBRANCH   1  18
BRANCH   2  26
ATOM     26  C   LIG    1       23.908 -32.309   7.112  0.00  0.00    +0.309 C 
ATOM     27  O   LIG    1       23.194 -31.665   6.331  0.00  0.00    -0.251 OA
BRANCH  26  28
ATOM     28  O   LIG    1       23.543 -33.519   7.568  0.00  0.00    -0.480 OA
ATOM     29  H   LIG    1       22.777 -33.484   8.200  0.00  0.00    +0.295 HD
ENDBRANCH  26  28
ENDBRANCH   2  26
BRANCH   4  30
ATOM     30  O   LIG    1       24.928 -31.572   4.426  0.00  0.00    -0.387 OA
ATOM     31  H   LIG    1       24.839 -30.973   3.655  0.00  0.00    +0.210 HD
ENDBRANCH   4  30
BRANCH   3  32
ATOM     32  C   LIG    1       26.332 -33.529   5.868  0.00  0.00    +0.163 C 
BRANCH  32  33
ATOM     33  O   LIG    1       27.068 -33.568   4.645  0.00  0.00    -0.395 OA
ATOM     34  H   LIG    1       26.773 -32.798   4.122  0.00  0.00    +0.209 HD
ENDBRANCH  32  33
ENDBRANCH   3  32
TORSDOF 9
ENDMDL
MODEL 6
REMARK VINA RESULT:      -7.1      5.655     10.435
REMARK  Name = *****
REMARK                            x       y       z     vdW  Elec       q    Type
REMARK                         _______ _______ _______ _____ _____    ______ ____
ROOT
ATOM      1  C   LIG    1       25.675 -30.339   8.308  0.00  0.00    +0.064 C 
ATOM      2  C   LIG    1       25.427 -31.799   7.831  0.00  0.00    +0.117 C 
ATOM      3  C   LIG    1       26.240 -32.064   6.553  0.00  0.00    +0.062 C 
ATOM      4  C   LIG    1       25.833 -31.106   5.417  0.00  0.00    +0.151 C 
ATOM      5  C   LIG    1       25.625 -29.669   5.846  0.00  0.00    -0.011 A 
ATOM      6  C   LIG    1       25.499 -28.694   4.837  0.00  0.00    +0.056 A 
ATOM      7  C   LIG    1       25.343 -27.378   5.206  0.00  0.00    +0.167 A 
ATOM      8  O   LIG    1       25.207 -26.327   4.358  0.00  0.00    -0.453 OA
ATOM      9  C   LIG    1       25.077 -25.239   5.296  0.00  0.00    +0.466 C 
ATOM     10  O   LIG    1       25.189 -25.654   6.673  0.00  0.00    -0.453 OA
ATOM     11  C   LIG    1       25.325 -26.999   6.523  0.00  0.00    +0.167 A 
ATOM     12  C   LIG    1       25.435 -27.919   7.542  0.00  0.00    +0.054 A 
ATOM     13  C   LIG    1       25.540 -29.287   7.213  0.00  0.00    -0.030 A 
ENDROOT
BRANCH   1  18
ATOM     14  C   LIG    1       23.025 -29.870  11.086  0.00  0.00    +0.165 A 
ATOM     15  C   LIG    1       23.813 -29.340  12.128  0.00  0.00    +0.203 A 
ATOM     16  C   LIG    1       25.196 -29.126  11.899  0.00  0.00    +0.165 A 
ATOM     17  C   LIG    1       25.757 -29.452  10.659  0.00  0.00    +0.053 A 
ATOM     18  C   LIG    1       24.992 -30.018   9.635  0.00  0.00    -0.032 A 
ATOM     19  C   LIG    1       23.626 -30.222   9.867  0.00  0.00    +0.053 A 
BRANCH  14  21
ATOM     20  C   LIG    1       21.040 -31.050  10.479  0.00  0.00    +0.277 C 
ATOM     21  O   LIG    1       21.686 -30.077  11.293  0.00  0.00    -0.491 OA
ENDBRANCH  14  21
BRANCH  15  22
ATOM     22  O   LIG    1       23.378 -28.987  13.386  0.00  0.00    -0.488 OA
ATOM     23  C   LIG    1       22.689 -27.758  13.575  0.00  0.00    +0.277 C 
ENDBRANCH  15  22
BRANCH  16  24
ATOM     24  O   LIG    1       25.925 -28.517  12.895  0.00  0.00    -0.491 OA
ATOM     25  C   LIG    1       26.405 -27.195  12.661  0.00  0.00    +0.277 C 
ENDBRANCH  16  24
ENDBRANCH   1  18
BRANCH   2  26
ATOM     26  C   LIG    1       23.972 -32.162   7.599  0.00  0.00    +0.309 C 
ATOM     27  O   LIG    1       23.178 -31.510   6.906  0.00  0.00    -0.251 OA
BRANCH  26  28
ATOM     28  O   LIG    1       23.635 -33.349   8.130  0.00  0.00    -0.480 OA
ATOM     29  H   LIG    1       24.126 -34.112   7.724  0.00  0.00    +0.295 HD
ENDBRANCH  26  28
ENDBRANCH   2  26
BRANCH   4  30
ATOM     30  O   LIG    1       24.653 -31.575   4.772  0.00  0.00    -0.387 OA
ATOM     31  H   LIG    1       24.077 -31.986   5.450  0.00  0.00    +0.210 HD
ENDBRANCH   4  30
BRANCH   3  32
ATOM     32  C   LIG    1       26.167 -33.528   6.105  0.00  0.00    +0.163 C 
BRANCH  32  33
ATOM     33  O   LIG    1       26.729 -33.644   4.798  0.00  0.00    -0.395 OA
ATOM     34  H   LIG    1       26.634 -34.581   4.539  0.00  0.00    +0.209 HD
ENDBRANCH  32  33
ENDBRANCH   3  32
TORSDOF 9
ENDMDL
MODEL 7
REMARK VINA RESULT:      -7.0      1.664      4.965
REMARK  Name = *****
REMARK                            x       y       z     vdW  Elec       q    Type
REMARK                         _______ _______ _______ _____ _____    ______ ____
ROOT
ATOM      1  C   LIG    1       26.263 -21.557   5.781  0.00  0.00    +0.064 C 
ATOM      2  C   LIG    1       26.067 -22.770   6.735  0.00  0.00    +0.117 C 
ATOM      3  C   LIG    1       24.957 -23.680   6.183  0.00  0.00    +0.062 C 
ATOM      4  C   LIG    1       23.617 -22.931   6.070  0.00  0.00    +0.151 C 
ATOM      5  C   LIG    1       23.724 -21.523   5.522  0.00  0.00    -0.011 A 
ATOM      6  C   LIG    1       22.531 -20.868   5.157  0.00  0.00    +0.056 A 
ATOM      7  C   LIG    1       22.610 -19.602   4.626  0.00  0.00    +0.167 A 
ATOM      8  O   LIG    1       21.557 -18.841   4.228  0.00  0.00    -0.453 OA
ATOM      9  C   LIG    1       22.240 -17.651   3.780  0.00  0.00    +0.466 C 
ATOM     10  O   LIG    1       23.676 -17.746   3.873  0.00  0.00    -0.453 OA
ATOM     11  C   LIG    1       23.815 -18.977   4.432  0.00  0.00    +0.167 A 
ATOM     12  C   LIG    1       25.004 -19.576   4.785  0.00  0.00    +0.054 A 
ATOM     13  C   LIG    1       24.970 -20.852   5.385  0.00  0.00    -0.030 A 
ENDROOT
BRANCH   1  18
ATOM     14  C   LIG    1       28.926 -18.754   5.840  0.00  0.00    +0.165 A 
ATOM     15  C   LIG    1       29.624 -19.065   7.025  0.00  0.00    +0.203 A 
ATOM     16  C   LIG    1       29.224 -20.200   7.776  0.00  0.00    +0.165 A 
ATOM     17  C   LIG    1       28.147 -20.979   7.342  0.00  0.00    +0.053 A 
ATOM     18  C   LIG    1       27.421 -20.652   6.193  0.00  0.00    -0.032 A 
ATOM     19  C   LIG    1       27.825 -19.534   5.453  0.00  0.00    +0.053 A 
BRANCH  14  21
ATOM     20  C   LIG    1       28.276 -16.906   4.474  0.00  0.00    +0.277 C 
ATOM     21  O   LIG    1       29.307 -17.662   5.102  0.00  0.00    -0.491 OA
ENDBRANCH  14  21
BRANCH  15  22
ATOM     22  O   LIG    1       30.692 -18.374   7.553  0.00  0.00    -0.488 OA
ATOM     23  C   LIG    1       30.499 -17.538   8.687  0.00  0.00    +0.277 C 
ENDBRANCH  15  22
BRANCH  16  24
ATOM     24  O   LIG    1       29.981 -20.542   8.874  0.00  0.00    -0.491 OA
ATOM     25  C   LIG    1       30.827 -21.684   8.774  0.00  0.00    +0.277 C 
ENDBRANCH  16  24
ENDBRANCH   1  18
BRANCH   2  26
ATOM     26  C   LIG    1       25.766 -22.412   8.179  0.00  0.00    +0.309 C 
ATOM     27  O   LIG    1       24.963 -21.543   8.543  0.00  0.00    -0.251 OA
BRANCH  26  28
ATOM     28  O   LIG    1       26.379 -23.222   9.059  0.00  0.00    -0.480 OA
ATOM     29  H   LIG    1       25.843 -24.027   9.288  0.00  0.00    +0.295 HD
ENDBRANCH  26  28
ENDBRANCH   2  26
BRANCH   4  30
ATOM     30  O   LIG    1       22.963 -22.890   7.335  0.00  0.00    -0.387 OA
ATOM     31  H   LIG    1       22.172 -23.467   7.288  0.00  0.00    +0.210 HD
ENDBRANCH   4  30
BRANCH   3  32
ATOM     32  C   LIG    1       24.809 -24.977   6.987  0.00  0.00    +0.163 C 
BRANCH  32  33
ATOM     33  O   LIG    1       23.745 -25.751   6.432  0.00  0.00    -0.395 OA
ATOM     34  H   LIG    1       24.052 -26.054   5.556  0.00  0.00    +0.209 HD
ENDBRANCH  32  33
ENDBRANCH   3  32
TORSDOF 9
ENDMDL
MODEL 8
REMARK VINA RESULT:      -6.9      7.869     11.164
REMARK  Name = *****
REMARK                            x       y       z     vdW  Elec       q    Type
REMARK                         _______ _______ _______ _____ _____    ______ ____
ROOT
ATOM      1  C   LIG    1       23.892 -30.077   9.751  0.00  0.00    +0.064 C 
ATOM      2  C   LIG    1       22.493 -30.695  10.030  0.00  0.00    +0.117 C 
ATOM      3  C   LIG    1       21.902 -30.067  11.303  0.00  0.00    +0.062 C 
ATOM      4  C   LIG    1       22.799 -30.325  12.528  0.00  0.00    +0.151 C 
ATOM      5  C   LIG    1       24.282 -30.158  12.272  0.00  0.00    -0.011 A 
ATOM      6  C   LIG    1       25.142 -30.130  13.387  0.00  0.00    +0.056 A 
ATOM      7  C   LIG    1       26.489 -29.946  13.178  0.00  0.00    +0.167 A 
ATOM      8  O   LIG    1       27.443 -29.897  14.142  0.00  0.00    -0.453 OA
ATOM      9  C   LIG    1       28.626 -29.697  13.341  0.00  0.00    +0.466 C 
ATOM     10  O   LIG    1       28.349 -29.581  11.930  0.00  0.00    -0.453 OA
ATOM     11  C   LIG    1       27.003 -29.774  11.918  0.00  0.00    +0.167 A 
ATOM     12  C   LIG    1       26.201 -29.804  10.799  0.00  0.00    +0.054 A 
ATOM     13  C   LIG    1       24.820 -30.047  10.961  0.00  0.00    -0.030 A 
ENDROOT
BRANCH   1  18
ATOM     14  C   LIG    1       25.760 -32.187   7.102  0.00  0.00    +0.165 A 
ATOM     15  C   LIG    1       25.671 -31.348   5.972  0.00  0.00    +0.203 A 
ATOM     16  C   LIG    1       25.018 -30.096   6.100  0.00  0.00    +0.165 A 
ATOM     17  C   LIG    1       24.466 -29.719   7.329  0.00  0.00    +0.053 A 
ATOM     18  C   LIG    1       24.511 -30.564   8.443  0.00  0.00    -0.032 A 
ATOM     19  C   LIG    1       25.162 -31.796   8.310  0.00  0.00    +0.053 A 
BRANCH  14  21
ATOM     20  C   LIG    1       27.760 -33.460   7.389  0.00  0.00    +0.277 C 
ATOM     21  O   LIG    1       26.394 -33.398   6.992  0.00  0.00    -0.491 OA
ENDBRANCH  14  21
BRANCH  15  22
ATOM     22  O   LIG    1       26.169 -31.611   4.715  0.00  0.00    -0.488 OA
ATOM     23  C   LIG    1       25.531 -32.579   3.893  0.00  0.00    +0.277 C 
ENDBRANCH  15  22
BRANCH  16  24
ATOM     24  O   LIG    1       25.030 -29.252   5.013  0.00  0.00    -0.491 OA
ATOM     25  C   LIG    1       24.873 -27.854   5.248  0.00  0.00    +0.277 C 
ENDBRANCH  16  24
ENDBRANCH   1  18
BRANCH   2  26
ATOM     26  C   LIG    1       22.467 -32.208  10.145  0.00  0.00    +0.309 C 
ATOM     27  O   LIG    1       23.288 -32.887  10.778  0.00  0.00    -0.251 OA
BRANCH  26  28
ATOM     28  O   LIG    1       21.380 -32.760   9.580  0.00  0.00    -0.480 OA
ATOM     29  H   LIG    1       21.585 -33.581   9.058  0.00  0.00    +0.295 HD
ENDBRANCH  26  28
ENDBRANCH   2  26
BRANCH   4  30
ATOM     30  O   LIG    1       22.560 -31.627  13.052  0.00  0.00    -0.387 OA
ATOM     31  H   LIG    1       23.124 -32.262  12.563  0.00  0.00    +0.210 HD
ENDBRANCH   4  30
BRANCH   3  32
ATOM     32  C   LIG    1       20.458 -30.514  11.561  0.00  0.00    +0.163 C 
BRANCH  32  33
ATOM     33  O   LIG    1       19.702 -30.366  10.358  0.00  0.00    -0.395 OA
ATOM     34  H   LIG    1       20.225 -30.788   9.650  0.00  0.00    +0.209 HD
ENDBRANCH  32  33
ENDBRANCH   3  32
TORSDOF 9
ENDMDL
MODEL 9
REMARK VINA RESULT:      -6.8      1.645      4.432
REMARK  Name = *****
REMARK                            x       y       z     vdW  Elec       q    Type
REMARK                         _______ _______ _______ _____ _____    ______ ____
ROOT
ATOM      1  C   LIG    1       26.268 -21.603   5.737  0.00  0.00    +0.064 C 
ATOM      2  C   LIG    1       26.002 -22.820   6.668  0.00  0.00    +0.117 C 
ATOM      3  C   LIG    1       24.848 -23.660   6.095  0.00  0.00    +0.062 C 
ATOM      4  C   LIG    1       23.551 -22.838   5.988  0.00  0.00    +0.151 C 
ATOM      5  C   LIG    1       23.737 -21.429   5.466  0.00  0.00    -0.011 A 
ATOM      6  C   LIG    1       22.583 -20.704   5.106  0.00  0.00    +0.056 A 
ATOM      7  C   LIG    1       22.733 -19.434   4.598  0.00  0.00    +0.167 A 
ATOM      8  O   LIG    1       21.725 -18.612   4.208  0.00  0.00    -0.453 OA
ATOM      9  C   LIG    1       22.473 -17.452   3.785  0.00  0.00    +0.466 C 
ATOM     10  O   LIG    1       23.902 -17.626   3.884  0.00  0.00    -0.453 OA
ATOM     11  C   LIG    1       23.971 -18.873   4.422  0.00  0.00    +0.167 A 
ATOM     12  C   LIG    1       25.124 -19.540   4.770  0.00  0.00    +0.054 A 
ATOM     13  C   LIG    1       25.018 -20.823   5.347  0.00  0.00    -0.030 A 
ENDROOT
BRANCH   1  18
ATOM     14  C   LIG    1       29.296 -20.225   7.710  0.00  0.00    +0.165 A 
ATOM     15  C   LIG    1       29.663 -19.122   6.912  0.00  0.00    +0.203 A 
ATOM     16  C   LIG    1       28.901 -18.835   5.750  0.00  0.00    +0.165 A 
ATOM     17  C   LIG    1       27.815 -19.648   5.410  0.00  0.00    +0.053 A 
ATOM     18  C   LIG    1       27.471 -20.770   6.171  0.00  0.00    -0.032 A 
ATOM     19  C   LIG    1       28.225 -21.044   7.318  0.00  0.00    +0.053 A 
BRANCH  14  21
ATOM     20  C   LIG    1       30.983 -21.558   8.750  0.00  0.00    +0.277 C 
ATOM     21  O   LIG    1       30.022 -20.510   8.838  0.00  0.00    -0.491 OA
ENDBRANCH  14  21
BRANCH  15  22
ATOM     22  O   LIG    1       30.709 -18.256   7.141  0.00  0.00    -0.488 OA
ATOM     23  C   LIG    1       30.892 -17.700   8.437  0.00  0.00    +0.277 C 
ENDBRANCH  15  22
BRANCH  16  24
ATOM     24  O   LIG    1       29.215 -17.698   5.042  0.00  0.00    -0.491 OA
ATOM     25  C   LIG    1       28.150 -16.974   4.430  0.00  0.00    +0.277 C 
ENDBRANCH  16  24
ENDBRANCH   1  18
BRANCH   2  26
ATOM     26  C   LIG    1       25.712 -22.472   8.117  0.00  0.00    +0.309 C 
ATOM     27  O   LIG    1       24.954 -21.568   8.493  0.00  0.00    -0.251 OA
BRANCH  26  28
ATOM     28  O   LIG    1       26.275 -23.328   8.986  0.00  0.00    -0.480 OA
ATOM     29  H   LIG    1       27.253 -23.439   8.847  0.00  0.00    +0.295 HD
ENDBRANCH  26  28
ENDBRANCH   2  26
BRANCH   4  30
ATOM     30  O   LIG    1       22.893 -22.784   7.250  0.00  0.00    -0.387 OA
ATOM     31  H   LIG    1       22.435 -23.639   7.392  0.00  0.00    +0.210 HD
ENDBRANCH   4  30
BRANCH   3  32
ATOM     32  C   LIG    1       24.626 -24.961   6.875  0.00  0.00    +0.163 C 
BRANCH  32  33
ATOM     33  O   LIG    1       23.650 -25.751   6.195  0.00  0.00    -0.395 OA
ATOM     34  H   LIG    1       23.521 -26.554   6.735  0.00  0.00    +0.209 HD
ENDBRANCH  32  33
ENDBRANCH   3  32
TORSDOF 9
ENDMDL
