MODEL 1
REMARK VINA RESULT:      -7.9      0.000      0.000
REMARK  Name = *****
REMARK                            x       y       z     vdW  Elec       q    Type
REMARK                         _______ _______ _______ _____ _____    ______ ____
ROOT
ATOM      1  N   LIG    1       25.145 -21.612   6.898  0.00  0.00    -0.346 NA
ATOM      2  C   LIG    1       26.219 -20.812   6.435  0.00  0.00    +0.055 C 
ATOM      3  C   LIG    1       26.005 -19.949   5.341  0.00  0.00    +0.049 C 
ATOM      4  C   LIG    1       27.035 -19.171   4.816  0.00  0.00    +0.054 C 
ATOM      5  C   LIG    1       28.298 -19.221   5.392  0.00  0.00    +0.145 C 
ATOM      6  C   LIG    1       28.582 -20.029   6.507  0.00  0.00    +0.067 C 
ATOM      7  F   LIG    1       29.227 -18.416   4.857  0.00  0.00    -0.203 F 
ATOM      8  C   LIG    1       24.658 -19.835   4.736  0.00  0.00    +0.203 C 
ATOM      9  O   LIG    1       24.426 -19.067   3.804  0.00  0.00    -0.286 OA
ATOM     10  C   LIG    1       23.568 -20.658   5.298  0.00  0.00    +0.122 C 
ATOM     11  C   LIG    1       27.513 -20.814   7.007  0.00  0.00    +0.052 C 
ATOM     12  C   LIG    1       23.890 -21.472   6.313  0.00  0.00    +0.105 C 
ENDROOT
BRANCH   6  13
ATOM     13  N   LIG    1       29.850 -20.121   7.141  0.00  0.00    -0.325 NA
ATOM     14  C   LIG    1       29.913 -21.213   8.148  0.00  0.00    +0.120 C 
ATOM     15  C   LIG    1       31.303 -21.297   8.831  0.00  0.00    +0.100 C 
ATOM     16  N   LIG    1       31.786 -20.014   9.376  0.00  0.00    -0.313 NA
ATOM     17  H   LIG    1       31.105 -19.681  10.060  0.00  0.00    +0.122 HD
ATOM     18  C   LIG    1       31.825 -19.046   8.262  0.00  0.00    +0.100 C 
ATOM     19  C   LIG    1       30.442 -18.841   7.605  0.00  0.00    +0.120 C 
ENDBRANCH   6  13
BRANCH   1  21
ATOM     20  C   LIG    1       25.721 -23.966   7.385  0.00  0.00    +0.027 C 
ATOM     21  C   LIG    1       25.366 -22.605   7.964  0.00  0.00    +0.118 C 
ENDBRANCH   1  21
BRANCH  10  22
ATOM     22  C   LIG    1       22.172 -20.624   4.807  0.00  0.00    +0.342 C 
ATOM     23  O   LIG    1       21.439 -21.597   4.804  0.00  0.00    -0.245 OA
BRANCH  22  24
ATOM     24  O   LIG    1       21.765 -19.413   4.363  0.00  0.00    -0.477 OA
ATOM     25  H   LIG    1       21.116 -19.455   3.619  0.00  0.00    +0.295 HD
ENDBRANCH  22  24
ENDBRANCH  10  22
TORSDOF 4
ENDMDL
MODEL 2
REMARK VINA RESULT:      -6.7      1.774      3.059
REMARK  Name = *****
REMARK                            x       y       z     vdW  Elec       q    Type
REMARK                         _______ _______ _______ _____ _____    ______ ____
ROOT
ATOM      1  N   LIG    1       25.487 -19.543   4.461  0.00  0.00    -0.346 NA
ATOM      2  C   LIG    1       26.068 -20.125   5.614  0.00  0.00    +0.055 C 
ATOM      3  C   LIG    1       25.237 -20.801   6.530  0.00  0.00    +0.049 C 
ATOM      4  C   LIG    1       25.747 -21.355   7.704  0.00  0.00    +0.054 C 
ATOM      5  C   LIG    1       27.107 -21.267   7.973  0.00  0.00    +0.145 C 
ATOM      6  C   LIG    1       28.006 -20.639   7.092  0.00  0.00    +0.067 C 
ATOM      7  F   LIG    1       27.529 -21.857   9.101  0.00  0.00    -0.203 F 
ATOM      8  C   LIG    1       23.792 -20.957   6.249  0.00  0.00    +0.203 C 
ATOM      9  O   LIG    1       23.043 -21.570   7.007  0.00  0.00    -0.286 OA
ATOM     10  C   LIG    1       23.255 -20.371   5.003  0.00  0.00    +0.122 C 
ATOM     11  C   LIG    1       27.449 -20.079   5.915  0.00  0.00    +0.052 C 
ATOM     12  C   LIG    1       24.127 -19.718   4.222  0.00  0.00    +0.105 C 
ENDROOT
BRANCH   6  13
ATOM     13  N   LIG    1       29.404 -20.519   7.310  0.00  0.00    -0.325 NA
ATOM     14  C   LIG    1       29.896 -21.408   8.396  0.00  0.00    +0.120 C 
ATOM     15  C   LIG    1       31.424 -21.262   8.623  0.00  0.00    +0.100 C 
ATOM     16  N   LIG    1       31.878 -19.869   8.799  0.00  0.00    -0.313 NA
ATOM     17  H   LIG    1       31.388 -19.474   9.604  0.00  0.00    +0.122 HD
ATOM     18  C   LIG    1       31.467 -19.114   7.600  0.00  0.00    +0.100 C 
ATOM     19  C   LIG    1       29.938 -19.135   7.378  0.00  0.00    +0.120 C 
ENDBRANCH   6  13
BRANCH   1  21
ATOM     20  C   LIG    1       25.711 -17.350   3.343  0.00  0.00    +0.027 C 
ATOM     21  C   LIG    1       26.309 -18.734   3.544  0.00  0.00    +0.118 C 
ENDBRANCH   1  21
BRANCH  10  22
ATOM     22  C   LIG    1       21.840 -20.474   4.587  0.00  0.00    +0.342 C 
ATOM     23  O   LIG    1       21.205 -19.540   4.130  0.00  0.00    -0.245 OA
BRANCH  22  24
ATOM     24  O   LIG    1       21.298 -21.704   4.746  0.00  0.00    -0.477 OA
ATOM     25  H   LIG    1       20.310 -21.707   4.779  0.00  0.00    +0.295 HD
ENDBRANCH  22  24
ENDBRANCH  10  22
TORSDOF 4
ENDMDL
MODEL 3
REMARK VINA RESULT:      -6.5      3.866      7.417
REMARK  Name = *****
REMARK                            x       y       z     vdW  Elec       q    Type
REMARK                         _______ _______ _______ _____ _____    ______ ____
ROOT
ATOM      1  N   LIG    1       29.322 -19.490   6.215  0.00  0.00    -0.346 NA
ATOM      2  C   LIG    1       28.143 -20.235   6.467  0.00  0.00    +0.055 C 
ATOM      3  C   LIG    1       28.144 -21.179   7.514  0.00  0.00    +0.049 C 
ATOM      4  C   LIG    1       27.028 -21.971   7.781  0.00  0.00    +0.054 C 
ATOM      5  C   LIG    1       25.875 -21.815   7.021  0.00  0.00    +0.145 C 
ATOM      6  C   LIG    1       25.784 -20.870   5.983  0.00  0.00    +0.067 C 
ATOM      7  F   LIG    1       24.831 -22.583   7.361  0.00  0.00    -0.203 F 
ATOM      8  C   LIG    1       29.339 -21.334   8.375  0.00  0.00    +0.203 C 
ATOM      9  O   LIG    1       29.364 -22.122   9.318  0.00  0.00    -0.286 OA
ATOM     10  C   LIG    1       30.519 -20.492   8.091  0.00  0.00    +0.122 C 
ATOM     11  C   LIG    1       26.942 -20.091   5.734  0.00  0.00    +0.052 C 
ATOM     12  C   LIG    1       30.423 -19.654   7.049  0.00  0.00    +0.105 C 
ENDROOT
BRANCH   6  13
ATOM     13  N   LIG    1       24.636 -20.662   5.174  0.00  0.00    -0.325 NA
ATOM     14  C   LIG    1       24.868 -19.677   4.085  0.00  0.00    +0.120 C 
ATOM     15  C   LIG    1       23.603 -19.460   3.214  0.00  0.00    +0.100 C 
ATOM     16  N   LIG    1       22.384 -19.155   3.985  0.00  0.00    -0.313 NA
ATOM     17  H   LIG    1       22.555 -18.307   4.529  0.00  0.00    +0.122 HD
ATOM     18  C   LIG    1       22.166 -20.267   4.930  0.00  0.00    +0.100 C 
ATOM     19  C   LIG    1       23.354 -20.467   5.898  0.00  0.00    +0.120 C 
ENDBRANCH   6  13
BRANCH   1  21
ATOM     20  C   LIG    1       28.622 -17.293   5.323  0.00  0.00    +0.027 C 
ATOM     21  C   LIG    1       29.389 -18.579   5.058  0.00  0.00    +0.118 C 
ENDBRANCH   1  21
BRANCH  10  22
ATOM     22  C   LIG    1       31.766 -20.526   8.886  0.00  0.00    +0.342 C 
ATOM     23  O   LIG    1       32.355 -19.525   9.254  0.00  0.00    -0.245 OA
BRANCH  22  24
ATOM     24  O   LIG    1       32.206 -21.771   9.182  0.00  0.00    -0.477 OA
ATOM     25  H   LIG    1       33.130 -21.953   8.883  0.00  0.00    +0.295 HD
ENDBRANCH  22  24
ENDBRANCH  10  22
TORSDOF 4
ENDMDL
MODEL 4
REMARK VINA RESULT:      -6.2      5.338      7.657
REMARK  Name = *****
REMARK                            x       y       z     vdW  Elec       q    Type
REMARK                         _______ _______ _______ _____ _____    ______ ____
ROOT
ATOM      1  N   LIG    1       25.837 -28.086   7.874  0.00  0.00    -0.346 NA
ATOM      2  C   LIG    1       25.578 -27.052   6.941  0.00  0.00    +0.055 C 
ATOM      3  C   LIG    1       25.011 -27.385   5.694  0.00  0.00    +0.049 C 
ATOM      4  C   LIG    1       24.775 -26.415   4.721  0.00  0.00    +0.054 C 
ATOM      5  C   LIG    1       25.078 -25.085   4.985  0.00  0.00    +0.145 C 
ATOM      6  C   LIG    1       25.613 -24.669   6.218  0.00  0.00    +0.067 C 
ATOM      7  F   LIG    1       24.787 -24.205   4.016  0.00  0.00    -0.203 F 
ATOM      8  C   LIG    1       24.629 -28.784   5.400  0.00  0.00    +0.203 C 
ATOM      9  O   LIG    1       24.100 -29.106   4.338  0.00  0.00    -0.286 OA
ATOM     10  C   LIG    1       24.878 -29.809   6.435  0.00  0.00    +0.122 C 
ATOM     11  C   LIG    1       25.850 -25.685   7.178  0.00  0.00    +0.052 C 
ATOM     12  C   LIG    1       25.457 -29.390   7.569  0.00  0.00    +0.105 C 
ENDROOT
BRANCH   6  13
ATOM     13  N   LIG    1       25.942 -23.328   6.548  0.00  0.00    -0.325 NA
ATOM     14  C   LIG    1       26.118 -23.121   8.010  0.00  0.00    +0.120 C 
ATOM     15  C   LIG    1       26.473 -21.650   8.352  0.00  0.00    +0.100 C 
ATOM     16  N   LIG    1       25.560 -20.655   7.759  0.00  0.00    -0.313 NA
ATOM     17  H   LIG    1       24.615 -20.849   8.094  0.00  0.00    +0.122 HD
ATOM     18  C   LIG    1       25.576 -20.855   6.297  0.00  0.00    +0.100 C 
ATOM     19  C   LIG    1       25.130 -22.275   5.885  0.00  0.00    +0.120 C 
ENDBRANCH   6  13
BRANCH   1  21
ATOM     20  C   LIG    1       26.743 -29.048   9.964  0.00  0.00    +0.027 C 
ATOM     21  C   LIG    1       26.533 -27.787   9.138  0.00  0.00    +0.118 C 
ENDBRANCH   1  21
BRANCH  10  22
ATOM     22  C   LIG    1       24.524 -31.237   6.283  0.00  0.00    +0.342 C 
ATOM     23  O   LIG    1       25.254 -32.150   6.627  0.00  0.00    -0.245 OA
BRANCH  22  24
ATOM     24  O   LIG    1       23.307 -31.456   5.733  0.00  0.00    -0.477 OA
ATOM     25  H   LIG    1       23.005 -30.737   5.126  0.00  0.00    +0.295 HD
ENDBRANCH  22  24
ENDBRANCH  10  22
TORSDOF 4
ENDMDL
MODEL 5
REMARK VINA RESULT:      -5.7     10.684     12.566
REMARK  Name = *****
REMARK                            x       y       z     vdW  Elec       q    Type
REMARK                         _______ _______ _______ _____ _____    ______ ____
ROOT
ATOM      1  N   LIG    1       23.531 -29.911  11.241  0.00  0.00    -0.346 NA
ATOM      2  C   LIG    1       23.226 -28.910  12.195  0.00  0.00    +0.055 C 
ATOM      3  C   LIG    1       24.264 -28.084  12.672  0.00  0.00    +0.049 C 
ATOM      4  C   LIG    1       24.032 -27.111  13.643  0.00  0.00    +0.054 C 
ATOM      5  C   LIG    1       22.748 -26.926  14.140  0.00  0.00    +0.145 C 
ATOM      6  C   LIG    1       21.653 -27.687  13.689  0.00  0.00    +0.067 C 
ATOM      7  F   LIG    1       22.595 -25.947  15.042  0.00  0.00    -0.203 F 
ATOM      8  C   LIG    1       25.634 -28.220  12.126  0.00  0.00    +0.203 C 
ATOM      9  O   LIG    1       26.556 -27.494  12.492  0.00  0.00    -0.286 OA
ATOM     10  C   LIG    1       25.876 -29.250  11.095  0.00  0.00    +0.122 C 
ATOM     11  C   LIG    1       21.931 -28.673  12.710  0.00  0.00    +0.052 C 
ATOM     12  C   LIG    1       24.827 -30.005  10.742  0.00  0.00    +0.105 C 
ENDROOT
BRANCH   6  13
ATOM     13  N   LIG    1       20.320 -27.544  14.156  0.00  0.00    -0.325 NA
ATOM     14  C   LIG    1       19.574 -28.830  14.171  0.00  0.00    +0.120 C 
ATOM     15  C   LIG    1       18.119 -28.655  14.680  0.00  0.00    +0.100 C 
ATOM     16  N   LIG    1       17.365 -27.586  13.999  0.00  0.00    -0.313 NA
ATOM     17  H   LIG    1       17.338 -27.801  13.001  0.00  0.00    +0.122 HD
ATOM     18  C   LIG    1       18.120 -26.330  14.175  0.00  0.00    +0.100 C 
ATOM     19  C   LIG    1       19.548 -26.408  13.591  0.00  0.00    +0.120 C 
ENDBRANCH   6  13
BRANCH   1  21
ATOM     20  C   LIG    1       22.910 -31.597   9.543  0.00  0.00    +0.027 C 
ATOM     21  C   LIG    1       22.493 -30.863  10.808  0.00  0.00    +0.118 C 
ENDBRANCH   1  21
BRANCH  10  22
ATOM     22  C   LIG    1       27.187 -29.477  10.448  0.00  0.00    +0.342 C 
ATOM     23  O   LIG    1       28.104 -30.074  10.983  0.00  0.00    -0.245 OA
BRANCH  22  24
ATOM     24  O   LIG    1       27.289 -28.970   9.197  0.00  0.00    -0.477 OA
ATOM     25  H   LIG    1       27.971 -28.261   9.105  0.00  0.00    +0.295 HD
ENDBRANCH  22  24
ENDBRANCH  10  22
TORSDOF 4
ENDMDL
MODEL 6
REMARK VINA RESULT:      -5.6      3.538      6.751
REMARK  Name = *****
REMARK                            x       y       z     vdW  Elec       q    Type
REMARK                         _______ _______ _______ _____ _____    ______ ____
ROOT
ATOM      1  N   LIG    1       27.770 -21.541   8.026  0.00  0.00    -0.346 NA
ATOM      2  C   LIG    1       27.485 -20.738   6.893  0.00  0.00    +0.055 C 
ATOM      3  C   LIG    1       28.505 -19.923   6.362  0.00  0.00    +0.049 C 
ATOM      4  C   LIG    1       28.271 -19.080   5.276  0.00  0.00    +0.054 C 
ATOM      5  C   LIG    1       27.016 -19.055   4.682  0.00  0.00    +0.145 C 
ATOM      6  C   LIG    1       25.957 -19.865   5.132  0.00  0.00    +0.067 C 
ATOM      7  F   LIG    1       26.878 -18.249   3.619  0.00  0.00    -0.203 F 
ATOM      8  C   LIG    1       29.868 -19.963   6.940  0.00  0.00    +0.203 C 
ATOM      9  O   LIG    1       30.790 -19.293   6.481  0.00  0.00    -0.286 OA
ATOM     10  C   LIG    1       30.113 -20.860   8.088  0.00  0.00    +0.122 C 
ATOM     11  C   LIG    1       26.230 -20.700   6.244  0.00  0.00    +0.052 C 
ATOM     12  C   LIG    1       29.064 -21.562   8.538  0.00  0.00    +0.105 C 
ENDROOT
BRANCH   6  13
ATOM     13  N   LIG    1       24.655 -19.885   4.565  0.00  0.00    -0.325 NA
ATOM     14  C   LIG    1       24.223 -18.553   4.065  0.00  0.00    +0.120 C 
ATOM     15  C   LIG    1       22.799 -18.594   3.453  0.00  0.00    +0.100 C 
ATOM     16  N   LIG    1       21.783 -19.212   4.326  0.00  0.00    -0.313 NA
ATOM     17  H   LIG    1       21.749 -18.683   5.199  0.00  0.00    +0.122 HD
ATOM     18  C   LIG    1       22.241 -20.579   4.639  0.00  0.00    +0.100 C 
ATOM     19  C   LIG    1       23.614 -20.600   5.347  0.00  0.00    +0.120 C 
ENDBRANCH   6  13
BRANCH   1  21
ATOM     20  C   LIG    1       26.069 -23.305   7.703  0.00  0.00    +0.027 C 
ATOM     21  C   LIG    1       26.697 -22.316   8.673  0.00  0.00    +0.118 C 
ENDBRANCH   1  21
BRANCH  10  22
ATOM     22  C   LIG    1       31.429 -21.017   8.745  0.00  0.00    +0.342 C 
ATOM     23  O   LIG    1       31.954 -22.098   8.946  0.00  0.00    -0.245 OA
BRANCH  22  24
ATOM     24  O   LIG    1       32.018 -19.852   9.104  0.00  0.00    -0.477 OA
ATOM     25  H   LIG    1       32.992 -19.923   9.251  0.00  0.00    +0.295 HD
ENDBRANCH  22  24
ENDBRANCH  10  22
TORSDOF 4
ENDMDL
MODEL 7
REMARK VINA RESULT:      -5.6     10.101     12.630
REMARK  Name = *****
REMARK                            x       y       z     vdW  Elec       q    Type
REMARK                         _______ _______ _______ _____ _____    ______ ____
ROOT
ATOM      1  N   LIG    1       25.517 -28.728  13.063  0.00  0.00    -0.346 NA
ATOM      2  C   LIG    1       24.185 -28.249  13.000  0.00  0.00    +0.055 C 
ATOM      3  C   LIG    1       23.921 -26.916  13.374  0.00  0.00    +0.049 C 
ATOM      4  C   LIG    1       22.625 -26.403  13.373  0.00  0.00    +0.054 C 
ATOM      5  C   LIG    1       21.566 -27.208  12.973  0.00  0.00    +0.145 C 
ATOM      6  C   LIG    1       21.752 -28.538  12.552  0.00  0.00    +0.067 C 
ATOM      7  F   LIG    1       20.354 -26.634  12.961  0.00  0.00    -0.203 F 
ATOM      8  C   LIG    1       25.033 -26.016  13.757  0.00  0.00    +0.203 C 
ATOM      9  O   LIG    1       24.845 -24.839  14.055  0.00  0.00    -0.286 OA
ATOM     10  C   LIG    1       26.406 -26.562  13.754  0.00  0.00    +0.122 C 
ATOM     11  C   LIG    1       23.082 -29.027  12.577  0.00  0.00    +0.052 C 
ATOM     12  C   LIG    1       26.539 -27.853  13.418  0.00  0.00    +0.105 C 
ENDROOT
BRANCH   6  13
ATOM     13  N   LIG    1       20.712 -29.408  12.130  0.00  0.00    -0.325 NA
ATOM     14  C   LIG    1       19.995 -30.042  13.268  0.00  0.00    +0.120 C 
ATOM     15  C   LIG    1       18.865 -30.990  12.789  0.00  0.00    +0.100 C 
ATOM     16  N   LIG    1       19.294 -31.982  11.784  0.00  0.00    -0.313 NA
ATOM     17  H   LIG    1       20.043 -32.544  12.191  0.00  0.00    +0.122 HD
ATOM     18  C   LIG    1       19.853 -31.238  10.639  0.00  0.00    +0.100 C 
ATOM     19  C   LIG    1       21.054 -30.350  11.034  0.00  0.00    +0.120 C 
ENDBRANCH   6  13
BRANCH   1  21
ATOM     20  C   LIG    1       26.338 -30.338  11.376  0.00  0.00    +0.027 C 
ATOM     21  C   LIG    1       25.808 -30.147  12.789  0.00  0.00    +0.118 C 
ENDBRANCH   1  21
BRANCH  10  22
ATOM     22  C   LIG    1       27.609 -25.770  14.090  0.00  0.00    +0.342 C 
ATOM     23  O   LIG    1       28.338 -26.024  15.033  0.00  0.00    -0.245 OA
BRANCH  22  24
ATOM     24  O   LIG    1       27.847 -24.732  13.255  0.00  0.00    -0.477 OA
ATOM     25  H   LIG    1       28.805 -24.566  13.082  0.00  0.00    +0.295 HD
ENDBRANCH  22  24
ENDBRANCH  10  22
TORSDOF 4
ENDMDL
MODEL 8
REMARK VINA RESULT:      -5.5      6.769      9.434
REMARK  Name = *****
REMARK                            x       y       z     vdW  Elec       q    Type
REMARK                         _______ _______ _______ _____ _____    ______ ____
ROOT
ATOM      1  N   LIG    1       25.659 -29.761   8.339  0.00  0.00    -0.346 NA
ATOM      2  C   LIG    1       25.476 -28.803   7.312  0.00  0.00    +0.055 C 
ATOM      3  C   LIG    1       25.463 -29.236   5.970  0.00  0.00    +0.049 C 
ATOM      4  C   LIG    1       25.330 -28.334   4.916  0.00  0.00    +0.054 C 
ATOM      5  C   LIG    1       25.181 -26.979   5.184  0.00  0.00    +0.145 C 
ATOM      6  C   LIG    1       25.149 -26.473   6.496  0.00  0.00    +0.067 C 
ATOM      7  F   LIG    1       25.020 -26.177   4.121  0.00  0.00    -0.203 F 
ATOM      8  C   LIG    1       25.568 -30.678   5.652  0.00  0.00    +0.203 C 
ATOM      9  O   LIG    1       25.525 -31.096   4.497  0.00  0.00    -0.286 OA
ATOM     10  C   LIG    1       25.706 -31.632   6.773  0.00  0.00    +0.122 C 
ATOM     11  C   LIG    1       25.298 -27.419   7.541  0.00  0.00    +0.052 C 
ATOM     12  C   LIG    1       25.745 -31.110   8.006  0.00  0.00    +0.105 C 
ENDROOT
BRANCH   6  13
ATOM     13  N   LIG    1       24.998 -25.102   6.833  0.00  0.00    -0.325 NA
ATOM     14  C   LIG    1       23.662 -24.562   6.465  0.00  0.00    +0.120 C 
ATOM     15  C   LIG    1       23.515 -23.064   6.837  0.00  0.00    +0.100 C 
ATOM     16  N   LIG    1       24.612 -22.209   6.345  0.00  0.00    -0.313 NA
ATOM     17  H   LIG    1       24.648 -22.291   5.327  0.00  0.00    +0.122 HD
ATOM     18  C   LIG    1       25.873 -22.747   6.890  0.00  0.00    +0.100 C 
ATOM     19  C   LIG    1       26.128 -24.210   6.466  0.00  0.00    +0.120 C 
ENDBRANCH   6  13
BRANCH   1  21
ATOM     20  C   LIG    1       26.946 -30.039  10.432  0.00  0.00    +0.027 C 
ATOM     21  C   LIG    1       25.792 -29.328   9.742  0.00  0.00    +0.118 C 
ENDBRANCH   1  21
BRANCH  10  22
ATOM     22  C   LIG    1       25.795 -33.099   6.600  0.00  0.00    +0.342 C 
ATOM     23  O   LIG    1       26.425 -33.825   7.349  0.00  0.00    -0.245 OA
BRANCH  22  24
ATOM     24  O   LIG    1       25.109 -33.580   5.537  0.00  0.00    -0.477 OA
ATOM     25  H   LIG    1       25.670 -33.758   4.744  0.00  0.00    +0.295 HD
ENDBRANCH  22  24
ENDBRANCH  10  22
TORSDOF 4
ENDMDL
MODEL 9
REMARK VINA RESULT:      -5.5      2.526      3.607
REMARK  Name = *****
REMARK                            x       y       z     vdW  Elec       q    Type
REMARK                         _______ _______ _______ _____ _____    ______ ____
ROOT
ATOM      1  N   LIG    1       25.452 -20.942   5.682  0.00  0.00    -0.346 NA
ATOM      2  C   LIG    1       26.583 -21.061   6.526  0.00  0.00    +0.055 C 
ATOM      3  C   LIG    1       26.730 -22.224   7.309  0.00  0.00    +0.049 C 
ATOM      4  C   LIG    1       27.800 -22.378   8.189  0.00  0.00    +0.054 C 
ATOM      5  C   LIG    1       28.762 -21.380   8.286  0.00  0.00    +0.145 C 
ATOM      6  C   LIG    1       28.705 -20.207   7.512  0.00  0.00    +0.067 C 
ATOM      7  F   LIG    1       29.781 -21.616   9.124  0.00  0.00    -0.203 F 
ATOM      8  C   LIG    1       25.751 -23.328   7.193  0.00  0.00    +0.203 C 
ATOM      9  O   LIG    1       25.865 -24.371   7.834  0.00  0.00    -0.286 OA
ATOM     10  C   LIG    1       24.619 -23.163   6.256  0.00  0.00    +0.122 C 
ATOM     11  C   LIG    1       27.597 -20.081   6.636  0.00  0.00    +0.052 C 
ATOM     12  C   LIG    1       24.556 -22.002   5.589  0.00  0.00    +0.105 C 
ENDROOT
BRANCH   6  13
ATOM     13  N   LIG    1       29.657 -19.154   7.564  0.00  0.00    -0.325 NA
ATOM     14  C   LIG    1       31.015 -19.585   7.139  0.00  0.00    +0.120 C 
ATOM     15  C   LIG    1       32.042 -18.424   7.205  0.00  0.00    +0.100 C 
ATOM     16  N   LIG    1       32.066 -17.711   8.496  0.00  0.00    -0.313 NA
ATOM     17  H   LIG    1       32.289 -18.387   9.229  0.00  0.00    +0.122 HD
ATOM     18  C   LIG    1       30.704 -17.200   8.746  0.00  0.00    +0.100 C 
ATOM     19  C   LIG    1       29.647 -18.325   8.796  0.00  0.00    +0.120 C 
ENDBRANCH   6  13
BRANCH   1  21
ATOM     20  C   LIG    1       24.670 -19.976   3.544  0.00  0.00    +0.027 C 
ATOM     21  C   LIG    1       25.211 -19.692   4.938  0.00  0.00    +0.118 C 
ENDBRANCH   1  21
BRANCH  10  22
ATOM     22  C   LIG    1       23.584 -24.194   6.024  0.00  0.00    +0.342 C 
ATOM     23  O   LIG    1       22.474 -24.154   6.523  0.00  0.00    -0.245 OA
BRANCH  22  24
ATOM     24  O   LIG    1       23.968 -25.195   5.198  0.00  0.00    -0.477 OA
ATOM     25  H   LIG    1       23.694 -25.068   4.257  0.00  0.00    +0.295 HD
ENDBRANCH  22  24
ENDBRANCH  10  22
TORSDOF 4
ENDMDL
