MODEL 1
REMARK VINA RESULT:      -6.0      0.000      0.000
REMARK  Name = *****
REMARK                            x       y       z     vdW  Elec       q    Type
REMARK                         _______ _______ _______ _____ _____    ______ ____
ROOT
ATOM      1  C   LIG    1       26.849 -28.110  10.388  0.00  0.00    +0.077 C 
ENDROOT
BRANCH   1   6
ATOM      2  C   LIG    1       25.345 -26.720   7.114  0.00  0.00    -0.039 A 
ATOM      3  C   LIG    1       25.070 -27.923   6.443  0.00  0.00    +0.037 A 
ATOM      4  C   LIG    1       25.390 -29.177   7.009  0.00  0.00    +0.128 A 
ATOM      5  C   LIG    1       25.950 -29.249   8.291  0.00  0.00    +0.147 A 
ATOM      6  C   LIG    1       26.224 -28.074   9.002  0.00  0.00    +0.001 A 
ATOM      7  C   LIG    1       25.926 -26.833   8.397  0.00  0.00    +0.011 A 
BRANCH   4   8
ATOM      8  N   LIG    1       25.177 -30.352   6.241  0.00  0.00    -0.146 N 
ATOM      9  N   LIG    1       26.216 -30.982   5.643  0.00  0.00    -0.147 NA
ATOM     10  C   LIG    1       25.604 -31.955   4.926  0.00  0.00    +0.113 A 
ATOM     11  C   LIG    1       24.180 -31.921   5.252  0.00  0.00    +0.113 A 
ATOM     12  C   LIG    1       23.281 -32.883   4.738  0.00  0.00    +0.032 A 
ATOM     13  C   LIG    1       23.867 -33.824   3.876  0.00  0.00    +0.002 A 
ATOM     14  C   LIG    1       25.243 -33.813   3.520  0.00  0.00    +0.002 A 
ATOM     15  C   LIG    1       26.161 -32.874   4.038  0.00  0.00    +0.032 A 
ATOM     16  N   LIG    1       23.940 -30.877   6.045  0.00  0.00    -0.147 NA
ENDBRANCH   4   8
BRANCH   2  17
ATOM     17  C   LIG    1       25.085 -25.308   6.482  0.00  0.00    -0.009 C 
ATOM     18  C   LIG    1       25.513 -25.356   5.003  0.00  0.00    +0.016 C 
ATOM     19  C   LIG    1       23.555 -25.078   6.522  0.00  0.00    +0.016 C 
BRANCH  17  20
ATOM     20  C   LIG    1       25.858 -24.158   7.259  0.00  0.00    +0.017 C 
BRANCH  20  22
ATOM     21  C   LIG    1       26.511 -21.868   8.114  0.00  0.00    +0.011 C 
ATOM     22  C   LIG    1       25.520 -22.624   7.186  0.00  0.00    -0.037 C 
ATOM     23  C   LIG    1       25.729 -22.027   5.785  0.00  0.00    +0.011 C 
ATOM     24  C   LIG    1       24.112 -22.281   7.687  0.00  0.00    +0.011 C 
ENDBRANCH  20  22
ENDBRANCH  17  20
ENDBRANCH   2  17
BRANCH   5  25
ATOM     25  O   LIG    1       26.227 -30.435   8.920  0.00  0.00    -0.504 OA
ATOM     26  H   LIG    1       27.191 -30.603   8.874  0.00  0.00    +0.292 HD
ENDBRANCH   5  25
ENDBRANCH   1   6
BRANCH   1  27
ATOM     27  C   LIG    1       25.909 -28.004  11.580  0.00  0.00    +0.001 A 
ATOM     28  C   LIG    1       25.122 -29.099  11.960  0.00  0.00    +0.147 A 
ATOM     29  C   LIG    1       24.290 -29.022  13.094  0.00  0.00    +0.128 A 
ATOM     30  C   LIG    1       24.297 -27.863  13.885  0.00  0.00    +0.037 A 
ATOM     31  C   LIG    1       25.142 -26.778  13.582  0.00  0.00    -0.039 A 
ATOM     32  C   LIG    1       25.900 -26.863  12.401  0.00  0.00    +0.011 A 
BRANCH  29  33
ATOM     33  N   LIG    1       23.455 -30.108  13.476  0.00  0.00    -0.146 N 
ATOM     34  N   LIG    1       23.718 -30.838  14.597  0.00  0.00    -0.147 NA
ATOM     35  C   LIG    1       22.752 -31.749  14.591  0.00  0.00    +0.113 A 
ATOM     36  C   LIG    1       21.879 -31.515  13.444  0.00  0.00    +0.113 A 
ATOM     37  C   LIG    1       20.757 -32.299  13.175  0.00  0.00    +0.032 A 
ATOM     38  C   LIG    1       20.543 -33.344  14.093  0.00  0.00    +0.002 A 
ATOM     39  C   LIG    1       21.394 -33.586  15.207  0.00  0.00    +0.002 A 
ATOM     40  C   LIG    1       22.519 -32.804  15.499  0.00  0.00    +0.032 A 
ATOM     41  N   LIG    1       22.366 -30.459  12.759  0.00  0.00    -0.147 NA
ENDBRANCH  29  33
BRANCH  31  42
ATOM     42  C   LIG    1       25.247 -25.571  14.529  0.00  0.00    -0.009 C 
ATOM     43  C   LIG    1       23.996 -25.609  15.459  0.00  0.00    +0.016 C 
ATOM     44  C   LIG    1       25.143 -24.207  13.806  0.00  0.00    +0.016 C 
BRANCH  42  45
ATOM     45  C   LIG    1       26.542 -25.624  15.438  0.00  0.00    +0.017 C 
BRANCH  45  46
ATOM     46  C   LIG    1       27.954 -25.094  14.978  0.00  0.00    -0.037 C 
ATOM     47  C   LIG    1       27.943 -24.999  13.429  0.00  0.00    +0.011 C 
ATOM     48  C   LIG    1       29.117 -26.032  15.338  0.00  0.00    +0.011 C 
ATOM     49  C   LIG    1       28.280 -23.686  15.499  0.00  0.00    +0.011 C 
ENDBRANCH  45  46
ENDBRANCH  42  45
ENDBRANCH  31  42
BRANCH  28  50
ATOM     50  O   LIG    1       25.248 -30.238  11.206  0.00  0.00    -0.504 OA
ATOM     51  H   LIG    1       25.552 -30.970  11.788  0.00  0.00    +0.292 HD
ENDBRANCH  28  50
ENDBRANCH   1  27
TORSDOF 12
ENDMDL
MODEL 2
REMARK VINA RESULT:      -5.8      1.971      9.288
REMARK  Name = *****
REMARK                            x       y       z     vdW  Elec       q    Type
REMARK                         _______ _______ _______ _____ _____    ______ ____
ROOT
ATOM      1  C   LIG    1       26.032 -30.840  10.690  0.00  0.00    +0.077 C 
ENDROOT
BRANCH   1   6
ATOM      2  C   LIG    1       23.977 -28.975  13.375  0.00  0.00    -0.039 A 
ATOM      3  C   LIG    1       22.773 -29.695  13.304  0.00  0.00    +0.037 A 
ATOM      4  C   LIG    1       22.596 -30.752  12.383  0.00  0.00    +0.128 A 
ATOM      5  C   LIG    1       23.649 -31.141  11.545  0.00  0.00    +0.147 A 
ATOM      6  C   LIG    1       24.871 -30.460  11.596  0.00  0.00    +0.001 A 
ATOM      7  C   LIG    1       25.010 -29.386  12.502  0.00  0.00    +0.011 A 
BRANCH   4   8
ATOM      8  N   LIG    1       21.324 -31.377  12.292  0.00  0.00    -0.146 N 
ATOM      9  N   LIG    1       20.666 -31.431  11.110  0.00  0.00    -0.147 NA
ATOM     10  C   LIG    1       19.475 -31.977  11.454  0.00  0.00    +0.113 A 
ATOM     11  C   LIG    1       19.544 -32.345  12.867  0.00  0.00    +0.113 A 
ATOM     12  C   LIG    1       18.487 -33.032  13.505  0.00  0.00    +0.032 A 
ATOM     13  C   LIG    1       17.378 -33.284  12.681  0.00  0.00    +0.002 A 
ATOM     14  C   LIG    1       17.297 -32.872  11.324  0.00  0.00    +0.002 A 
ATOM     15  C   LIG    1       18.350 -32.202  10.663  0.00  0.00    +0.032 A 
ATOM     16  N   LIG    1       20.701 -31.916  13.371  0.00  0.00    -0.147 NA
ENDBRANCH   4   8
BRANCH   2  17
ATOM     17  C   LIG    1       24.182 -27.741  14.321  0.00  0.00    -0.009 C 
ATOM     18  C   LIG    1       23.774 -26.470  13.552  0.00  0.00    +0.016 C 
ATOM     19  C   LIG    1       23.194 -27.916  15.499  0.00  0.00    +0.016 C 
BRANCH  17  20
ATOM     20  C   LIG    1       25.679 -27.633  14.841  0.00  0.00    +0.017 C 
BRANCH  20  22
ATOM     21  C   LIG    1       26.588 -25.271  14.854  0.00  0.00    +0.011 C 
ATOM     22  C   LIG    1       26.785 -26.687  14.244  0.00  0.00    -0.037 C 
ATOM     23  C   LIG    1       28.211 -27.109  14.632  0.00  0.00    +0.011 C 
ATOM     24  C   LIG    1       26.692 -26.520  12.723  0.00  0.00    +0.011 C 
ENDBRANCH  20  22
ENDBRANCH  17  20
ENDBRANCH   2  17
BRANCH   5  25
ATOM     25  O   LIG    1       23.560 -32.196  10.674  0.00  0.00    -0.504 OA
ATOM     26  H   LIG    1       23.068 -32.925  11.105  0.00  0.00    +0.292 HD
ENDBRANCH   5  25
ENDBRANCH   1   6
BRANCH   1  27
ATOM     27  C   LIG    1       25.882 -30.547   9.204  0.00  0.00    +0.001 A 
ATOM     28  C   LIG    1       25.800 -29.224   8.749  0.00  0.00    +0.147 A 
ATOM     29  C   LIG    1       25.714 -28.946   7.371  0.00  0.00    +0.128 A 
ATOM     30  C   LIG    1       25.776 -29.997   6.444  0.00  0.00    +0.037 A 
ATOM     31  C   LIG    1       25.949 -31.330   6.864  0.00  0.00    -0.039 A 
ATOM     32  C   LIG    1       25.953 -31.575   8.247  0.00  0.00    +0.011 A 
BRANCH  29  33
ATOM     33  N   LIG    1       25.592 -27.614   6.890  0.00  0.00    -0.146 N 
ATOM     34  N   LIG    1       26.016 -26.553   7.636  0.00  0.00    -0.147 NA
ATOM     35  C   LIG    1       25.712 -25.512   6.870  0.00  0.00    +0.113 A 
ATOM     36  C   LIG    1       25.123 -25.989   5.621  0.00  0.00    +0.113 A 
ATOM     37  C   LIG    1       24.716 -25.131   4.600  0.00  0.00    +0.032 A 
ATOM     38  C   LIG    1       24.907 -23.765   4.878  0.00  0.00    +0.002 A 
ATOM     39  C   LIG    1       25.470 -23.289   6.094  0.00  0.00    +0.002 A 
ATOM     40  C   LIG    1       25.894 -24.136   7.127  0.00  0.00    +0.032 A 
ATOM     41  N   LIG    1       25.065 -27.337   5.679  0.00  0.00    -0.147 NA
ENDBRANCH  29  33
BRANCH  31  42
ATOM     42  C   LIG    1       26.155 -32.459   5.839  0.00  0.00    -0.009 C 
ATOM     43  C   LIG    1       27.522 -33.133   6.168  0.00  0.00    +0.016 C 
ATOM     44  C   LIG    1       26.321 -31.952   4.386  0.00  0.00    +0.016 C 
BRANCH  42  45
ATOM     45  C   LIG    1       25.024 -33.565   5.919  0.00  0.00    +0.017 C 
BRANCH  45  46
ATOM     46  C   LIG    1       23.482 -33.240   5.888  0.00  0.00    -0.037 C 
ATOM     47  C   LIG    1       23.323 -31.698   5.813  0.00  0.00    +0.011 C 
ATOM     48  C   LIG    1       22.729 -33.683   7.153  0.00  0.00    +0.011 C 
ATOM     49  C   LIG    1       22.759 -33.814   4.660  0.00  0.00    +0.011 C 
ENDBRANCH  45  46
ENDBRANCH  42  45
ENDBRANCH  31  42
BRANCH  28  50
ATOM     50  O   LIG    1       25.857 -28.240   9.704  0.00  0.00    -0.504 OA
ATOM     51  H   LIG    1       26.431 -28.549  10.441  0.00  0.00    +0.292 HD
ENDBRANCH  28  50
ENDBRANCH   1  27
TORSDOF 12
ENDMDL
MODEL 3
REMARK VINA RESULT:      -5.0      1.778      5.538
REMARK  Name = *****
REMARK                            x       y       z     vdW  Elec       q    Type
REMARK                         _______ _______ _______ _____ _____    ______ ____
ROOT
ATOM      1  C   LIG    1       26.837 -30.612  10.671  0.00  0.00    +0.077 C 
ENDROOT
BRANCH   1   6
ATOM      2  C   LIG    1       25.108 -31.294   7.286  0.00  0.00    -0.039 A 
ATOM      3  C   LIG    1       25.041 -29.985   6.779  0.00  0.00    +0.037 A 
ATOM      4  C   LIG    1       25.512 -28.879   7.521  0.00  0.00    +0.128 A 
ATOM      5  C   LIG    1       26.110 -29.073   8.773  0.00  0.00    +0.147 A 
ATOM      6  C   LIG    1       26.212 -30.362   9.307  0.00  0.00    +0.001 A 
ATOM      7  C   LIG    1       25.702 -31.447   8.560  0.00  0.00    +0.011 A 
BRANCH   4   8
ATOM      8  N   LIG    1       25.328 -27.572   6.997  0.00  0.00    -0.146 N 
ATOM      9  N   LIG    1       26.353 -26.688   6.975  0.00  0.00    -0.147 NA
ATOM     10  C   LIG    1       25.762 -25.553   6.530  0.00  0.00    +0.113 A 
ATOM     11  C   LIG    1       24.380 -25.878   6.182  0.00  0.00    +0.113 A 
ATOM     12  C   LIG    1       23.523 -24.922   5.591  0.00  0.00    +0.032 A 
ATOM     13  C   LIG    1       24.101 -23.655   5.413  0.00  0.00    +0.002 A 
ATOM     14  C   LIG    1       25.427 -23.334   5.808  0.00  0.00    +0.002 A 
ATOM     15  C   LIG    1       26.306 -24.279   6.381  0.00  0.00    +0.032 A 
ATOM     16  N   LIG    1       24.130 -27.140   6.527  0.00  0.00    -0.147 NA
ENDBRANCH   4   8
BRANCH   2  17
ATOM     17  C   LIG    1       24.517 -32.535   6.532  0.00  0.00    -0.009 C 
ATOM     18  C   LIG    1       23.743 -33.394   7.551  0.00  0.00    +0.016 C 
ATOM     19  C   LIG    1       23.495 -31.987   5.507  0.00  0.00    +0.016 C 
BRANCH  17  20
ATOM     20  C   LIG    1       25.647 -33.389   5.814  0.00  0.00    +0.017 C 
BRANCH  20  22
ATOM     21  C   LIG    1       25.455 -33.319   3.291  0.00  0.00    +0.011 C 
ATOM     22  C   LIG    1       26.390 -32.985   4.488  0.00  0.00    -0.037 C 
ATOM     23  C   LIG    1       26.666 -31.476   4.388  0.00  0.00    +0.011 C 
ATOM     24  C   LIG    1       27.689 -33.763   4.251  0.00  0.00    +0.011 C 
ENDBRANCH  20  22
ENDBRANCH  17  20
ENDBRANCH   2  17
BRANCH   5  25
ATOM     25  O   LIG    1       26.641 -28.049   9.514  0.00  0.00    -0.504 OA
ATOM     26  H   LIG    1       26.381 -28.166  10.451  0.00  0.00    +0.292 HD
ENDBRANCH   5  25
ENDBRANCH   1   6
BRANCH   1  27
ATOM     27  C   LIG    1       26.181 -29.947  11.872  0.00  0.00    +0.001 A 
ATOM     28  C   LIG    1       24.956 -30.421  12.362  0.00  0.00    +0.147 A 
ATOM     29  C   LIG    1       24.371 -29.843  13.504  0.00  0.00    +0.128 A 
ATOM     30  C   LIG    1       25.049 -28.827  14.195  0.00  0.00    +0.037 A 
ATOM     31  C   LIG    1       26.322 -28.389  13.782  0.00  0.00    -0.039 A 
ATOM     32  C   LIG    1       26.838 -28.936  12.595  0.00  0.00    +0.011 A 
BRANCH  29  33
ATOM     33  N   LIG    1       23.111 -30.284  13.995  0.00  0.00    -0.146 N 
ATOM     34  N   LIG    1       22.848 -31.611  14.170  0.00  0.00    -0.147 NA
ATOM     35  C   LIG    1       21.594 -31.609  14.606  0.00  0.00    +0.113 A 
ATOM     36  C   LIG    1       21.127 -30.229  14.720  0.00  0.00    +0.113 A 
ATOM     37  C   LIG    1       19.850 -29.898  15.172  0.00  0.00    +0.032 A 
ATOM     38  C   LIG    1       19.042 -31.004  15.497  0.00  0.00    +0.002 A 
ATOM     39  C   LIG    1       19.484 -32.351  15.379  0.00  0.00    +0.002 A 
ATOM     40  C   LIG    1       20.767 -32.703  14.937  0.00  0.00    +0.032 A 
ATOM     41  N   LIG    1       22.128 -29.418  14.319  0.00  0.00    -0.147 NA
ENDBRANCH  29  33
BRANCH  31  42
ATOM     42  C   LIG    1       27.118 -27.376  14.622  0.00  0.00    -0.009 C 
ATOM     43  C   LIG    1       27.910 -26.476  13.626  0.00  0.00    +0.016 C 
ATOM     44  C   LIG    1       28.214 -28.028  15.500  0.00  0.00    +0.016 C 
BRANCH  42  45
ATOM     45  C   LIG    1       26.182 -26.446  15.497  0.00  0.00    +0.017 C 
BRANCH  45  46
ATOM     46  C   LIG    1       25.315 -25.272  14.901  0.00  0.00    -0.037 C 
ATOM     47  C   LIG    1       23.851 -25.477  15.374  0.00  0.00    +0.011 C 
ATOM     48  C   LIG    1       25.267 -25.254  13.365  0.00  0.00    +0.011 C 
ATOM     49  C   LIG    1       25.742 -23.882  15.395  0.00  0.00    +0.011 C 
ENDBRANCH  45  46
ENDBRANCH  42  45
ENDBRANCH  31  42
BRANCH  28  50
ATOM     50  O   LIG    1       24.403 -31.490  11.702  0.00  0.00    -0.504 OA
ATOM     51  H   LIG    1       23.787 -31.954  12.313  0.00  0.00    +0.292 HD
ENDBRANCH  28  50
ENDBRANCH   1  27
TORSDOF 12
ENDMDL
MODEL 4
REMARK VINA RESULT:      -4.6      1.892      5.597
REMARK  Name = *****
REMARK                            x       y       z     vdW  Elec       q    Type
REMARK                         _______ _______ _______ _____ _____    ______ ____
ROOT
ATOM      1  C   LIG    1       27.188 -29.591  10.190  0.00  0.00    +0.077 C 
ENDROOT
BRANCH   1   6
ATOM      2  C   LIG    1       25.610 -30.144   6.709  0.00  0.00    -0.039 A 
ATOM      3  C   LIG    1       25.306 -28.816   6.366  0.00  0.00    +0.037 A 
ATOM      4  C   LIG    1       25.569 -27.744   7.249  0.00  0.00    +0.128 A 
ATOM      5  C   LIG    1       26.192 -27.983   8.481  0.00  0.00    +0.147 A 
ATOM      6  C   LIG    1       26.527 -29.290   8.854  0.00  0.00    +0.001 A 
ATOM      7  C   LIG    1       26.222 -30.346   7.967  0.00  0.00    +0.011 A 
BRANCH   4   8
ATOM      8  N   LIG    1       25.150 -26.437   6.886  0.00  0.00    -0.146 N 
ATOM      9  N   LIG    1       26.061 -25.472   6.616  0.00  0.00    -0.147 NA
ATOM     10  C   LIG    1       25.290 -24.373   6.438  0.00  0.00    +0.113 A 
ATOM     11  C   LIG    1       23.892 -24.794   6.498  0.00  0.00    +0.113 A 
ATOM     12  C   LIG    1       22.836 -23.888   6.250  0.00  0.00    +0.032 A 
ATOM     13  C   LIG    1       23.249 -22.572   5.987  0.00  0.00    +0.002 A 
ATOM     14  C   LIG    1       24.609 -22.160   5.989  0.00  0.00    +0.002 A 
ATOM     15  C   LIG    1       25.679 -23.053   6.215  0.00  0.00    +0.032 A 
ATOM     16  N   LIG    1       23.840 -26.085   6.822  0.00  0.00    -0.147 NA
ENDBRANCH   4   8
BRANCH   2  17
ATOM     17  C   LIG    1       25.254 -31.367   5.794  0.00  0.00    -0.009 C 
ATOM     18  C   LIG    1       25.280 -30.896   4.327  0.00  0.00    +0.016 C 
ATOM     19  C   LIG    1       26.390 -32.401   5.976  0.00  0.00    +0.016 C 
BRANCH  17  20
ATOM     20  C   LIG    1       23.843 -31.995   6.163  0.00  0.00    +0.017 C 
BRANCH  20  22
ATOM     21  C   LIG    1       23.181 -31.831   8.600  0.00  0.00    +0.011 C 
ATOM     22  C   LIG    1       23.527 -32.828   7.459  0.00  0.00    -0.037 C 
ATOM     23  C   LIG    1       22.292 -33.731   7.309  0.00  0.00    +0.011 C 
ATOM     24  C   LIG    1       24.715 -33.660   7.958  0.00  0.00    +0.011 C 
ENDBRANCH  20  22
ENDBRANCH  17  20
ENDBRANCH   2  17
BRANCH   5  25
ATOM     25  O   LIG    1       26.529 -26.981   9.354  0.00  0.00    -0.504 OA
ATOM     26  H   LIG    1       26.999 -26.276   8.864  0.00  0.00    +0.292 HD
ENDBRANCH   5  25
ENDBRANCH   1   6
BRANCH   1  27
ATOM     27  C   LIG    1       26.475 -29.111  11.445  0.00  0.00    +0.001 A 
ATOM     28  C   LIG    1       25.269 -29.703  11.846  0.00  0.00    +0.147 A 
ATOM     29  C   LIG    1       24.633 -29.297  13.034  0.00  0.00    +0.128 A 
ATOM     30  C   LIG    1       25.242 -28.338  13.857  0.00  0.00    +0.037 A 
ATOM     31  C   LIG    1       26.497 -27.788  13.530  0.00  0.00    -0.039 A 
ATOM     32  C   LIG    1       27.063 -28.161  12.299  0.00  0.00    +0.011 A 
BRANCH  29  33
ATOM     33  N   LIG    1       23.391 -29.858  13.439  0.00  0.00    -0.146 N 
ATOM     34  N   LIG    1       23.147 -31.195  13.315  0.00  0.00    -0.147 NA
ATOM     35  C   LIG    1       21.903 -31.312  13.766  0.00  0.00    +0.113 A 
ATOM     36  C   LIG    1       21.424 -30.002  14.199  0.00  0.00    +0.113 A 
ATOM     37  C   LIG    1       20.154 -29.804  14.740  0.00  0.00    +0.032 A 
ATOM     38  C   LIG    1       19.367 -30.967  14.823  0.00  0.00    +0.002 A 
ATOM     39  C   LIG    1       19.822 -32.245  14.394  0.00  0.00    +0.002 A 
ATOM     40  C   LIG    1       21.097 -32.467  13.857  0.00  0.00    +0.032 A 
ATOM     41  N   LIG    1       22.405 -29.104  13.971  0.00  0.00    -0.147 NA
ENDBRANCH  29  33
BRANCH  31  42
ATOM     42  C   LIG    1       27.222 -26.843  14.504  0.00  0.00    -0.009 C 
ATOM     43  C   LIG    1       27.932 -25.755  13.644  0.00  0.00    +0.016 C 
ATOM     44  C   LIG    1       28.373 -27.525  15.283  0.00  0.00    +0.016 C 
BRANCH  42  45
ATOM     45  C   LIG    1       26.226 -26.118  15.499  0.00  0.00    +0.017 C 
BRANCH  45  46
ATOM     46  C   LIG    1       25.195 -25.014  15.052  0.00  0.00    -0.037 C 
ATOM     47  C   LIG    1       25.176 -24.983  13.500  0.00  0.00    +0.011 C 
ATOM     48  C   LIG    1       25.573 -23.593  15.500  0.00  0.00    +0.011 C 
ATOM     49  C   LIG    1       23.754 -25.303  15.499  0.00  0.00    +0.011 C 
ENDBRANCH  45  46
ENDBRANCH  42  45
ENDBRANCH  31  42
BRANCH  28  50
ATOM     50  O   LIG    1       24.787 -30.712  11.051  0.00  0.00    -0.504 OA
ATOM     51  H   LIG    1       25.378 -30.810  10.271  0.00  0.00    +0.292 HD
ENDBRANCH  28  50
ENDBRANCH   1  27
TORSDOF 12
ENDMDL
MODEL 5
REMARK VINA RESULT:      -4.0      2.006      9.216
REMARK  Name = *****
REMARK                            x       y       z     vdW  Elec       q    Type
REMARK                         _______ _______ _______ _____ _____    ______ ____
ROOT
ATOM      1  C   LIG    1       25.959 -29.935  10.359  0.00  0.00    +0.077 C 
ENDROOT
BRANCH   1   6
ATOM      2  C   LIG    1       23.994 -28.468  13.342  0.00  0.00    -0.039 A 
ATOM      3  C   LIG    1       22.942 -29.395  13.419  0.00  0.00    +0.037 A 
ATOM      4  C   LIG    1       22.832 -30.469  12.507  0.00  0.00    +0.128 A 
ATOM      5  C   LIG    1       23.812 -30.661  11.525  0.00  0.00    +0.147 A 
ATOM      6  C   LIG    1       24.886 -29.770  11.424  0.00  0.00    +0.001 A 
ATOM      7  C   LIG    1       24.953 -28.686  12.326  0.00  0.00    +0.011 A 
BRANCH   4   8
ATOM      8  N   LIG    1       21.694 -31.315  12.576  0.00  0.00    -0.146 N 
ATOM      9  N   LIG    1       21.001 -31.631  11.456  0.00  0.00    -0.147 NA
ATOM     10  C   LIG    1       19.949 -32.332  11.942  0.00  0.00    +0.113 A 
ATOM     11  C   LIG    1       20.151 -32.502  13.379  0.00  0.00    +0.113 A 
ATOM     12  C   LIG    1       19.269 -33.280  14.163  0.00  0.00    +0.032 A 
ATOM     13  C   LIG    1       18.188 -33.825  13.453  0.00  0.00    +0.002 A 
ATOM     14  C   LIG    1       17.968 -33.606  12.066  0.00  0.00    +0.002 A 
ATOM     15  C   LIG    1       18.848 -32.849  11.261  0.00  0.00    +0.032 A 
ATOM     16  N   LIG    1       21.232 -31.816  13.750  0.00  0.00    -0.147 NA
ENDBRANCH   4   8
BRANCH   2  17
ATOM     17  C   LIG    1       24.102 -27.215  14.280  0.00  0.00    -0.009 C 
ATOM     18  C   LIG    1       23.604 -25.984  13.498  0.00  0.00    +0.016 C 
ATOM     19  C   LIG    1       23.124 -27.454  15.454  0.00  0.00    +0.016 C 
BRANCH  17  20
ATOM     20  C   LIG    1       25.585 -26.992  14.805  0.00  0.00    +0.017 C 
BRANCH  20  22
ATOM     21  C   LIG    1       25.841 -24.500  14.451  0.00  0.00    +0.011 C 
ATOM     22  C   LIG    1       26.567 -25.867  14.311  0.00  0.00    -0.037 C 
ATOM     23  C   LIG    1       27.834 -25.754  15.173  0.00  0.00    +0.011 C 
ATOM     24  C   LIG    1       26.958 -26.000  12.835  0.00  0.00    +0.011 C 
ENDBRANCH  20  22
ENDBRANCH  17  20
ENDBRANCH   2  17
BRANCH   5  25
ATOM     25  O   LIG    1       23.795 -31.717  10.649  0.00  0.00    -0.504 OA
ATOM     26  H   LIG    1       23.376 -31.430   9.812  0.00  0.00    +0.292 HD
ENDBRANCH   5  25
ENDBRANCH   1   6
BRANCH   1  27
ATOM     27  C   LIG    1       25.627 -29.457   8.953  0.00  0.00    +0.001 A 
ATOM     28  C   LIG    1       25.664 -28.091   8.642  0.00  0.00    +0.147 A 
ATOM     29  C   LIG    1       25.409 -27.649   7.330  0.00  0.00    +0.128 A 
ATOM     30  C   LIG    1       25.177 -28.587   6.313  0.00  0.00    +0.037 A 
ATOM     31  C   LIG    1       25.220 -29.970   6.572  0.00  0.00    -0.039 A 
ATOM     32  C   LIG    1       25.402 -30.369   7.907  0.00  0.00    +0.011 A 
BRANCH  29  33
ATOM     33  N   LIG    1       25.405 -26.265   7.001  0.00  0.00    -0.146 N 
ATOM     34  N   LIG    1       24.635 -25.786   5.982  0.00  0.00    -0.147 NA
ATOM     35  C   LIG    1       24.925 -24.489   5.977  0.00  0.00    +0.113 A 
ATOM     36  C   LIG    1       25.869 -24.204   7.055  0.00  0.00    +0.113 A 
ATOM     37  C   LIG    1       26.350 -22.922   7.319  0.00  0.00    +0.032 A 
ATOM     38  C   LIG    1       25.861 -21.927   6.453  0.00  0.00    +0.002 A 
ATOM     39  C   LIG    1       24.949 -22.196   5.395  0.00  0.00    +0.002 A 
ATOM     40  C   LIG    1       24.447 -23.475   5.120  0.00  0.00    +0.032 A 
ATOM     41  N   LIG    1       26.148 -25.367   7.681  0.00  0.00    -0.147 NA
ENDBRANCH  29  33
BRANCH  31  42
ATOM     42  C   LIG    1       25.104 -30.991   5.428  0.00  0.00    -0.009 C 
ATOM     43  C   LIG    1       24.795 -30.189   4.127  0.00  0.00    +0.016 C 
ATOM     44  C   LIG    1       23.899 -31.952   5.577  0.00  0.00    +0.016 C 
BRANCH  42  45
ATOM     45  C   LIG    1       26.443 -31.805   5.203  0.00  0.00    +0.017 C 
BRANCH  45  46
ATOM     46  C   LIG    1       26.974 -32.904   6.201  0.00  0.00    -0.037 C 
ATOM     47  C   LIG    1       27.950 -33.823   5.418  0.00  0.00    +0.011 C 
ATOM     48  C   LIG    1       25.875 -33.825   6.753  0.00  0.00    +0.011 C 
ATOM     49  C   LIG    1       27.771 -32.328   7.381  0.00  0.00    +0.011 C 
ENDBRANCH  45  46
ENDBRANCH  42  45
ENDBRANCH  31  42
BRANCH  28  50
ATOM     50  O   LIG    1       26.007 -27.238   9.661  0.00  0.00    -0.504 OA
ATOM     51  H   LIG    1       25.349 -26.507   9.695  0.00  0.00    +0.292 HD
ENDBRANCH  28  50
ENDBRANCH   1  27
TORSDOF 12
ENDMDL
MODEL 6
REMARK VINA RESULT:      -3.7      3.709     10.172
REMARK  Name = *****
REMARK                            x       y       z     vdW  Elec       q    Type
REMARK                         _______ _______ _______ _____ _____    ______ ____
ROOT
ATOM      1  C   LIG    1       25.606 -26.175   5.526  0.00  0.00    +0.077 C 
ENDROOT
BRANCH   1   6
ATOM      2  C   LIG    1       25.384 -29.813   6.805  0.00  0.00    -0.039 A 
ATOM      3  C   LIG    1       25.785 -29.627   8.138  0.00  0.00    +0.037 A 
ATOM      4  C   LIG    1       26.158 -28.355   8.628  0.00  0.00    +0.128 A 
ATOM      5  C   LIG    1       26.088 -27.230   7.796  0.00  0.00    +0.147 A 
ATOM      6  C   LIG    1       25.678 -27.369   6.466  0.00  0.00    +0.001 A 
ATOM      7  C   LIG    1       25.343 -28.657   5.992  0.00  0.00    +0.011 A 
BRANCH   4   8
ATOM      8  N   LIG    1       26.647 -28.248   9.957  0.00  0.00    -0.146 N 
ATOM      9  N   LIG    1       27.560 -29.129  10.429  0.00  0.00    -0.147 NA
ATOM     10  C   LIG    1       27.673 -28.777  11.732  0.00  0.00    +0.113 A 
ATOM     11  C   LIG    1       26.872 -27.573  11.939  0.00  0.00    +0.113 A 
ATOM     12  C   LIG    1       26.861 -26.897  13.181  0.00  0.00    +0.032 A 
ATOM     13  C   LIG    1       27.642 -27.501  14.178  0.00  0.00    +0.002 A 
ATOM     14  C   LIG    1       28.372 -28.705  13.983  0.00  0.00    +0.002 A 
ATOM     15  C   LIG    1       28.412 -29.385  12.746  0.00  0.00    +0.032 A 
ATOM     16  N   LIG    1       26.208 -27.294  10.818  0.00  0.00    -0.147 NA
ENDBRANCH   4   8
BRANCH   2  17
ATOM     17  C   LIG    1       25.047 -31.220   6.201  0.00  0.00    -0.009 C 
ATOM     18  C   LIG    1       25.513 -32.298   7.198  0.00  0.00    +0.016 C 
ATOM     19  C   LIG    1       23.505 -31.304   6.105  0.00  0.00    +0.016 C 
BRANCH  17  20
ATOM     20  C   LIG    1       25.721 -31.434   4.778  0.00  0.00    +0.017 C 
BRANCH  20  22
ATOM     21  C   LIG    1       26.192 -32.571   2.567  0.00  0.00    +0.011 C 
ATOM     22  C   LIG    1       25.960 -32.825   4.083  0.00  0.00    -0.037 C 
ATOM     23  C   LIG    1       27.227 -33.537   4.583  0.00  0.00    +0.011 C 
ATOM     24  C   LIG    1       24.761 -33.774   4.185  0.00  0.00    +0.011 C 
ENDBRANCH  20  22
ENDBRANCH  17  20
ENDBRANCH   2  17
BRANCH   5  25
ATOM     25  O   LIG    1       26.378 -25.962   8.229  0.00  0.00    -0.504 OA
ATOM     26  H   LIG    1       25.950 -25.315   7.630  0.00  0.00    +0.292 HD
ENDBRANCH   5  25
ENDBRANCH   1   6
BRANCH   1  27
ATOM     27  C   LIG    1       25.506 -24.795   6.157  0.00  0.00    +0.001 A 
ATOM     28  C   LIG    1       26.663 -24.046   6.408  0.00  0.00    +0.147 A 
ATOM     29  C   LIG    1       26.573 -22.747   6.944  0.00  0.00    +0.128 A 
ATOM     30  C   LIG    1       25.312 -22.174   7.170  0.00  0.00    +0.037 A 
ATOM     31  C   LIG    1       24.128 -22.865   6.845  0.00  0.00    -0.039 A 
ATOM     32  C   LIG    1       24.259 -24.186   6.385  0.00  0.00    +0.011 A 
BRANCH  29  33
ATOM     33  N   LIG    1       27.735 -21.984   7.241  0.00  0.00    -0.146 N 
ATOM     34  N   LIG    1       28.111 -20.937   6.452  0.00  0.00    -0.147 NA
ATOM     35  C   LIG    1       29.228 -20.514   7.034  0.00  0.00    +0.113 A 
ATOM     36  C   LIG    1       29.488 -21.324   8.221  0.00  0.00    +0.113 A 
ATOM     37  C   LIG    1       30.583 -21.110   9.057  0.00  0.00    +0.032 A 
ATOM     38  C   LIG    1       31.426 -20.058   8.656  0.00  0.00    +0.002 A 
ATOM     39  C   LIG    1       31.187 -19.270   7.496  0.00  0.00    +0.002 A 
ATOM     40  C   LIG    1       30.087 -19.463   6.649  0.00  0.00    +0.032 A 
ATOM     41  N   LIG    1       28.511 -22.251   8.313  0.00  0.00    -0.147 NA
ENDBRANCH  29  33
BRANCH  31  42
ATOM     42  C   LIG    1       22.757 -22.179   6.964  0.00  0.00    -0.009 C 
ATOM     43  C   LIG    1       22.405 -22.117   8.482  0.00  0.00    +0.016 C 
ATOM     44  C   LIG    1       21.601 -22.997   6.339  0.00  0.00    +0.016 C 
BRANCH  42  45
ATOM     45  C   LIG    1       22.767 -20.701   6.396  0.00  0.00    +0.017 C 
BRANCH  45  46
ATOM     46  C   LIG    1       22.554 -20.349   4.874  0.00  0.00    -0.037 C 
ATOM     47  C   LIG    1       22.476 -18.804   4.751  0.00  0.00    +0.011 C 
ATOM     48  C   LIG    1       21.238 -20.888   4.291  0.00  0.00    +0.011 C 
ATOM     49  C   LIG    1       23.712 -20.801   3.972  0.00  0.00    +0.011 C 
ENDBRANCH  45  46
ENDBRANCH  42  45
ENDBRANCH  31  42
BRANCH  28  50
ATOM     50  O   LIG    1       27.858 -24.625   6.060  0.00  0.00    -0.504 OA
ATOM     51  H   LIG    1       28.302 -24.946   6.877  0.00  0.00    +0.292 HD
ENDBRANCH  28  50
ENDBRANCH   1  27
TORSDOF 12
ENDMDL
MODEL 7
REMARK VINA RESULT:      -3.3      3.796     10.169
REMARK  Name = *****
REMARK                            x       y       z     vdW  Elec       q    Type
REMARK                         _______ _______ _______ _____ _____    ______ ____
ROOT
ATOM      1  C   LIG    1       25.691 -26.124   5.618  0.00  0.00    +0.077 C 
ENDROOT
BRANCH   1   6
ATOM      2  C   LIG    1       25.335 -29.740   6.926  0.00  0.00    -0.039 A 
ATOM      3  C   LIG    1       25.746 -29.559   8.257  0.00  0.00    +0.037 A 
ATOM      4  C   LIG    1       26.169 -28.299   8.736  0.00  0.00    +0.128 A 
ATOM      5  C   LIG    1       26.139 -27.179   7.896  0.00  0.00    +0.147 A 
ATOM      6  C   LIG    1       25.720 -27.312   6.567  0.00  0.00    +0.001 A 
ATOM      7  C   LIG    1       25.335 -28.590   6.104  0.00  0.00    +0.011 A 
BRANCH   4   8
ATOM      8  N   LIG    1       26.665 -28.201  10.063  0.00  0.00    -0.146 N 
ATOM      9  N   LIG    1       27.574 -29.091  10.527  0.00  0.00    -0.147 NA
ATOM     10  C   LIG    1       27.696 -28.744  11.830  0.00  0.00    +0.113 A 
ATOM     11  C   LIG    1       26.905 -27.534  12.046  0.00  0.00    +0.113 A 
ATOM     12  C   LIG    1       26.906 -26.862  13.290  0.00  0.00    +0.032 A 
ATOM     13  C   LIG    1       27.687 -27.477  14.281  0.00  0.00    +0.002 A 
ATOM     14  C   LIG    1       28.406 -28.685  14.078  0.00  0.00    +0.002 A 
ATOM     15  C   LIG    1       28.435 -29.361  12.839  0.00  0.00    +0.032 A 
ATOM     16  N   LIG    1       26.238 -27.246  10.929  0.00  0.00    -0.147 NA
ENDBRANCH   4   8
BRANCH   2  17
ATOM     17  C   LIG    1       24.942 -31.138   6.334  0.00  0.00    -0.009 C 
ATOM     18  C   LIG    1       23.481 -31.063   5.849  0.00  0.00    +0.016 C 
ATOM     19  C   LIG    1       25.839 -31.361   5.092  0.00  0.00    +0.016 C 
BRANCH  17  20
ATOM     20  C   LIG    1       25.129 -32.307   7.393  0.00  0.00    +0.017 C 
BRANCH  20  22
ATOM     21  C   LIG    1       24.660 -33.824   9.363  0.00  0.00    +0.011 C 
ATOM     22  C   LIG    1       23.994 -32.898   8.308  0.00  0.00    -0.037 C 
ATOM     23  C   LIG    1       23.250 -31.821   9.113  0.00  0.00    +0.011 C 
ATOM     24  C   LIG    1       22.983 -33.764   7.548  0.00  0.00    +0.011 C 
ENDBRANCH  20  22
ENDBRANCH  17  20
ENDBRANCH   2  17
BRANCH   5  25
ATOM     25  O   LIG    1       26.478 -25.919   8.317  0.00  0.00    -0.504 OA
ATOM     26  H   LIG    1       27.318 -25.967   8.819  0.00  0.00    +0.292 HD
ENDBRANCH   5  25
ENDBRANCH   1   6
BRANCH   1  27
ATOM     27  C   LIG    1       25.587 -24.739   6.238  0.00  0.00    +0.001 A 
ATOM     28  C   LIG    1       26.741 -23.977   6.469  0.00  0.00    +0.147 A 
ATOM     29  C   LIG    1       26.645 -22.674   6.993  0.00  0.00    +0.128 A 
ATOM     30  C   LIG    1       25.382 -22.110   7.228  0.00  0.00    +0.037 A 
ATOM     31  C   LIG    1       24.201 -22.813   6.923  0.00  0.00    -0.039 A 
ATOM     32  C   LIG    1       24.338 -24.138   6.474  0.00  0.00    +0.011 A 
BRANCH  29  33
ATOM     33  N   LIG    1       27.805 -21.899   7.270  0.00  0.00    -0.146 N 
ATOM     34  N   LIG    1       28.153 -20.845   6.477  0.00  0.00    -0.147 NA
ATOM     35  C   LIG    1       29.277 -20.412   7.037  0.00  0.00    +0.113 A 
ATOM     36  C   LIG    1       29.569 -21.222   8.217  0.00  0.00    +0.113 A 
ATOM     37  C   LIG    1       30.677 -20.998   9.033  0.00  0.00    +0.032 A 
ATOM     38  C   LIG    1       31.500 -19.935   8.618  0.00  0.00    +0.002 A 
ATOM     39  C   LIG    1       31.230 -19.147   7.465  0.00  0.00    +0.002 A 
ATOM     40  C   LIG    1       30.116 -19.350   6.639  0.00  0.00    +0.032 A 
ATOM     41  N   LIG    1       28.604 -22.160   8.326  0.00  0.00    -0.147 NA
ENDBRANCH  29  33
BRANCH  31  42
ATOM     42  C   LIG    1       22.825 -22.137   7.052  0.00  0.00    -0.009 C 
ATOM     43  C   LIG    1       22.514 -22.017   8.574  0.00  0.00    +0.016 C 
ATOM     44  C   LIG    1       21.662 -22.992   6.492  0.00  0.00    +0.016 C 
BRANCH  42  45
ATOM     45  C   LIG    1       22.803 -20.684   6.424  0.00  0.00    +0.017 C 
BRANCH  45  46
ATOM     46  C   LIG    1       22.587 -20.400   4.888  0.00  0.00    -0.037 C 
ATOM     47  C   LIG    1       22.558 -18.860   4.691  0.00  0.00    +0.011 C 
ATOM     48  C   LIG    1       21.248 -20.923   4.343  0.00  0.00    +0.011 C 
ATOM     49  C   LIG    1       23.721 -20.932   4.000  0.00  0.00    +0.011 C 
ENDBRANCH  45  46
ENDBRANCH  42  45
ENDBRANCH  31  42
BRANCH  28  50
ATOM     50  O   LIG    1       27.936 -24.550   6.113  0.00  0.00    -0.504 OA
ATOM     51  H   LIG    1       27.765 -25.237   5.430  0.00  0.00    +0.292 HD
ENDBRANCH  28  50
ENDBRANCH   1  27
TORSDOF 12
ENDMDL
MODEL 8
REMARK VINA RESULT:      -3.2      2.091      5.778
REMARK  Name = *****
REMARK                            x       y       z     vdW  Elec       q    Type
REMARK                         _______ _______ _______ _____ _____    ______ ____
ROOT
ATOM      1  C   LIG    1       26.890 -28.939   9.488  0.00  0.00    +0.077 C 
ENDROOT
BRANCH   1   6
ATOM      2  C   LIG    1       25.339 -29.382   5.979  0.00  0.00    -0.039 A 
ATOM      3  C   LIG    1       24.989 -28.052   5.698  0.00  0.00    +0.037 A 
ATOM      4  C   LIG    1       25.211 -27.014   6.632  0.00  0.00    +0.128 A 
ATOM      5  C   LIG    1       25.841 -27.288   7.853  0.00  0.00    +0.147 A 
ATOM      6  C   LIG    1       26.221 -28.598   8.165  0.00  0.00    +0.001 A 
ATOM      7  C   LIG    1       25.956 -29.622   7.229  0.00  0.00    +0.011 A 
BRANCH   4   8
ATOM      8  N   LIG    1       24.747 -25.707   6.329  0.00  0.00    -0.146 N 
ATOM      9  N   LIG    1       25.440 -24.908   5.483  0.00  0.00    -0.147 NA
ATOM     10  C   LIG    1       24.761 -23.739   5.550  0.00  0.00    +0.113 A 
ATOM     11  C   LIG    1       23.576 -23.957   6.378  0.00  0.00    +0.113 A 
ATOM     12  C   LIG    1       22.605 -22.947   6.560  0.00  0.00    +0.032 A 
ATOM     13  C   LIG    1       22.901 -21.734   5.919  0.00  0.00    +0.002 A 
ATOM     14  C   LIG    1       24.085 -21.513   5.163  0.00  0.00    +0.002 A 
ATOM     15  C   LIG    1       25.057 -22.515   4.952  0.00  0.00    +0.032 A 
ATOM     16  N   LIG    1       23.622 -25.189   6.884  0.00  0.00    -0.147 NA
ENDBRANCH   4   8
BRANCH   2  17
ATOM     17  C   LIG    1       25.029 -30.573   5.007  0.00  0.00    -0.009 C 
ATOM     18  C   LIG    1       23.859 -31.384   5.596  0.00  0.00    +0.016 C 
ATOM     19  C   LIG    1       24.545 -29.946   3.678  0.00  0.00    +0.016 C 
BRANCH  17  20
ATOM     20  C   LIG    1       26.300 -31.498   4.775  0.00  0.00    +0.017 C 
BRANCH  20  22
ATOM     21  C   LIG    1       26.367 -33.435   6.402  0.00  0.00    +0.011 C 
ATOM     22  C   LIG    1       26.319 -33.066   4.892  0.00  0.00    -0.037 C 
ATOM     23  C   LIG    1       25.044 -33.726   4.345  0.00  0.00    +0.011 C 
ATOM     24  C   LIG    1       27.551 -33.713   4.249  0.00  0.00    +0.011 C 
ENDBRANCH  20  22
ENDBRANCH  17  20
ENDBRANCH   2  17
BRANCH   5  25
ATOM     25  O   LIG    1       26.139 -26.317   8.774  0.00  0.00    -0.504 OA
ATOM     26  H   LIG    1       25.718 -26.548   9.627  0.00  0.00    +0.292 HD
ENDBRANCH   5  25
ENDBRANCH   1   6
BRANCH   1  27
ATOM     27  C   LIG    1       26.064 -28.760  10.754  0.00  0.00    +0.001 A 
ATOM     28  C   LIG    1       24.918 -29.537  10.967  0.00  0.00    +0.147 A 
ATOM     29  C   LIG    1       24.180 -29.412  12.160  0.00  0.00    +0.128 A 
ATOM     30  C   LIG    1       24.632 -28.549  13.169  0.00  0.00    +0.037 A 
ATOM     31  C   LIG    1       25.828 -27.820  13.025  0.00  0.00    -0.039 A 
ATOM     32  C   LIG    1       26.494 -27.914  11.791  0.00  0.00    +0.011 A 
BRANCH  29  33
ATOM     33  N   LIG    1       22.993 -30.164  12.380  0.00  0.00    -0.146 N 
ATOM     34  N   LIG    1       22.853 -30.950  13.486  0.00  0.00    -0.147 NA
ATOM     35  C   LIG    1       21.651 -31.490  13.315  0.00  0.00    +0.113 A 
ATOM     36  C   LIG    1       21.063 -30.970  12.083  0.00  0.00    +0.113 A 
ATOM     37  C   LIG    1       19.792 -31.337  11.639  0.00  0.00    +0.032 A 
ATOM     38  C   LIG    1       19.129 -32.260  12.469  0.00  0.00    +0.002 A 
ATOM     39  C   LIG    1       19.699 -32.779  13.664  0.00  0.00    +0.002 A 
ATOM     40  C   LIG    1       20.969 -32.415  14.132  0.00  0.00    +0.032 A 
ATOM     41  N   LIG    1       21.955 -30.129  11.519  0.00  0.00    -0.147 NA
ENDBRANCH  29  33
BRANCH  31  42
ATOM     42  C   LIG    1       26.388 -26.985  14.189  0.00  0.00    -0.009 C 
ATOM     43  C   LIG    1       25.744 -27.533  15.498  0.00  0.00    +0.016 C 
ATOM     44  C   LIG    1       25.958 -25.499  14.146  0.00  0.00    +0.016 C 
BRANCH  42  45
ATOM     45  C   LIG    1       27.961 -27.108  14.320  0.00  0.00    +0.017 C 
BRANCH  45  46
ATOM     46  C   LIG    1       28.709 -28.459  14.634  0.00  0.00    -0.037 C 
ATOM     47  C   LIG    1       27.763 -29.334  15.500  0.00  0.00    +0.011 C 
ATOM     48  C   LIG    1       29.994 -28.281  15.457  0.00  0.00    +0.011 C 
ATOM     49  C   LIG    1       29.039 -29.284  13.380  0.00  0.00    +0.011 C 
ENDBRANCH  45  46
ENDBRANCH  42  45
ENDBRANCH  31  42
BRANCH  28  50
ATOM     50  O   LIG    1       24.596 -30.441   9.985  0.00  0.00    -0.504 OA
ATOM     51  H   LIG    1       25.387 -30.994   9.795  0.00  0.00    +0.292 HD
ENDBRANCH  28  50
ENDBRANCH   1  27
TORSDOF 12
ENDMDL
