MODEL 1
REMARK VINA RESULT:      -7.6      0.000      0.000
REMARK  Name = *****
REMARK                            x       y       z     vdW  Elec       q    Type
REMARK                         _______ _______ _______ _____ _____    ______ ____
ROOT
ATOM      1  C   LIG    1       29.516 -20.347   7.372  0.00  0.00    +0.114 A 
ATOM      2  C   LIG    1       28.280 -20.330   6.668  0.00  0.00    +0.046 A 
ATOM      3  C   LIG    1       27.464 -21.167   7.409  0.00  0.00    +0.168 A 
ATOM      4  C   LIG    1       26.144 -21.471   7.085  0.00  0.00    +0.049 A 
ATOM      5  C   LIG    1       25.637 -20.872   5.928  0.00  0.00    +0.004 A 
ATOM      6  C   LIG    1       26.423 -20.012   5.156  0.00  0.00    +0.001 A 
ATOM      7  O   LIG    1       28.152 -21.627   8.486  0.00  0.00    -0.354 OA
ATOM      8  C   LIG    1       27.748 -19.726   5.515  0.00  0.00    +0.013 A 
ATOM      9  N   LIG    1       29.434 -21.105   8.477  0.00  0.00    -0.080 NA
ENDROOT
BRANCH   1  10
ATOM     10  C   LIG    1       30.772 -19.617   7.075  0.00  0.00    +0.244 C 
BRANCH  10  11
ATOM     11  S   LIG    1       31.435 -18.784   8.524  0.00  0.00    +0.033 S 
ATOM     12  O   LIG    1       32.150 -19.705   9.372  0.00  0.00    -0.158 OA
ATOM     13  O   LIG    1       31.973 -17.489   8.166  0.00  0.00    -0.158 OA
BRANCH  11  14
ATOM     14  N   LIG    1       30.034 -18.413   9.384  0.00  0.00    -0.208 NA
ATOM     15  H   LIG    1       29.418 -17.835   8.806  0.00  0.00    +0.144 HD
ATOM     16  H   LIG    1       29.587 -19.279   9.694  0.00  0.00    +0.144 HD
ENDBRANCH  11  14
ENDBRANCH  10  11
ENDBRANCH   1  10
TORSDOF 3
ENDMDL
MODEL 2
REMARK VINA RESULT:      -7.4      2.034      2.607
REMARK  Name = *****
REMARK                            x       y       z     vdW  Elec       q    Type
REMARK                         _______ _______ _______ _____ _____    ______ ____
ROOT
ATOM      1  C   LIG    1       31.315 -19.292   8.342  0.00  0.00    +0.114 A 
ATOM      2  C   LIG    1       30.136 -19.605   7.611  0.00  0.00    +0.046 A 
ATOM      3  C   LIG    1       29.756 -20.840   8.106  0.00  0.00    +0.168 A 
ATOM      4  C   LIG    1       28.646 -21.558   7.668  0.00  0.00    +0.049 A 
ATOM      5  C   LIG    1       27.882 -20.962   6.660  0.00  0.00    +0.004 A 
ATOM      6  C   LIG    1       28.224 -19.711   6.139  0.00  0.00    +0.001 A 
ATOM      7  O   LIG    1       30.628 -21.223   9.076  0.00  0.00    -0.354 OA
ATOM      8  C   LIG    1       29.347 -19.015   6.608  0.00  0.00    +0.013 A 
ATOM      9  N   LIG    1       31.599 -20.250   9.239  0.00  0.00    -0.080 NA
ENDROOT
BRANCH   1  10
ATOM     10  C   LIG    1       32.166 -18.079   8.272  0.00  0.00    +0.244 C 
BRANCH  10  11
ATOM     11  S   LIG    1       31.893 -16.974   9.664  0.00  0.00    +0.033 S 
ATOM     12  O   LIG    1       30.506 -16.587   9.756  0.00  0.00    -0.158 OA
ATOM     13  O   LIG    1       32.649 -17.411  10.818  0.00  0.00    -0.158 OA
BRANCH  11  14
ATOM     14  N   LIG    1       32.692 -15.578   9.164  0.00  0.00    -0.208 NA
ATOM     15  H   LIG    1       32.076 -14.769   9.278  0.00  0.00    +0.144 HD
ATOM     16  H   LIG    1       33.568 -15.484   9.683  0.00  0.00    +0.144 HD
ENDBRANCH  11  14
ENDBRANCH  10  11
ENDBRANCH   1  10
TORSDOF 3
ENDMDL
MODEL 3
REMARK VINA RESULT:      -7.4      2.118      2.683
REMARK  Name = *****
REMARK                            x       y       z     vdW  Elec       q    Type
REMARK                         _______ _______ _______ _____ _____    ______ ____
ROOT
ATOM      1  C   LIG    1       27.235 -21.155   7.523  0.00  0.00    +0.114 A 
ATOM      2  C   LIG    1       26.108 -20.841   6.715  0.00  0.00    +0.046 A 
ATOM      3  C   LIG    1       25.039 -20.914   7.591  0.00  0.00    +0.168 A 
ATOM      4  C   LIG    1       23.711 -20.695   7.235  0.00  0.00    +0.049 A 
ATOM      5  C   LIG    1       23.473 -20.379   5.893  0.00  0.00    +0.004 A 
ATOM      6  C   LIG    1       24.525 -20.284   4.977  0.00  0.00    +0.001 A 
ATOM      7  O   LIG    1       25.497 -21.224   8.833  0.00  0.00    -0.354 OA
ATOM      8  C   LIG    1       25.851 -20.507   5.373  0.00  0.00    +0.013 A 
ATOM      9  N   LIG    1       26.874 -21.361   8.800  0.00  0.00    -0.080 NA
ENDROOT
BRANCH   1  10
ATOM     10  C   LIG    1       28.669 -21.210   7.150  0.00  0.00    +0.244 C 
BRANCH  10  11
ATOM     11  S   LIG    1       29.486 -19.620   7.348  0.00  0.00    +0.033 S 
ATOM     12  O   LIG    1       29.258 -18.772   6.205  0.00  0.00    -0.158 OA
ATOM     13  O   LIG    1       29.343 -19.139   8.706  0.00  0.00    -0.158 OA
BRANCH  11  14
ATOM     14  N   LIG    1       31.112 -20.048   7.243  0.00  0.00    -0.208 NA
ATOM     15  H   LIG    1       31.282 -20.894   7.794  0.00  0.00    +0.144 HD
ATOM     16  H   LIG    1       31.372 -20.159   6.260  0.00  0.00    +0.144 HD
ENDBRANCH  11  14
ENDBRANCH  10  11
ENDBRANCH   1  10
TORSDOF 3
ENDMDL
MODEL 4
REMARK VINA RESULT:      -7.3      5.837      6.548
REMARK  Name = *****
REMARK                            x       y       z     vdW  Elec       q    Type
REMARK                         _______ _______ _______ _____ _____    ______ ____
ROOT
ATOM      1  C   LIG    1       24.664 -22.172   6.679  0.00  0.00    +0.114 A 
ATOM      2  C   LIG    1       24.303 -21.271   5.640  0.00  0.00    +0.046 A 
ATOM      3  C   LIG    1       23.312 -20.488   6.207  0.00  0.00    +0.168 A 
ATOM      4  C   LIG    1       22.640 -19.465   5.544  0.00  0.00    +0.049 A 
ATOM      5  C   LIG    1       23.017 -19.234   4.217  0.00  0.00    +0.004 A 
ATOM      6  C   LIG    1       24.020 -19.994   3.609  0.00  0.00    +0.001 A 
ATOM      7  O   LIG    1       23.115 -20.877   7.494  0.00  0.00    -0.354 OA
ATOM      8  C   LIG    1       24.679 -21.015   4.309  0.00  0.00    +0.013 A 
ATOM      9  N   LIG    1       23.970 -21.921   7.801  0.00  0.00    -0.080 NA
ENDROOT
BRANCH   1  10
ATOM     10  C   LIG    1       25.697 -23.237   6.680  0.00  0.00    +0.244 C 
BRANCH  10  11
ATOM     11  S   LIG    1       25.063 -24.801   6.059  0.00  0.00    +0.033 S 
ATOM     12  O   LIG    1       25.078 -24.832   4.617  0.00  0.00    -0.158 OA
ATOM     13  O   LIG    1       25.554 -25.903   6.859  0.00  0.00    -0.158 OA
BRANCH  11  14
ATOM     14  N   LIG    1       23.431 -24.703   6.467  0.00  0.00    -0.208 NA
ATOM     15  H   LIG    1       22.928 -24.176   5.748  0.00  0.00    +0.144 HD
ATOM     16  H   LIG    1       23.058 -25.646   6.600  0.00  0.00    +0.144 HD
ENDBRANCH  11  14
ENDBRANCH  10  11
ENDBRANCH   1  10
TORSDOF 3
ENDMDL
MODEL 5
REMARK VINA RESULT:      -7.3      2.137      2.722
REMARK  Name = *****
REMARK                            x       y       z     vdW  Elec       q    Type
REMARK                         _______ _______ _______ _____ _____    ______ ____
ROOT
ATOM      1  C   LIG    1       30.321 -19.095   7.824  0.00  0.00    +0.114 A 
ATOM      2  C   LIG    1       29.051 -19.633   7.478  0.00  0.00    +0.046 A 
ATOM      3  C   LIG    1       28.897 -19.292   6.145  0.00  0.00    +0.168 A 
ATOM      4  C   LIG    1       27.778 -19.602   5.376  0.00  0.00    +0.049 A 
ATOM      5  C   LIG    1       26.759 -20.309   6.022  0.00  0.00    +0.004 A 
ATOM      6  C   LIG    1       26.878 -20.683   7.364  0.00  0.00    +0.001 A 
ATOM      7  O   LIG    1       30.001 -18.623   5.722  0.00  0.00    -0.354 OA
ATOM      8  C   LIG    1       28.022 -20.357   8.107  0.00  0.00    +0.013 A 
ATOM      9  N   LIG    1       30.904 -18.510   6.766  0.00  0.00    -0.080 NA
ENDROOT
BRANCH   1  10
ATOM     10  C   LIG    1       31.047 -19.164   9.116  0.00  0.00    +0.244 C 
BRANCH  10  11
ATOM     11  S   LIG    1       31.365 -17.534   9.807  0.00  0.00    +0.033 S 
ATOM     12  O   LIG    1       30.177 -16.718   9.781  0.00  0.00    -0.158 OA
ATOM     13  O   LIG    1       32.207 -17.634  10.980  0.00  0.00    -0.158 OA
BRANCH  11  14
ATOM     14  N   LIG    1       32.375 -16.853   8.643  0.00  0.00    -0.208 NA
ATOM     15  H   LIG    1       31.958 -15.989   8.288  0.00  0.00    +0.144 HD
ATOM     16  H   LIG    1       33.305 -16.707   9.045  0.00  0.00    +0.144 HD
ENDBRANCH  11  14
ENDBRANCH  10  11
ENDBRANCH   1  10
TORSDOF 3
ENDMDL
MODEL 6
REMARK VINA RESULT:      -7.2      3.049      4.110
REMARK  Name = *****
REMARK                            x       y       z     vdW  Elec       q    Type
REMARK                         _______ _______ _______ _____ _____    ______ ____
ROOT
ATOM      1  C   LIG    1       25.321 -21.602   6.925  0.00  0.00    +0.114 A 
ATOM      2  C   LIG    1       24.790 -20.819   5.864  0.00  0.00    +0.046 A 
ATOM      3  C   LIG    1       23.500 -20.532   6.276  0.00  0.00    +0.168 A 
ATOM      4  C   LIG    1       22.583 -19.790   5.536  0.00  0.00    +0.049 A 
ATOM      5  C   LIG    1       23.027 -19.313   4.298  0.00  0.00    +0.004 A 
ATOM      6  C   LIG    1       24.325 -19.571   3.849  0.00  0.00    +0.001 A 
ATOM      7  O   LIG    1       23.287 -21.081   7.500  0.00  0.00    -0.354 OA
ATOM      8  C   LIG    1       25.223 -20.319   4.623  0.00  0.00    +0.013 A 
ATOM      9  N   LIG    1       24.430 -21.740   7.920  0.00  0.00    -0.080 NA
ENDROOT
BRANCH   1  10
ATOM     10  C   LIG    1       26.678 -22.184   7.072  0.00  0.00    +0.244 C 
BRANCH  10  11
ATOM     11  S   LIG    1       27.881 -20.974   7.638  0.00  0.00    +0.033 S 
ATOM     12  O   LIG    1       28.936 -21.603   8.393  0.00  0.00    -0.158 OA
ATOM     13  O   LIG    1       28.151 -20.000   6.601  0.00  0.00    -0.158 OA
BRANCH  11  14
ATOM     14  N   LIG    1       26.995 -20.109   8.780  0.00  0.00    -0.208 NA
ATOM     15  H   LIG    1       26.790 -20.708   9.583  0.00  0.00    +0.144 HD
ATOM     16  H   LIG    1       27.510 -19.263   9.040  0.00  0.00    +0.144 HD
ENDBRANCH  11  14
ENDBRANCH  10  11
ENDBRANCH   1  10
TORSDOF 3
ENDMDL
MODEL 7
REMARK VINA RESULT:      -7.2      1.813      2.450
REMARK  Name = *****
REMARK                            x       y       z     vdW  Elec       q    Type
REMARK                         _______ _______ _______ _____ _____    ______ ____
ROOT
ATOM      1  C   LIG    1       28.748 -20.786   7.256  0.00  0.00    +0.114 A 
ATOM      2  C   LIG    1       27.356 -21.018   7.427  0.00  0.00    +0.046 A 
ATOM      3  C   LIG    1       26.784 -20.459   6.297  0.00  0.00    +0.168 A 
ATOM      4  C   LIG    1       25.416 -20.435   6.036  0.00  0.00    +0.049 A 
ATOM      5  C   LIG    1       24.591 -21.025   6.998  0.00  0.00    +0.004 A 
ATOM      6  C   LIG    1       25.128 -21.610   8.148  0.00  0.00    +0.001 A 
ATOM      7  O   LIG    1       27.763 -19.955   5.501  0.00  0.00    -0.354 OA
ATOM      8  C   LIG    1       26.511 -21.620   8.377  0.00  0.00    +0.013 A 
ATOM      9  N   LIG    1       28.997 -20.171   6.089  0.00  0.00    -0.080 NA
ENDROOT
BRANCH   1  10
ATOM     10  C   LIG    1       29.878 -21.182   8.131  0.00  0.00    +0.244 C 
BRANCH  10  11
ATOM     11  S   LIG    1       30.938 -19.791   8.548  0.00  0.00    +0.033 S 
ATOM     12  O   LIG    1       30.157 -18.618   8.857  0.00  0.00    -0.158 OA
ATOM     13  O   LIG    1       32.043 -20.222   9.378  0.00  0.00    -0.158 OA
BRANCH  11  14
ATOM     14  N   LIG    1       31.659 -19.444   7.066  0.00  0.00    -0.208 NA
ATOM     15  H   LIG    1       32.450 -20.075   6.912  0.00  0.00    +0.144 HD
ATOM     16  H   LIG    1       30.957 -19.503   6.324  0.00  0.00    +0.144 HD
ENDBRANCH  11  14
ENDBRANCH  10  11
ENDBRANCH   1  10
TORSDOF 3
ENDMDL
MODEL 8
REMARK VINA RESULT:      -7.0      5.024      6.421
REMARK  Name = *****
REMARK                            x       y       z     vdW  Elec       q    Type
REMARK                         _______ _______ _______ _____ _____    ______ ____
ROOT
ATOM      1  C   LIG    1       24.931 -21.404   6.256  0.00  0.00    +0.114 A 
ATOM      2  C   LIG    1       24.059 -20.540   5.538  0.00  0.00    +0.046 A 
ATOM      3  C   LIG    1       24.905 -19.836   4.699  0.00  0.00    +0.168 A 
ATOM      4  C   LIG    1       24.491 -18.850   3.808  0.00  0.00    +0.049 A 
ATOM      5  C   LIG    1       23.119 -18.577   3.780  0.00  0.00    +0.004 A 
ATOM      6  C   LIG    1       22.228 -19.273   4.602  0.00  0.00    +0.001 A 
ATOM      7  O   LIG    1       26.181 -20.265   4.885  0.00  0.00    -0.354 OA
ATOM      8  C   LIG    1       22.682 -20.263   5.485  0.00  0.00    +0.013 A 
ATOM      9  N   LIG    1       26.202 -21.259   5.849  0.00  0.00    -0.080 NA
ENDROOT
BRANCH   1  10
ATOM     10  C   LIG    1       24.603 -22.423   7.283  0.00  0.00    +0.244 C 
BRANCH  10  11
ATOM     11  S   LIG    1       24.597 -24.091   6.612  0.00  0.00    +0.033 S 
ATOM     12  O   LIG    1       25.761 -24.827   7.039  0.00  0.00    -0.158 OA
ATOM     13  O   LIG    1       23.266 -24.656   6.664  0.00  0.00    -0.158 OA
BRANCH  11  14
ATOM     14  N   LIG    1       24.851 -23.807   4.971  0.00  0.00    -0.208 NA
ATOM     15  H   LIG    1       25.849 -23.879   4.759  0.00  0.00    +0.144 HD
ATOM     16  H   LIG    1       24.283 -24.457   4.422  0.00  0.00    +0.144 HD
ENDBRANCH  11  14
ENDBRANCH  10  11
ENDBRANCH   1  10
TORSDOF 3
ENDMDL
MODEL 9
REMARK VINA RESULT:      -6.9      4.524      6.128
REMARK  Name = *****
REMARK                            x       y       z     vdW  Elec       q    Type
REMARK                         _______ _______ _______ _____ _____    ______ ____
ROOT
ATOM      1  C   LIG    1       25.370 -21.445   6.441  0.00  0.00    +0.114 A 
ATOM      2  C   LIG    1       26.725 -21.165   6.768  0.00  0.00    +0.046 A 
ATOM      3  C   LIG    1       27.108 -20.228   5.824  0.00  0.00    +0.168 A 
ATOM      4  C   LIG    1       28.380 -19.665   5.742  0.00  0.00    +0.049 A 
ATOM      5  C   LIG    1       29.310 -20.096   6.693  0.00  0.00    +0.004 A 
ATOM      6  C   LIG    1       28.962 -21.033   7.670  0.00  0.00    +0.001 A 
ATOM      7  O   LIG    1       26.054 -19.950   5.013  0.00  0.00    -0.354 OA
ATOM      8  C   LIG    1       27.670 -21.575   7.725  0.00  0.00    +0.013 A 
ATOM      9  N   LIG    1       24.957 -20.699   5.404  0.00  0.00    -0.080 NA
ENDROOT
BRANCH   1  10
ATOM     10  C   LIG    1       24.412 -22.355   7.116  0.00  0.00    +0.244 C 
BRANCH  10  11
ATOM     11  S   LIG    1       24.573 -24.054   6.550  0.00  0.00    +0.033 S 
ATOM     12  O   LIG    1       25.787 -24.654   7.044  0.00  0.00    -0.158 OA
ATOM     13  O   LIG    1       23.296 -24.734   6.611  0.00  0.00    -0.158 OA
BRANCH  11  14
ATOM     14  N   LIG    1       24.839 -23.848   4.899  0.00  0.00    -0.208 NA
ATOM     15  H   LIG    1       25.027 -24.756   4.465  0.00  0.00    +0.144 HD
ATOM     16  H   LIG    1       24.037 -23.370   4.482  0.00  0.00    +0.144 HD
ENDBRANCH  11  14
ENDBRANCH  10  11
ENDBRANCH   1  10
TORSDOF 3
ENDMDL
