MODEL 1
REMARK VINA RESULT:      -4.3      0.000      0.000
REMARK  Name = *****
REMARK                            x       y       z     vdW  Elec       q    Type
REMARK                         _______ _______ _______ _____ _____    ______ ____
ROOT
ATOM      1  C   LIG    1       21.995 -18.593   3.990  0.00  0.00    +0.144 C 
ENDROOT
BRANCH   1   2
ATOM      2  C   LIG    1       23.473 -19.131   3.928  0.00  0.00    -0.019 A 
ATOM      3  C   LIG    1       23.747 -20.395   4.515  0.00  0.00    +0.008 A 
ATOM      4  C   LIG    1       25.010 -20.842   4.807  0.00  0.00    +0.025 A 
ATOM      5  C   LIG    1       26.069 -20.043   4.454  0.00  0.00    +0.048 A 
ATOM      6  C   LIG    1       25.879 -18.852   3.747  0.00  0.00    +0.025 A 
ATOM      7  C   LIG    1       24.580 -18.379   3.496  0.00  0.00    +0.008 A 
BRANCH   5   8
ATOM      8  N   LIG    1       27.345 -20.504   4.802  0.00  0.00    -0.221 N 
ATOM      9  H   LIG    1       27.484 -21.514   4.686  0.00  0.00    +0.173 HD
BRANCH   8  10
ATOM     10  S   LIG    1       27.969 -20.005   6.279  0.00  0.00    +0.040 S 
ATOM     11  O   LIG    1       26.856 -19.665   7.062  0.00  0.00    -0.155 OA
ATOM     12  O   LIG    1       29.065 -19.032   6.035  0.00  0.00    -0.155 OA
ATOM     13  C   LIG    1       28.694 -21.510   6.906  0.00  0.00    +0.218 C 
ENDBRANCH   8  10
ENDBRANCH   5   8
ENDBRANCH   1   2
BRANCH   1  14
ATOM     14  O   LIG    1       21.133 -19.588   4.519  0.00  0.00    -0.387 OA
ATOM     15  H   LIG    1       21.253 -19.593   5.486  0.00  0.00    +0.210 HD
ENDBRANCH   1  14
BRANCH   1  16
ATOM     16  C   LIG    1       22.037 -17.185   4.745  0.00  0.00    +0.037 C 
BRANCH  16  17
ATOM     17  C   LIG    1       22.855 -15.835   5.042  0.00  0.00    +0.018 C 
BRANCH  17  18
ATOM     18  C   LIG    1       23.514 -14.604   4.079  0.00  0.00    +0.084 C 
BRANCH  18  19
ATOM     19  N   LIG    1       23.852 -13.140   4.403  0.00  0.00    -0.303 NA
BRANCH  19  20
ATOM     20  C   LIG    1       23.695 -12.177   3.203  0.00  0.00    +0.081 C 
ATOM     21  C   LIG    1       24.882 -12.138   2.159  0.00  0.00    +0.020 C 
ENDBRANCH  19  20
BRANCH  19  22
ATOM     22  C   LIG    1       25.258 -12.929   4.692  0.00  0.00    +0.084 C 
BRANCH  22  23
ATOM     23  C   LIG    1       26.000 -13.730   5.674  0.00  0.00    +0.015 C 
BRANCH  23  24
ATOM     24  C   LIG    1       27.378 -13.087   5.884  0.00  0.00    +0.001 C 
BRANCH  24  25
ATOM     25  C   LIG    1       28.356 -12.610   4.692  0.00  0.00    +0.000 C 
BRANCH  25  26
ATOM     26  C   LIG    1       28.249 -13.018   3.143  0.00  0.00    -0.000 C 
BRANCH  26  28
ATOM     27  C   LIG    1       26.897 -15.457   3.392  0.00  0.00    +0.004 C 
ATOM     28  C   LIG    1       27.627 -14.371   2.576  0.00  0.00    -0.003 C 
ENDBRANCH  26  28
ENDBRANCH  25  26
ENDBRANCH  24  25
ENDBRANCH  23  24
ENDBRANCH  22  23
ENDBRANCH  19  22
ENDBRANCH  18  19
ENDBRANCH  17  18
ENDBRANCH  16  17
ENDBRANCH   1  16
TORSDOF 15
ENDMDL
MODEL 2
REMARK VINA RESULT:      -3.8      2.784      6.324
REMARK  Name = *****
REMARK                            x       y       z     vdW  Elec       q    Type
REMARK                         _______ _______ _______ _____ _____    ______ ____
ROOT
ATOM      1  C   LIG    1       27.834 -20.113   6.043  0.00  0.00    +0.144 C 
ENDROOT
BRANCH   1   2
ATOM      2  C   LIG    1       27.614 -18.953   5.002  0.00  0.00    -0.019 A 
ATOM      3  C   LIG    1       28.534 -17.871   5.007  0.00  0.00    +0.008 A 
ATOM      4  C   LIG    1       28.301 -16.670   4.388  0.00  0.00    +0.025 A 
ATOM      5  C   LIG    1       27.135 -16.532   3.676  0.00  0.00    +0.048 A 
ATOM      6  C   LIG    1       26.250 -17.602   3.514  0.00  0.00    +0.025 A 
ATOM      7  C   LIG    1       26.474 -18.813   4.191  0.00  0.00    +0.008 A 
BRANCH   5   8
ATOM      8  N   LIG    1       26.902 -15.281   3.091  0.00  0.00    -0.221 N 
ATOM      9  H   LIG    1       27.156 -15.216   2.099  0.00  0.00    +0.173 HD
BRANCH   8  10
ATOM     10  S   LIG    1       27.460 -13.928   3.916  0.00  0.00    +0.040 S 
ATOM     11  O   LIG    1       28.858 -13.975   3.811  0.00  0.00    -0.155 OA
ATOM     12  O   LIG    1       26.787 -13.859   5.238  0.00  0.00    -0.155 OA
ATOM     13  C   LIG    1       26.837 -12.595   2.908  0.00  0.00    +0.218 C 
ENDBRANCH   8  10
ENDBRANCH   5   8
ENDBRANCH   1   2
BRANCH   1  14
ATOM     14  O   LIG    1       29.028 -19.892   6.778  0.00  0.00    -0.387 OA
ATOM     15  H   LIG    1       28.782 -19.427   7.599  0.00  0.00    +0.210 HD
ENDBRANCH   1  14
BRANCH   1  16
ATOM     16  C   LIG    1       26.479 -20.265   6.876  0.00  0.00    +0.037 C 
BRANCH  16  17
ATOM     17  C   LIG    1       25.087 -21.044   7.062  0.00  0.00    +0.018 C 
BRANCH  17  18
ATOM     18  C   LIG    1       23.551 -20.927   6.351  0.00  0.00    +0.084 C 
BRANCH  18  19
ATOM     19  N   LIG    1       23.105 -21.055   4.886  0.00  0.00    -0.303 NA
BRANCH  19  20
ATOM     20  C   LIG    1       24.239 -21.462   3.915  0.00  0.00    +0.081 C 
ATOM     21  C   LIG    1       24.342 -20.653   2.560  0.00  0.00    +0.020 C 
ENDBRANCH  19  20
BRANCH  19  22
ATOM     22  C   LIG    1       22.728 -19.788   4.289  0.00  0.00    +0.084 C 
BRANCH  22  23
ATOM     23  C   LIG    1       22.248 -18.646   5.079  0.00  0.00    +0.015 C 
BRANCH  23  24
ATOM     24  C   LIG    1       22.395 -17.374   4.232  0.00  0.00    +0.001 C 
BRANCH  24  25
ATOM     25  C   LIG    1       22.625 -15.895   4.835  0.00  0.00    +0.000 C 
BRANCH  25  26
ATOM     26  C   LIG    1       23.764 -14.850   4.400  0.00  0.00    -0.000 C 
BRANCH  26  28
ATOM     27  C   LIG    1       23.711 -12.166   3.604  0.00  0.00    +0.004 C 
ATOM     28  C   LIG    1       23.596 -13.680   3.332  0.00  0.00    -0.003 C 
ENDBRANCH  26  28
ENDBRANCH  25  26
ENDBRANCH  24  25
ENDBRANCH  23  24
ENDBRANCH  22  23
ENDBRANCH  19  22
ENDBRANCH  18  19
ENDBRANCH  17  18
ENDBRANCH  16  17
ENDBRANCH   1  16
TORSDOF 15
ENDMDL
MODEL 3
REMARK VINA RESULT:      -3.4      2.191      4.959
REMARK  Name = *****
REMARK                            x       y       z     vdW  Elec       q    Type
REMARK                         _______ _______ _______ _____ _____    ______ ____
ROOT
ATOM      1  C   LIG    1       28.435 -19.745   6.699  0.00  0.00    +0.144 C 
ENDROOT
BRANCH   1   2
ATOM      2  C   LIG    1       27.186 -20.377   5.978  0.00  0.00    -0.019 A 
ATOM      3  C   LIG    1       26.816 -19.859   4.709  0.00  0.00    +0.008 A 
ATOM      4  C   LIG    1       25.600 -20.088   4.117  0.00  0.00    +0.025 A 
ATOM      5  C   LIG    1       24.719 -20.916   4.767  0.00  0.00    +0.048 A 
ATOM      6  C   LIG    1       25.071 -21.572   5.949  0.00  0.00    +0.025 A 
ATOM      7  C   LIG    1       26.299 -21.293   6.573  0.00  0.00    +0.008 A 
BRANCH   5   8
ATOM      8  N   LIG    1       23.469 -21.098   4.161  0.00  0.00    -0.221 N 
ATOM      9  H   LIG    1       23.435 -20.856   3.164  0.00  0.00    +0.173 HD
BRANCH   8  10
ATOM     10  S   LIG    1       22.129 -20.467   4.951  0.00  0.00    +0.040 S 
ATOM     11  O   LIG    1       22.494 -20.385   6.303  0.00  0.00    -0.155 OA
ATOM     12  O   LIG    1       20.920 -21.216   4.523  0.00  0.00    -0.155 OA
ATOM     13  C   LIG    1       22.032 -18.823   4.265  0.00  0.00    +0.218 C 
ENDBRANCH   8  10
ENDBRANCH   5   8
ENDBRANCH   1   2
BRANCH   1  14
ATOM     14  O   LIG    1       29.475 -20.704   6.807  0.00  0.00    -0.387 OA
ATOM     15  H   LIG    1       30.103 -20.377   7.478  0.00  0.00    +0.210 HD
ENDBRANCH   1  14
BRANCH   1  16
ATOM     16  C   LIG    1       28.775 -18.379   5.942  0.00  0.00    +0.037 C 
BRANCH  16  17
ATOM     17  C   LIG    1       28.487 -17.424   4.682  0.00  0.00    +0.018 C 
BRANCH  17  18
ATOM     18  C   LIG    1       28.313 -15.751   4.471  0.00  0.00    +0.084 C 
BRANCH  18  19
ATOM     19  N   LIG    1       27.121 -14.914   3.977  0.00  0.00    -0.303 NA
BRANCH  19  20
ATOM     20  C   LIG    1       27.253 -14.434   2.513  0.00  0.00    +0.081 C 
ATOM     21  C   LIG    1       26.083 -13.530   1.951  0.00  0.00    +0.020 C 
ENDBRANCH  19  20
BRANCH  19  22
ATOM     22  C   LIG    1       27.014 -13.627   4.638  0.00  0.00    +0.084 C 
BRANCH  22  23
ATOM     23  C   LIG    1       26.201 -13.413   5.842  0.00  0.00    +0.015 C 
BRANCH  23  24
ATOM     24  C   LIG    1       25.090 -12.408   5.507  0.00  0.00    +0.001 C 
BRANCH  24  25
ATOM     25  C   LIG    1       24.068 -12.554   4.267  0.00  0.00    +0.000 C 
BRANCH  25  26
ATOM     26  C   LIG    1       23.549 -13.923   3.608  0.00  0.00    -0.000 C 
BRANCH  26  28
ATOM     27  C   LIG    1       22.352 -15.533   5.560  0.00  0.00    +0.004 C 
ATOM     28  C   LIG    1       23.314 -15.297   4.379  0.00  0.00    -0.003 C 
ENDBRANCH  26  28
ENDBRANCH  25  26
ENDBRANCH  24  25
ENDBRANCH  23  24
ENDBRANCH  22  23
ENDBRANCH  19  22
ENDBRANCH  18  19
ENDBRANCH  17  18
ENDBRANCH  16  17
ENDBRANCH   1  16
TORSDOF 15
ENDMDL
MODEL 4
REMARK VINA RESULT:      -2.5      1.763      4.819
REMARK  Name = *****
REMARK                            x       y       z     vdW  Elec       q    Type
REMARK                         _______ _______ _______ _____ _____    ______ ____
ROOT
ATOM      1  C   LIG    1       27.616 -14.501   3.983  0.00  0.00    +0.144 C 
ENDROOT
BRANCH   1   2
ATOM      2  C   LIG    1       27.659 -16.075   4.003  0.00  0.00    -0.019 A 
ATOM      3  C   LIG    1       26.558 -16.778   3.448  0.00  0.00    +0.008 A 
ATOM      4  C   LIG    1       26.316 -18.110   3.667  0.00  0.00    +0.025 A 
ATOM      5  C   LIG    1       27.227 -18.811   4.418  0.00  0.00    +0.048 A 
ATOM      6  C   LIG    1       28.404 -18.215   4.878  0.00  0.00    +0.025 A 
ATOM      7  C   LIG    1       28.620 -16.839   4.690  0.00  0.00    +0.008 A 
BRANCH   5   8
ATOM      8  N   LIG    1       26.932 -20.158   4.663  0.00  0.00    -0.221 N 
ATOM      9  H   LIG    1       26.238 -20.569   4.028  0.00  0.00    +0.173 HD
BRANCH   8  10
ATOM     10  S   LIG    1       26.594 -20.599   6.247  0.00  0.00    +0.040 S 
ATOM     11  O   LIG    1       25.587 -21.572   6.159  0.00  0.00    -0.155 OA
ATOM     12  O   LIG    1       26.410 -19.370   7.060  0.00  0.00    -0.155 OA
ATOM     13  C   LIG    1       28.119 -21.374   6.753  0.00  0.00    +0.218 C 
ENDBRANCH   8  10
ENDBRANCH   5   8
ENDBRANCH   1   2
BRANCH   1  14
ATOM     14  O   LIG    1       28.898 -13.972   4.282  0.00  0.00    -0.387 OA
ATOM     15  H   LIG    1       29.550 -14.679   4.122  0.00  0.00    +0.210 HD
ENDBRANCH   1  14
BRANCH   1  16
ATOM     16  C   LIG    1       26.950 -14.065   2.597  0.00  0.00    +0.037 C 
BRANCH  16  17
ATOM     17  C   LIG    1       25.824 -13.191   1.855  0.00  0.00    +0.018 C 
BRANCH  17  18
ATOM     18  C   LIG    1       24.261 -12.671   2.258  0.00  0.00    +0.084 C 
BRANCH  18  19
ATOM     19  N   LIG    1       23.488 -12.732   3.586  0.00  0.00    -0.303 NA
BRANCH  19  20
ATOM     20  C   LIG    1       23.602 -11.447   4.440  0.00  0.00    +0.081 C 
ATOM     21  C   LIG    1       24.624 -11.480   5.646  0.00  0.00    +0.020 C 
ENDBRANCH  19  20
BRANCH  19  22
ATOM     22  C   LIG    1       24.041 -13.688   4.526  0.00  0.00    +0.084 C 
BRANCH  22  23
ATOM     23  C   LIG    1       23.931 -15.141   4.343  0.00  0.00    +0.015 C 
BRANCH  23  24
ATOM     24  C   LIG    1       22.622 -15.615   4.991  0.00  0.00    +0.001 C 
BRANCH  24  25
ATOM     25  C   LIG    1       21.971 -17.076   4.776  0.00  0.00    +0.000 C 
BRANCH  25  26
ATOM     26  C   LIG    1       22.696 -18.366   4.153  0.00  0.00    -0.000 C 
BRANCH  26  28
ATOM     27  C   LIG    1       22.816 -20.235   6.234  0.00  0.00    +0.004 C 
ATOM     28  C   LIG    1       22.650 -19.841   4.752  0.00  0.00    -0.003 C 
ENDBRANCH  26  28
ENDBRANCH  25  26
ENDBRANCH  24  25
ENDBRANCH  23  24
ENDBRANCH  22  23
ENDBRANCH  19  22
ENDBRANCH  18  19
ENDBRANCH  17  18
ENDBRANCH  16  17
ENDBRANCH   1  16
TORSDOF 15
ENDMDL
MODEL 5
REMARK VINA RESULT:      -2.3      3.029      6.764
REMARK  Name = *****
REMARK                            x       y       z     vdW  Elec       q    Type
REMARK                         _______ _______ _______ _____ _____    ______ ____
ROOT
ATOM      1  C   LIG    1       23.047 -16.536   4.391  0.00  0.00    +0.144 C 
ENDROOT
BRANCH   1   2
ATOM      2  C   LIG    1       23.976 -15.403   3.814  0.00  0.00    -0.019 A 
ATOM      3  C   LIG    1       25.324 -15.734   3.518  0.00  0.00    +0.008 A 
ATOM      4  C   LIG    1       26.310 -14.803   3.310  0.00  0.00    +0.025 A 
ATOM      5  C   LIG    1       25.952 -13.477   3.332  0.00  0.00    +0.048 A 
ATOM      6  C   LIG    1       24.618 -13.085   3.477  0.00  0.00    +0.025 A 
ATOM      7  C   LIG    1       23.624 -14.043   3.738  0.00  0.00    +0.008 A 
BRANCH   5   8
ATOM      8  N   LIG    1       26.985 -12.547   3.159  0.00  0.00    -0.221 N 
ATOM      9  H   LIG    1       27.194 -12.312   2.182  0.00  0.00    +0.173 HD
BRANCH   8  10
ATOM     10  S   LIG    1       28.412 -12.814   4.004  0.00  0.00    +0.040 S 
ATOM     11  O   LIG    1       29.081 -11.581   4.007  0.00  0.00    -0.155 OA
ATOM     12  O   LIG    1       29.060 -14.042   3.477  0.00  0.00    -0.155 OA
ATOM     13  C   LIG    1       27.813 -13.165   5.647  0.00  0.00    +0.218 C 
ENDBRANCH   8  10
ENDBRANCH   5   8
ENDBRANCH   1   2
BRANCH   1  14
ATOM     14  O   LIG    1       21.850 -16.621   3.633  0.00  0.00    -0.387 OA
ATOM     15  H   LIG    1       21.180 -17.052   4.196  0.00  0.00    +0.210 HD
ENDBRANCH   1  14
BRANCH   1  16
ATOM     16  C   LIG    1       23.934 -17.860   4.507  0.00  0.00    +0.037 C 
BRANCH  16  17
ATOM     17  C   LIG    1       24.426 -19.222   3.813  0.00  0.00    +0.018 C 
BRANCH  17  18
ATOM     18  C   LIG    1       24.752 -20.792   4.367  0.00  0.00    +0.084 C 
BRANCH  18  19
ATOM     19  N   LIG    1       24.209 -21.568   5.579  0.00  0.00    -0.303 NA
BRANCH  19  20
ATOM     20  C   LIG    1       22.747 -21.219   5.945  0.00  0.00    +0.081 C 
ATOM     21  C   LIG    1       21.713 -21.135   4.752  0.00  0.00    +0.020 C 
ENDBRANCH  19  20
BRANCH  19  22
ATOM     22  C   LIG    1       24.856 -21.207   6.826  0.00  0.00    +0.084 C 
BRANCH  22  23
ATOM     23  C   LIG    1       26.132 -20.481   6.881  0.00  0.00    +0.015 C 
BRANCH  23  24
ATOM     24  C   LIG    1       27.264 -21.502   7.061  0.00  0.00    +0.001 C 
BRANCH  24  25
ATOM     25  C   LIG    1       28.828 -21.189   6.811  0.00  0.00    +0.000 C 
BRANCH  25  26
ATOM     26  C   LIG    1       29.436 -20.059   5.846  0.00  0.00    -0.000 C 
BRANCH  26  28
ATOM     27  C   LIG    1       28.501 -17.635   4.804  0.00  0.00    +0.004 C 
ATOM     28  C   LIG    1       29.119 -18.500   5.921  0.00  0.00    -0.003 C 
ENDBRANCH  26  28
ENDBRANCH  25  26
ENDBRANCH  24  25
ENDBRANCH  23  24
ENDBRANCH  22  23
ENDBRANCH  19  22
ENDBRANCH  18  19
ENDBRANCH  17  18
ENDBRANCH  16  17
ENDBRANCH   1  16
TORSDOF 15
ENDMDL
MODEL 6
REMARK VINA RESULT:      -1.7      1.488      2.636
REMARK  Name = *****
REMARK                            x       y       z     vdW  Elec       q    Type
REMARK                         _______ _______ _______ _____ _____    ______ ____
ROOT
ATOM      1  C   LIG    1       22.320 -20.221   4.398  0.00  0.00    +0.144 C 
ENDROOT
BRANCH   1   2
ATOM      2  C   LIG    1       23.761 -20.516   4.959  0.00  0.00    -0.019 A 
ATOM      3  C   LIG    1       23.905 -20.700   6.360  0.00  0.00    +0.008 A 
ATOM      4  C   LIG    1       25.109 -20.656   7.014  0.00  0.00    +0.025 A 
ATOM      5  C   LIG    1       26.242 -20.482   6.258  0.00  0.00    +0.048 A 
ATOM      6  C   LIG    1       26.186 -20.434   4.863  0.00  0.00    +0.025 A 
ATOM      7  C   LIG    1       24.944 -20.432   4.204  0.00  0.00    +0.008 A 
BRANCH   5   8
ATOM      8  N   LIG    1       27.453 -20.397   6.956  0.00  0.00    -0.221 N 
ATOM      9  H   LIG    1       27.378 -20.008   7.903  0.00  0.00    +0.173 HD
BRANCH   8  10
ATOM     10  S   LIG    1       28.759 -19.709   6.155  0.00  0.00    +0.040 S 
ATOM     11  O   LIG    1       29.465 -20.784   5.596  0.00  0.00    -0.155 OA
ATOM     12  O   LIG    1       29.423 -18.738   7.062  0.00  0.00    -0.155 OA
ATOM     13  C   LIG    1       27.956 -18.791   4.853  0.00  0.00    +0.218 C 
ENDBRANCH   8  10
ENDBRANCH   5   8
ENDBRANCH   1   2
BRANCH   1  14
ATOM     14  O   LIG    1       21.417 -21.237   4.808  0.00  0.00    -0.387 OA
ATOM     15  H   LIG    1       21.943 -22.038   4.987  0.00  0.00    +0.210 HD
ENDBRANCH   1  14
BRANCH   1  16
ATOM     16  C   LIG    1       21.957 -18.716   4.795  0.00  0.00    +0.037 C 
BRANCH  16  17
ATOM     17  C   LIG    1       21.971 -17.166   4.373  0.00  0.00    +0.018 C 
BRANCH  17  18
ATOM     18  C   LIG    1       23.155 -16.101   3.789  0.00  0.00    +0.084 C 
BRANCH  18  19
ATOM     19  N   LIG    1       23.707 -14.789   4.370  0.00  0.00    -0.303 NA
BRANCH  19  20
ATOM     20  C   LIG    1       22.849 -14.196   5.513  0.00  0.00    +0.081 C 
ATOM     21  C   LIG    1       21.995 -15.217   6.366  0.00  0.00    +0.020 C 
ENDBRANCH  19  20
BRANCH  19  22
ATOM     22  C   LIG    1       23.649 -13.681   3.435  0.00  0.00    +0.084 C 
BRANCH  22  23
ATOM     23  C   LIG    1       24.806 -12.827   3.138  0.00  0.00    +0.015 C 
BRANCH  23  24
ATOM     24  C   LIG    1       25.714 -13.566   2.145  0.00  0.00    +0.001 C 
BRANCH  24  25
ATOM     25  C   LIG    1       27.105 -14.284   2.536  0.00  0.00    +0.000 C 
BRANCH  25  26
ATOM     26  C   LIG    1       27.532 -14.819   3.989  0.00  0.00    -0.000 C 
BRANCH  26  28
ATOM     27  C   LIG    1       27.855 -12.562   5.614  0.00  0.00    +0.004 C 
ATOM     28  C   LIG    1       27.397 -14.011   5.356  0.00  0.00    -0.003 C 
ENDBRANCH  26  28
ENDBRANCH  25  26
ENDBRANCH  24  25
ENDBRANCH  23  24
ENDBRANCH  22  23
ENDBRANCH  19  22
ENDBRANCH  18  19
ENDBRANCH  17  18
ENDBRANCH  16  17
ENDBRANCH   1  16
TORSDOF 15
ENDMDL
MODEL 7
REMARK VINA RESULT:      -1.4      1.125      2.228
REMARK  Name = *****
REMARK                            x       y       z     vdW  Elec       q    Type
REMARK                         _______ _______ _______ _____ _____    ______ ____
ROOT
ATOM      1  C   LIG    1       22.305 -19.000   4.317  0.00  0.00    +0.144 C 
ENDROOT
BRANCH   1   2
ATOM      2  C   LIG    1       23.803 -19.435   4.099  0.00  0.00    -0.019 A 
ATOM      3  C   LIG    1       24.257 -20.610   4.754  0.00  0.00    +0.008 A 
ATOM      4  C   LIG    1       25.581 -20.933   4.906  0.00  0.00    +0.025 A 
ATOM      5  C   LIG    1       26.513 -20.099   4.339  0.00  0.00    +0.048 A 
ATOM      6  C   LIG    1       26.132 -19.003   3.562  0.00  0.00    +0.025 A 
ATOM      7  C   LIG    1       24.775 -18.651   3.451  0.00  0.00    +0.008 A 
BRANCH   5   8
ATOM      8  N   LIG    1       27.858 -20.430   4.548  0.00  0.00    -0.221 N 
ATOM      9  H   LIG    1       28.097 -21.407   4.344  0.00  0.00    +0.173 HD
BRANCH   8  10
ATOM     10  S   LIG    1       28.551 -19.961   6.003  0.00  0.00    +0.040 S 
ATOM     11  O   LIG    1       29.105 -18.694   5.764  0.00  0.00    -0.155 OA
ATOM     12  O   LIG    1       29.380 -21.078   6.525  0.00  0.00    -0.155 OA
ATOM     13  C   LIG    1       27.124 -19.791   7.059  0.00  0.00    +0.218 C 
ENDBRANCH   8  10
ENDBRANCH   5   8
ENDBRANCH   1   2
BRANCH   1  14
ATOM     14  O   LIG    1       21.791 -19.590   5.500  0.00  0.00    -0.387 OA
ATOM     15  H   LIG    1       22.158 -19.094   6.256  0.00  0.00    +0.210 HD
ENDBRANCH   1  14
BRANCH   1  16
ATOM     16  C   LIG    1       22.256 -17.406   4.213  0.00  0.00    +0.037 C 
BRANCH  16  17
ATOM     17  C   LIG    1       22.809 -15.999   4.756  0.00  0.00    +0.018 C 
BRANCH  17  18
ATOM     18  C   LIG    1       24.060 -14.952   4.292  0.00  0.00    +0.084 C 
BRANCH  18  19
ATOM     19  N   LIG    1       24.575 -14.548   2.900  0.00  0.00    -0.303 NA
BRANCH  19  20
ATOM     20  C   LIG    1       26.016 -15.024   2.600  0.00  0.00    +0.081 C 
ATOM     21  C   LIG    1       26.734 -15.875   3.722  0.00  0.00    +0.020 C 
ENDBRANCH  19  20
BRANCH  19  22
ATOM     22  C   LIG    1       24.765 -13.118   2.754  0.00  0.00    +0.084 C 
BRANCH  22  23
ATOM     23  C   LIG    1       23.909 -12.127   3.420  0.00  0.00    +0.015 C 
BRANCH  23  24
ATOM     24  C   LIG    1       24.061 -12.296   4.938  0.00  0.00    +0.001 C 
BRANCH  24  25
ATOM     25  C   LIG    1       25.407 -11.966   5.766  0.00  0.00    +0.000 C 
BRANCH  25  26
ATOM     26  C   LIG    1       26.641 -12.961   6.024  0.00  0.00    -0.000 C 
BRANCH  26  28
ATOM     27  C   LIG    1       28.414 -12.444   3.920  0.00  0.00    +0.004 C 
ATOM     28  C   LIG    1       27.745 -13.374   4.953  0.00  0.00    -0.003 C 
ENDBRANCH  26  28
ENDBRANCH  25  26
ENDBRANCH  24  25
ENDBRANCH  23  24
ENDBRANCH  22  23
ENDBRANCH  19  22
ENDBRANCH  18  19
ENDBRANCH  17  18
ENDBRANCH  16  17
ENDBRANCH   1  16
TORSDOF 15
ENDMDL
