MODEL 1
REMARK VINA RESULT:      -9.1      0.000      0.000
REMARK  Name = *****
REMARK                            x       y       z     vdW  Elec       q    Type
REMARK                         _______ _______ _______ _____ _____    ______ ____
ROOT
ATOM      1  C   LIG    1       25.262 -22.469   7.804  0.00  0.00    +0.027 C 
ATOM      2  C   LIG    1       24.104 -21.559   7.370  0.00  0.00    +0.121 C 
ATOM      3  C   LIG    1       23.250 -22.498   6.529  0.00  0.00    +0.063 C 
ATOM      4  C   LIG    1       24.288 -23.239   5.686  0.00  0.00    +0.120 C 
ATOM      5  C   LIG    1       25.552 -23.361   6.563  0.00  0.00    +0.024 C 
ENDROOT
BRANCH   2   6
ATOM      6  O   LIG    1       24.561 -20.487   6.548  0.00  0.00    -0.391 OA
ATOM      7  H   LIG    1       25.529 -20.439   6.660  0.00  0.00    +0.210 HD
ENDBRANCH   2   6
BRANCH   4   8
ATOM      8  O   LIG    1       24.600 -22.447   4.537  0.00  0.00    -0.391 OA
ATOM      9  H   LIG    1       25.472 -22.759   4.218  0.00  0.00    +0.210 HD
ENDBRANCH   4   8
BRANCH   1  10
ATOM     10  C   LIG    1       26.519 -21.739   8.291  0.00  0.00    +0.033 C 
BRANCH  10  12
ATOM     11  C   LIG    1       28.652 -20.984   7.128  0.00  0.00    -0.031 C 
ATOM     12  C   LIG    1       27.681 -21.886   7.348  0.00  0.00    -0.031 C 
BRANCH  11  13
ATOM     13  C   LIG    1       28.766 -19.621   7.753  0.00  0.00    +0.027 C 
BRANCH  13  14
ATOM     14  C   LIG    1       29.707 -18.723   6.950  0.00  0.00    +0.015 C 
BRANCH  14  15
ATOM     15  C   LIG    1       31.144 -19.239   6.992  0.00  0.00    +0.121 C 
BRANCH  15  16
ATOM     16  C   LIG    1       31.781 -18.962   8.341  0.00  0.00    +0.307 C 
ATOM     17  O   LIG    1       32.041 -19.800   9.177  0.00  0.00    -0.251 OA
BRANCH  16  18
ATOM     18  O   LIG    1       32.059 -17.625   8.436  0.00  0.00    -0.462 OA
BRANCH  18  20
ATOM     19  C   LIG    1       32.749 -15.738   9.790  0.00  0.00    +0.051 C 
ATOM     20  C   LIG    1       32.006 -17.070   9.767  0.00  0.00    +0.170 C 
ATOM     21  C   LIG    1       30.540 -16.872  10.132  0.00  0.00    +0.051 C 
ENDBRANCH  18  20
ENDBRANCH  16  18
ENDBRANCH  15  16
ENDBRANCH  14  15
ENDBRANCH  13  14
ENDBRANCH  11  13
ENDBRANCH  10  12
ENDBRANCH   1  10
BRANCH   5  22
ATOM     22  C   LIG    1       25.879 -24.808   6.987  0.00  0.00    +0.009 C 
BRANCH  22  23
ATOM     23  C   LIG    1       24.993 -25.901   6.361  0.00  0.00    +0.032 C 
BRANCH  23  24
ATOM     24  C   LIG    1       25.743 -26.823   5.395  0.00  0.00    +0.115 C 
BRANCH  24  25
ATOM     25  O   LIG    1       27.143 -26.727   5.656  0.00  0.00    -0.392 OA
ATOM     26  H   LIG    1       27.537 -27.602   5.503  0.00  0.00    +0.210 HD
ENDBRANCH  24  25
BRANCH  24  27
ATOM     27  C   LIG    1       25.288 -28.282   5.513  0.00  0.00    +0.036 C 
BRANCH  27  28
ATOM     28  C   LIG    1       24.535 -28.511   6.829  0.00  0.00    +0.037 C 
BRANCH  28  29
ATOM     29  C   LIG    1       25.405 -29.190   7.855  0.00  0.00    -0.047 A 
ATOM     30  C   LIG    1       26.112 -28.434   8.799  0.00  0.00    +0.003 A 
ATOM     31  C   LIG    1       26.929 -29.067   9.737  0.00  0.00    +0.000 A 
ATOM     32  C   LIG    1       27.046 -30.457   9.735  0.00  0.00    +0.000 A 
ATOM     33  C   LIG    1       26.349 -31.215   8.797  0.00  0.00    +0.000 A 
ATOM     34  C   LIG    1       25.532 -30.585   7.859  0.00  0.00    +0.003 A 
ENDBRANCH  28  29
ENDBRANCH  27  28
ENDBRANCH  24  27
ENDBRANCH  23  24
ENDBRANCH  22  23
ENDBRANCH   5  22
TORSDOF 17
ENDMDL
MODEL 2
REMARK VINA RESULT:      -8.7      0.797      1.345
REMARK  Name = *****
REMARK                            x       y       z     vdW  Elec       q    Type
REMARK                         _______ _______ _______ _____ _____    ______ ____
ROOT
ATOM      1  C   LIG    1       25.076 -21.973   7.652  0.00  0.00    +0.027 C 
ATOM      2  C   LIG    1       23.701 -21.381   7.315  0.00  0.00    +0.121 C 
ATOM      3  C   LIG    1       22.990 -22.558   6.661  0.00  0.00    +0.063 C 
ATOM      4  C   LIG    1       24.065 -23.135   5.740  0.00  0.00    +0.120 C 
ATOM      5  C   LIG    1       25.416 -22.898   6.447  0.00  0.00    +0.024 C 
ENDROOT
BRANCH   2   6
ATOM      6  O   LIG    1       23.807 -20.319   6.368  0.00  0.00    -0.391 OA
ATOM      7  H   LIG    1       23.239 -19.595   6.692  0.00  0.00    +0.210 HD
ENDBRANCH   2   6
BRANCH   4   8
ATOM      8  O   LIG    1       24.057 -22.408   4.509  0.00  0.00    -0.391 OA
ATOM      9  H   LIG    1       23.163 -22.014   4.429  0.00  0.00    +0.210 HD
ENDBRANCH   4   8
BRANCH   1  10
ATOM     10  C   LIG    1       26.183 -20.947   7.918  0.00  0.00    +0.033 C 
BRANCH  10  12
ATOM     11  C   LIG    1       28.701 -21.124   7.602  0.00  0.00    -0.031 C 
ATOM     12  C   LIG    1       27.536 -21.581   8.091  0.00  0.00    -0.031 C 
BRANCH  11  13
ATOM     13  C   LIG    1       28.897 -19.901   6.749  0.00  0.00    +0.027 C 
BRANCH  13  14
ATOM     14  C   LIG    1       30.302 -19.327   6.924  0.00  0.00    +0.015 C 
BRANCH  14  15
ATOM     15  C   LIG    1       30.450 -18.607   8.264  0.00  0.00    +0.121 C 
BRANCH  15  16
ATOM     16  C   LIG    1       31.557 -19.227   9.094  0.00  0.00    +0.307 C 
ATOM     17  O   LIG    1       31.947 -20.371   8.998  0.00  0.00    -0.251 OA
BRANCH  16  18
ATOM     18  O   LIG    1       32.074 -18.274   9.930  0.00  0.00    -0.462 OA
BRANCH  18  20
ATOM     19  C   LIG    1       30.771 -16.636  11.149  0.00  0.00    +0.051 C 
ATOM     20  C   LIG    1       31.471 -16.968   9.835  0.00  0.00    +0.170 C 
ATOM     21  C   LIG    1       32.579 -15.961   9.550  0.00  0.00    +0.051 C 
ENDBRANCH  18  20
ENDBRANCH  16  18
ENDBRANCH  15  16
ENDBRANCH  14  15
ENDBRANCH  13  14
ENDBRANCH  11  13
ENDBRANCH  10  12
ENDBRANCH   1  10
BRANCH   5  22
ATOM     22  C   LIG    1       26.107 -24.193   6.922  0.00  0.00    +0.009 C 
BRANCH  22  23
ATOM     23  C   LIG    1       25.346 -25.499   6.628  0.00  0.00    +0.032 C 
BRANCH  23  24
ATOM     24  C   LIG    1       25.940 -26.309   5.471  0.00  0.00    +0.115 C 
BRANCH  24  25
ATOM     25  O   LIG    1       27.302 -26.613   5.769  0.00  0.00    -0.392 OA
ATOM     26  H   LIG    1       27.428 -26.511   6.728  0.00  0.00    +0.210 HD
ENDBRANCH  24  25
BRANCH  24  27
ATOM     27  C   LIG    1       25.159 -27.601   5.206  0.00  0.00    +0.036 C 
BRANCH  27  28
ATOM     28  C   LIG    1       24.384 -28.033   6.457  0.00  0.00    +0.037 C 
BRANCH  28  29
ATOM     29  C   LIG    1       25.091 -29.140   7.195  0.00  0.00    -0.047 A 
ATOM     30  C   LIG    1       25.139 -30.434   6.659  0.00  0.00    +0.003 A 
ATOM     31  C   LIG    1       25.781 -31.459   7.354  0.00  0.00    +0.000 A 
ATOM     32  C   LIG    1       26.375 -31.199   8.588  0.00  0.00    +0.000 A 
ATOM     33  C   LIG    1       26.328 -29.917   9.130  0.00  0.00    +0.000 A 
ATOM     34  C   LIG    1       25.687 -28.890   8.437  0.00  0.00    +0.003 A 
ENDBRANCH  28  29
ENDBRANCH  27  28
ENDBRANCH  24  27
ENDBRANCH  23  24
ENDBRANCH  22  23
ENDBRANCH   5  22
TORSDOF 17
ENDMDL
MODEL 3
REMARK VINA RESULT:      -8.7      2.286     10.499
REMARK  Name = *****
REMARK                            x       y       z     vdW  Elec       q    Type
REMARK                         _______ _______ _______ _____ _____    ______ ____
ROOT
ATOM      1  C   LIG    1       25.372 -22.751   6.146  0.00  0.00    +0.027 C 
ATOM      2  C   LIG    1       24.182 -22.089   5.438  0.00  0.00    +0.121 C 
ATOM      3  C   LIG    1       24.417 -20.611   5.719  0.00  0.00    +0.063 C 
ATOM      4  C   LIG    1       24.810 -20.604   7.196  0.00  0.00    +0.120 C 
ATOM      5  C   LIG    1       25.568 -21.924   7.450  0.00  0.00    +0.024 C 
ENDROOT
BRANCH   2   6
ATOM      6  O   LIG    1       22.941 -22.481   6.023  0.00  0.00    -0.391 OA
ATOM      7  H   LIG    1       22.519 -23.099   5.397  0.00  0.00    +0.210 HD
ENDBRANCH   2   6
BRANCH   4   8
ATOM      8  O   LIG    1       23.621 -20.597   7.991  0.00  0.00    -0.391 OA
ATOM      9  H   LIG    1       22.902 -20.922   7.410  0.00  0.00    +0.210 HD
ENDBRANCH   4   8
BRANCH   1  10
ATOM     10  C   LIG    1       25.211 -24.248   6.435  0.00  0.00    +0.033 C 
BRANCH  10  12
ATOM     11  C   LIG    1       25.666 -26.360   5.092  0.00  0.00    -0.031 C 
ATOM     12  C   LIG    1       25.243 -25.089   5.188  0.00  0.00    -0.031 C 
BRANCH  11  13
ATOM     13  C   LIG    1       26.230 -27.203   6.203  0.00  0.00    +0.027 C 
BRANCH  13  14
ATOM     14  C   LIG    1       25.145 -28.068   6.843  0.00  0.00    +0.015 C 
BRANCH  14  15
ATOM     15  C   LIG    1       24.238 -28.699   5.788  0.00  0.00    +0.121 C 
BRANCH  15  16
ATOM     16  C   LIG    1       24.300 -30.213   5.854  0.00  0.00    +0.307 C 
ATOM     17  O   LIG    1       23.367 -30.941   6.118  0.00  0.00    -0.251 OA
BRANCH  16  18
ATOM     18  O   LIG    1       25.562 -30.623   5.519  0.00  0.00    -0.462 OA
BRANCH  18  20
ATOM     19  C   LIG    1       26.067 -32.420   3.974  0.00  0.00    +0.051 C 
ATOM     20  C   LIG    1       25.750 -32.050   5.420  0.00  0.00    +0.170 C 
ATOM     21  C   LIG    1       26.906 -32.432   6.336  0.00  0.00    +0.051 C 
ENDBRANCH  18  20
ENDBRANCH  16  18
ENDBRANCH  15  16
ENDBRANCH  14  15
ENDBRANCH  13  14
ENDBRANCH  11  13
ENDBRANCH  10  12
ENDBRANCH   1  10
BRANCH   5  22
ATOM     22  C   LIG    1       27.067 -21.733   7.763  0.00  0.00    +0.009 C 
BRANCH  22  23
ATOM     23  C   LIG    1       27.612 -20.308   7.557  0.00  0.00    +0.032 C 
BRANCH  23  24
ATOM     24  C   LIG    1       28.606 -20.191   6.397  0.00  0.00    +0.115 C 
BRANCH  24  25
ATOM     25  O   LIG    1       27.884 -20.193   5.166  0.00  0.00    -0.392 OA
ATOM     26  H   LIG    1       27.768 -19.270   4.886  0.00  0.00    +0.210 HD
ENDBRANCH  24  25
BRANCH  24  27
ATOM     27  C   LIG    1       29.469 -18.929   6.497  0.00  0.00    +0.036 C 
BRANCH  27  28
ATOM     28  C   LIG    1       30.788 -19.228   7.220  0.00  0.00    +0.037 C 
BRANCH  28  29
ATOM     29  C   LIG    1       30.986 -18.327   8.411  0.00  0.00    -0.047 A 
ATOM     30  C   LIG    1       32.194 -17.638   8.587  0.00  0.00    +0.003 A 
ATOM     31  C   LIG    1       32.379 -16.817   9.700  0.00  0.00    +0.000 A 
ATOM     32  C   LIG    1       31.361 -16.682  10.644  0.00  0.00    +0.000 A 
ATOM     33  C   LIG    1       30.160 -17.368  10.478  0.00  0.00    +0.000 A 
ATOM     34  C   LIG    1       29.972 -18.189   9.366  0.00  0.00    +0.003 A 
ENDBRANCH  28  29
ENDBRANCH  27  28
ENDBRANCH  24  27
ENDBRANCH  23  24
ENDBRANCH  22  23
ENDBRANCH   5  22
TORSDOF 17
ENDMDL
MODEL 4
REMARK VINA RESULT:      -8.7      1.766      2.658
REMARK  Name = *****
REMARK                            x       y       z     vdW  Elec       q    Type
REMARK                         _______ _______ _______ _____ _____    ______ ____
ROOT
ATOM      1  C   LIG    1       25.078 -20.216   5.542  0.00  0.00    +0.027 C 
ATOM      2  C   LIG    1       25.004 -19.400   4.245  0.00  0.00    +0.121 C 
ATOM      3  C   LIG    1       23.539 -19.542   3.854  0.00  0.00    +0.063 C 
ATOM      4  C   LIG    1       23.263 -21.025   4.100  0.00  0.00    +0.120 C 
ATOM      5  C   LIG    1       24.146 -21.438   5.296  0.00  0.00    +0.024 C 
ENDROOT
BRANCH   2   6
ATOM      6  O   LIG    1       25.814 -19.972   3.220  0.00  0.00    -0.391 OA
ATOM      7  H   LIG    1       26.623 -19.429   3.165  0.00  0.00    +0.210 HD
ENDBRANCH   2   6
BRANCH   4   8
ATOM      8  O   LIG    1       23.673 -21.768   2.948  0.00  0.00    -0.391 OA
ATOM      9  H   LIG    1       23.871 -22.674   3.264  0.00  0.00    +0.210 HD
ENDBRANCH   4   8
BRANCH   1  10
ATOM     10  C   LIG    1       26.488 -20.646   5.965  0.00  0.00    +0.033 C 
BRANCH  10  12
ATOM     11  C   LIG    1       27.984 -20.390   8.006  0.00  0.00    -0.031 C 
ATOM     12  C   LIG    1       26.783 -20.341   7.408  0.00  0.00    -0.031 C 
BRANCH  11  13
ATOM     13  C   LIG    1       29.286 -20.794   7.370  0.00  0.00    +0.027 C 
BRANCH  13  14
ATOM     14  C   LIG    1       30.057 -19.574   6.871  0.00  0.00    +0.015 C 
BRANCH  14  15
ATOM     15  C   LIG    1       30.163 -18.498   7.951  0.00  0.00    +0.121 C 
BRANCH  15  16
ATOM     16  C   LIG    1       31.488 -18.594   8.685  0.00  0.00    +0.307 C 
ATOM     17  O   LIG    1       31.972 -19.614   9.124  0.00  0.00    -0.251 OA
BRANCH  16  18
ATOM     18  O   LIG    1       32.066 -17.354   8.722  0.00  0.00    -0.462 OA
BRANCH  18  20
ATOM     19  C   LIG    1       33.025 -15.476   9.915  0.00  0.00    +0.051 C 
ATOM     20  C   LIG    1       32.333 -16.829  10.039  0.00  0.00    +0.170 C 
ATOM     21  C   LIG    1       30.998 -16.684  10.762  0.00  0.00    +0.051 C 
ENDBRANCH  18  20
ENDBRANCH  16  18
ENDBRANCH  15  16
ENDBRANCH  14  15
ENDBRANCH  13  14
ENDBRANCH  11  13
ENDBRANCH  10  12
ENDBRANCH   1  10
BRANCH   5  22
ATOM     22  C   LIG    1       23.348 -21.789   6.569  0.00  0.00    +0.009 C 
BRANCH  22  23
ATOM     23  C   LIG    1       23.175 -23.293   6.852  0.00  0.00    +0.032 C 
BRANCH  23  24
ATOM     24  C   LIG    1       24.356 -24.146   6.380  0.00  0.00    +0.115 C 
BRANCH  24  25
ATOM     25  O   LIG    1       25.479 -23.891   7.223  0.00  0.00    -0.392 OA
ATOM     26  H   LIG    1       25.184 -23.313   7.948  0.00  0.00    +0.210 HD
ENDBRANCH  24  25
BRANCH  24  27
ATOM     27  C   LIG    1       24.029 -25.644   6.384  0.00  0.00    +0.036 C 
BRANCH  27  28
ATOM     28  C   LIG    1       25.146 -26.445   5.705  0.00  0.00    +0.037 C 
BRANCH  28  29
ATOM     29  C   LIG    1       25.154 -27.882   6.158  0.00  0.00    -0.047 A 
ATOM     30  C   LIG    1       24.919 -28.917   5.243  0.00  0.00    +0.003 A 
ATOM     31  C   LIG    1       24.912 -30.245   5.671  0.00  0.00    +0.000 A 
ATOM     32  C   LIG    1       25.135 -30.546   7.014  0.00  0.00    +0.000 A 
ATOM     33  C   LIG    1       25.364 -29.522   7.931  0.00  0.00    +0.000 A 
ATOM     34  C   LIG    1       25.373 -28.194   7.505  0.00  0.00    +0.003 A 
ENDBRANCH  28  29
ENDBRANCH  27  28
ENDBRANCH  24  27
ENDBRANCH  23  24
ENDBRANCH  22  23
ENDBRANCH   5  22
TORSDOF 17
ENDMDL
MODEL 5
REMARK VINA RESULT:      -8.7      1.920      9.906
REMARK  Name = *****
REMARK                            x       y       z     vdW  Elec       q    Type
REMARK                         _______ _______ _______ _____ _____    ______ ____
ROOT
ATOM      1  C   LIG    1       25.577 -23.031   6.458  0.00  0.00    +0.027 C 
ATOM      2  C   LIG    1       24.395 -22.570   5.594  0.00  0.00    +0.121 C 
ATOM      3  C   LIG    1       24.533 -21.054   5.635  0.00  0.00    +0.063 C 
ATOM      4  C   LIG    1       24.841 -20.780   7.107  0.00  0.00    +0.120 C 
ATOM      5  C   LIG    1       25.653 -21.991   7.613  0.00  0.00    +0.024 C 
ENDROOT
BRANCH   2   6
ATOM      6  O   LIG    1       23.146 -22.938   6.177  0.00  0.00    -0.391 OA
ATOM      7  H   LIG    1       23.014 -23.885   5.986  0.00  0.00    +0.210 HD
ENDBRANCH   2   6
BRANCH   4   8
ATOM      8  O   LIG    1       23.609 -20.717   7.832  0.00  0.00    -0.391 OA
ATOM      9  H   LIG    1       23.851 -20.710   8.782  0.00  0.00    +0.210 HD
ENDBRANCH   4   8
BRANCH   1  10
ATOM     10  C   LIG    1       25.480 -24.467   6.986  0.00  0.00    +0.033 C 
BRANCH  10  12
ATOM     11  C   LIG    1       25.676 -26.616   5.638  0.00  0.00    -0.031 C 
ATOM     12  C   LIG    1       26.181 -25.461   6.101  0.00  0.00    -0.031 C 
BRANCH  11  13
ATOM     13  C   LIG    1       24.313 -27.180   5.935  0.00  0.00    +0.027 C 
BRANCH  13  14
ATOM     14  C   LIG    1       24.222 -28.648   5.519  0.00  0.00    +0.015 C 
BRANCH  14  15
ATOM     15  C   LIG    1       25.126 -29.530   6.380  0.00  0.00    +0.121 C 
BRANCH  15  16
ATOM     16  C   LIG    1       24.682 -29.510   7.830  0.00  0.00    +0.307 C 
ATOM     17  O   LIG    1       23.664 -30.010   8.257  0.00  0.00    -0.251 OA
BRANCH  16  18
ATOM     18  O   LIG    1       25.641 -28.885   8.581  0.00  0.00    -0.462 OA
BRANCH  18  20
ATOM     19  C   LIG    1       26.879 -30.830   9.323  0.00  0.00    +0.051 C 
ATOM     20  C   LIG    1       26.083 -29.601   9.752  0.00  0.00    +0.170 C 
ATOM     21  C   LIG    1       26.955 -28.659  10.574  0.00  0.00    +0.051 C 
ENDBRANCH  18  20
ENDBRANCH  16  18
ENDBRANCH  15  16
ENDBRANCH  14  15
ENDBRANCH  13  14
ENDBRANCH  11  13
ENDBRANCH  10  12
ENDBRANCH   1  10
BRANCH   5  22
ATOM     22  C   LIG    1       27.119 -21.657   7.960  0.00  0.00    +0.009 C 
BRANCH  22  23
ATOM     23  C   LIG    1       27.576 -20.229   7.608  0.00  0.00    +0.032 C 
BRANCH  23  24
ATOM     24  C   LIG    1       28.586 -20.173   6.458  0.00  0.00    +0.115 C 
BRANCH  24  25
ATOM     25  O   LIG    1       27.880 -20.212   5.218  0.00  0.00    -0.392 OA
ATOM     26  H   LIG    1       26.936 -20.077   5.407  0.00  0.00    +0.210 HD
ENDBRANCH  24  25
BRANCH  24  27
ATOM     27  C   LIG    1       29.468 -18.921   6.519  0.00  0.00    +0.036 C 
BRANCH  27  28
ATOM     28  C   LIG    1       30.790 -19.222   7.236  0.00  0.00    +0.037 C 
BRANCH  28  29
ATOM     29  C   LIG    1       30.999 -18.315   8.420  0.00  0.00    -0.047 A 
ATOM     30  C   LIG    1       32.207 -17.624   8.581  0.00  0.00    +0.003 A 
ATOM     31  C   LIG    1       32.402 -16.797   9.688  0.00  0.00    +0.000 A 
ATOM     32  C   LIG    1       31.394 -16.659  10.641  0.00  0.00    +0.000 A 
ATOM     33  C   LIG    1       30.192 -17.346  10.491  0.00  0.00    +0.000 A 
ATOM     34  C   LIG    1       29.994 -18.173   9.385  0.00  0.00    +0.003 A 
ENDBRANCH  28  29
ENDBRANCH  27  28
ENDBRANCH  24  27
ENDBRANCH  23  24
ENDBRANCH  22  23
ENDBRANCH   5  22
TORSDOF 17
ENDMDL
MODEL 6
REMARK VINA RESULT:      -8.4      2.472      9.321
REMARK  Name = *****
REMARK                            x       y       z     vdW  Elec       q    Type
REMARK                         _______ _______ _______ _____ _____    ______ ____
ROOT
ATOM      1  C   LIG    1       24.575 -22.274   5.311  0.00  0.00    +0.027 C 
ATOM      2  C   LIG    1       24.520 -21.348   4.088  0.00  0.00    +0.121 C 
ATOM      3  C   LIG    1       23.784 -20.132   4.633  0.00  0.00    +0.063 C 
ATOM      4  C   LIG    1       22.650 -20.756   5.445  0.00  0.00    +0.120 C 
ATOM      5  C   LIG    1       23.203 -22.078   6.018  0.00  0.00    +0.024 C 
ENDROOT
BRANCH   2   6
ATOM      6  O   LIG    1       23.751 -21.921   3.032  0.00  0.00    -0.391 OA
ATOM      7  H   LIG    1       24.261 -21.792   2.210  0.00  0.00    +0.210 HD
ENDBRANCH   2   6
BRANCH   4   8
ATOM      8  O   LIG    1       21.563 -21.056   4.565  0.00  0.00    -0.391 OA
ATOM      9  H   LIG    1       20.858 -20.407   4.769  0.00  0.00    +0.210 HD
ENDBRANCH   4   8
BRANCH   1  10
ATOM     10  C   LIG    1       24.855 -23.750   5.002  0.00  0.00    +0.033 C 
BRANCH  10  12
ATOM     11  C   LIG    1       26.027 -25.719   6.105  0.00  0.00    -0.031 C 
ATOM     12  C   LIG    1       25.642 -24.433   6.086  0.00  0.00    -0.031 C 
BRANCH  11  13
ATOM     13  C   LIG    1       25.723 -26.761   5.063  0.00  0.00    +0.027 C 
BRANCH  13  14
ATOM     14  C   LIG    1       24.711 -27.782   5.584  0.00  0.00    +0.015 C 
BRANCH  14  15
ATOM     15  C   LIG    1       25.199 -29.213   5.366  0.00  0.00    +0.121 C 
BRANCH  15  16
ATOM     16  C   LIG    1       24.480 -30.178   6.289  0.00  0.00    +0.307 C 
ATOM     17  O   LIG    1       23.357 -30.600   6.123  0.00  0.00    -0.251 OA
BRANCH  16  18
ATOM     18  O   LIG    1       25.324 -30.532   7.308  0.00  0.00    -0.462 OA
BRANCH  18  20
ATOM     19  C   LIG    1       25.025 -31.132   9.636  0.00  0.00    +0.051 C 
ATOM     20  C   LIG    1       24.987 -30.006   8.608  0.00  0.00    +0.170 C 
ATOM     21  C   LIG    1       26.009 -28.930   8.955  0.00  0.00    +0.051 C 
ENDBRANCH  18  20
ENDBRANCH  16  18
ENDBRANCH  15  16
ENDBRANCH  14  15
ENDBRANCH  13  14
ENDBRANCH  11  13
ENDBRANCH  10  12
ENDBRANCH   1  10
BRANCH   5  22
ATOM     22  C   LIG    1       23.369 -22.071   7.552  0.00  0.00    +0.009 C 
BRANCH  22  23
ATOM     23  C   LIG    1       24.821 -22.046   8.064  0.00  0.00    +0.032 C 
BRANCH  23  24
ATOM     24  C   LIG    1       25.407 -20.635   8.183  0.00  0.00    +0.115 C 
BRANCH  24  25
ATOM     25  O   LIG    1       25.978 -20.479   9.482  0.00  0.00    -0.392 OA
ATOM     26  H   LIG    1       25.389 -20.914  10.122  0.00  0.00    +0.210 HD
ENDBRANCH  24  25
BRANCH  24  27
ATOM     27  C   LIG    1       26.463 -20.352   7.109  0.00  0.00    +0.036 C 
BRANCH  27  28
ATOM     28  C   LIG    1       27.636 -21.333   7.228  0.00  0.00    +0.037 C 
BRANCH  28  29
ATOM     29  C   LIG    1       28.957 -20.614   7.300  0.00  0.00    -0.047 A 
ATOM     30  C   LIG    1       29.232 -19.544   6.438  0.00  0.00    +0.003 A 
ATOM     31  C   LIG    1       30.464 -18.892   6.498  0.00  0.00    +0.000 A 
ATOM     32  C   LIG    1       31.429 -19.306   7.415  0.00  0.00    +0.000 A 
ATOM     33  C   LIG    1       31.165 -20.372   8.272  0.00  0.00    +0.000 A 
ATOM     34  C   LIG    1       29.934 -21.026   8.215  0.00  0.00    +0.003 A 
ENDBRANCH  28  29
ENDBRANCH  27  28
ENDBRANCH  24  27
ENDBRANCH  23  24
ENDBRANCH  22  23
ENDBRANCH   5  22
TORSDOF 17
ENDMDL
MODEL 7
REMARK VINA RESULT:      -8.4      2.127      9.831
REMARK  Name = *****
REMARK                            x       y       z     vdW  Elec       q    Type
REMARK                         _______ _______ _______ _____ _____    ______ ____
ROOT
ATOM      1  C   LIG    1       24.338 -21.191   5.475  0.00  0.00    +0.027 C 
ATOM      2  C   LIG    1       23.430 -20.948   4.262  0.00  0.00    +0.121 C 
ATOM      3  C   LIG    1       24.430 -20.584   3.174  0.00  0.00    +0.063 C 
ATOM      4  C   LIG    1       25.385 -19.631   3.893  0.00  0.00    +0.120 C 
ATOM      5  C   LIG    1       25.452 -20.111   5.359  0.00  0.00    +0.024 C 
ENDROOT
BRANCH   2   6
ATOM      6  O   LIG    1       22.555 -19.842   4.477  0.00  0.00    -0.391 OA
ATOM      7  H   LIG    1       23.034 -19.212   5.048  0.00  0.00    +0.210 HD
ENDBRANCH   2   6
BRANCH   4   8
ATOM      8  O   LIG    1       24.830 -18.314   3.866  0.00  0.00    -0.391 OA
ATOM      9  H   LIG    1       23.865 -18.420   3.999  0.00  0.00    +0.210 HD
ENDBRANCH   4   8
BRANCH   1  10
ATOM     10  C   LIG    1       23.636 -21.147   6.837  0.00  0.00    +0.033 C 
BRANCH  10  12
ATOM     11  C   LIG    1       22.923 -23.585   6.965  0.00  0.00    -0.031 C 
ATOM     12  C   LIG    1       22.654 -22.271   7.023  0.00  0.00    -0.031 C 
BRANCH  11  13
ATOM     13  C   LIG    1       24.256 -24.214   6.666  0.00  0.00    +0.027 C 
BRANCH  13  14
ATOM     14  C   LIG    1       24.088 -25.518   5.886  0.00  0.00    +0.015 C 
BRANCH  14  15
ATOM     15  C   LIG    1       25.129 -25.643   4.775  0.00  0.00    +0.121 C 
BRANCH  15  16
ATOM     16  C   LIG    1       25.925 -26.926   4.920  0.00  0.00    +0.307 C 
ATOM     17  O   LIG    1       27.133 -26.996   4.993  0.00  0.00    -0.251 OA
BRANCH  16  18
ATOM     18  O   LIG    1       25.057 -27.982   5.005  0.00  0.00    -0.462 OA
BRANCH  18  20
ATOM     19  C   LIG    1       24.400 -29.008   7.099  0.00  0.00    +0.051 C 
ATOM     20  C   LIG    1       25.412 -29.005   5.958  0.00  0.00    +0.170 C 
ATOM     21  C   LIG    1       25.400 -30.344   5.229  0.00  0.00    +0.051 C 
ENDBRANCH  18  20
ENDBRANCH  16  18
ENDBRANCH  15  16
ENDBRANCH  14  15
ENDBRANCH  13  14
ENDBRANCH  11  13
ENDBRANCH  10  12
ENDBRANCH   1  10
BRANCH   5  22
ATOM     22  C   LIG    1       26.825 -20.687   5.764  0.00  0.00    +0.009 C 
BRANCH  22  23
ATOM     23  C   LIG    1       28.018 -19.723   5.625  0.00  0.00    +0.032 C 
BRANCH  23  24
ATOM     24  C   LIG    1       28.952 -19.722   6.839  0.00  0.00    +0.115 C 
BRANCH  24  25
ATOM     25  O   LIG    1       29.648 -20.967   6.889  0.00  0.00    -0.392 OA
ATOM     26  H   LIG    1       29.038 -21.664   6.595  0.00  0.00    +0.210 HD
ENDBRANCH  24  25
BRANCH  24  27
ATOM     27  C   LIG    1       29.954 -18.563   6.800  0.00  0.00    +0.036 C 
BRANCH  27  28
ATOM     28  C   LIG    1       31.192 -18.886   7.646  0.00  0.00    +0.037 C 
BRANCH  28  29
ATOM     29  C   LIG    1       31.260 -18.028   8.882  0.00  0.00    -0.047 A 
ATOM     30  C   LIG    1       30.244 -18.088   9.845  0.00  0.00    +0.003 A 
ATOM     31  C   LIG    1       30.303 -17.279  10.980  0.00  0.00    +0.000 A 
ATOM     32  C   LIG    1       31.374 -16.404  11.158  0.00  0.00    +0.000 A 
ATOM     33  C   LIG    1       32.386 -16.334  10.202  0.00  0.00    +0.000 A 
ATOM     34  C   LIG    1       32.329 -17.143   9.067  0.00  0.00    +0.003 A 
ENDBRANCH  28  29
ENDBRANCH  27  28
ENDBRANCH  24  27
ENDBRANCH  23  24
ENDBRANCH  22  23
ENDBRANCH   5  22
TORSDOF 17
ENDMDL
MODEL 8
REMARK VINA RESULT:      -8.2      1.616      2.246
REMARK  Name = *****
REMARK                            x       y       z     vdW  Elec       q    Type
REMARK                         _______ _______ _______ _____ _____    ______ ____
ROOT
ATOM      1  C   LIG    1       25.745 -22.557   7.557  0.00  0.00    +0.027 C 
ATOM      2  C   LIG    1       24.735 -21.401   7.558  0.00  0.00    +0.121 C 
ATOM      3  C   LIG    1       23.417 -22.121   7.309  0.00  0.00    +0.063 C 
ATOM      4  C   LIG    1       23.775 -23.113   6.202  0.00  0.00    +0.120 C 
ATOM      5  C   LIG    1       25.243 -23.521   6.444  0.00  0.00    +0.024 C 
ENDROOT
BRANCH   2   6
ATOM      6  O   LIG    1       24.979 -20.493   6.486  0.00  0.00    -0.391 OA
ATOM      7  H   LIG    1       24.812 -19.597   6.833  0.00  0.00    +0.210 HD
ENDBRANCH   2   6
BRANCH   4   8
ATOM      8  O   LIG    1       23.685 -22.447   4.939  0.00  0.00    -0.391 OA
ATOM      9  H   LIG    1       22.743 -22.493   4.672  0.00  0.00    +0.210 HD
ENDBRANCH   4   8
BRANCH   1  10
ATOM     10  C   LIG    1       27.208 -22.147   7.344  0.00  0.00    +0.033 C 
BRANCH  10  12
ATOM     11  C   LIG    1       28.305 -19.930   7.936  0.00  0.00    -0.031 C 
ATOM     12  C   LIG    1       27.647 -21.051   8.275  0.00  0.00    -0.031 C 
BRANCH  11  13
ATOM     13  C   LIG    1       28.773 -19.548   6.558  0.00  0.00    +0.027 C 
BRANCH  13  14
ATOM     14  C   LIG    1       29.948 -18.574   6.626  0.00  0.00    +0.015 C 
BRANCH  14  15
ATOM     15  C   LIG    1       31.259 -19.299   6.925  0.00  0.00    +0.121 C 
BRANCH  15  16
ATOM     16  C   LIG    1       31.764 -18.961   8.315  0.00  0.00    +0.307 C 
ATOM     17  O   LIG    1       31.983 -19.765   9.194  0.00  0.00    -0.251 OA
BRANCH  16  18
ATOM     18  O   LIG    1       31.978 -17.611   8.394  0.00  0.00    -0.462 OA
BRANCH  18  20
ATOM     19  C   LIG    1       32.783 -15.765   9.741  0.00  0.00    +0.051 C 
ATOM     20  C   LIG    1       31.971 -17.056   9.726  0.00  0.00    +0.170 C 
ATOM     21  C   LIG    1       30.521 -16.780  10.107  0.00  0.00    +0.051 C 
ENDBRANCH  18  20
ENDBRANCH  16  18
ENDBRANCH  15  16
ENDBRANCH  14  15
ENDBRANCH  13  14
ENDBRANCH  11  13
ENDBRANCH  10  12
ENDBRANCH   1  10
BRANCH   5  22
ATOM     22  C   LIG    1       25.418 -24.994   6.869  0.00  0.00    +0.009 C 
BRANCH  22  23
ATOM     23  C   LIG    1       24.535 -26.011   6.122  0.00  0.00    +0.032 C 
BRANCH  23  24
ATOM     24  C   LIG    1       25.283 -27.279   5.696  0.00  0.00    +0.115 C 
BRANCH  24  25
ATOM     25  O   LIG    1       26.151 -27.682   6.755  0.00  0.00    -0.392 OA
ATOM     26  H   LIG    1       26.240 -28.649   6.717  0.00  0.00    +0.210 HD
ENDBRANCH  24  25
BRANCH  24  27
ATOM     27  C   LIG    1       24.328 -28.423   5.337  0.00  0.00    +0.036 C 
BRANCH  27  28
ATOM     28  C   LIG    1       24.334 -29.498   6.430  0.00  0.00    +0.037 C 
BRANCH  28  29
ATOM     29  C   LIG    1       24.583 -30.870   5.859  0.00  0.00    -0.047 A 
ATOM     30  C   LIG    1       23.687 -31.918   6.111  0.00  0.00    +0.003 A 
ATOM     31  C   LIG    1       23.931 -33.190   5.594  0.00  0.00    +0.000 A 
ATOM     32  C   LIG    1       25.071 -33.425   4.826  0.00  0.00    +0.000 A 
ATOM     33  C   LIG    1       25.969 -32.389   4.575  0.00  0.00    +0.000 A 
ATOM     34  C   LIG    1       25.727 -31.116   5.091  0.00  0.00    +0.003 A 
ENDBRANCH  28  29
ENDBRANCH  27  28
ENDBRANCH  24  27
ENDBRANCH  23  24
ENDBRANCH  22  23
ENDBRANCH   5  22
TORSDOF 17
ENDMDL
MODEL 9
REMARK VINA RESULT:      -8.1      3.977      8.325
REMARK  Name = *****
REMARK                            x       y       z     vdW  Elec       q    Type
REMARK                         _______ _______ _______ _____ _____    ______ ____
ROOT
ATOM      1  C   LIG    1       23.745 -21.439   6.334  0.00  0.00    +0.027 C 
ATOM      2  C   LIG    1       23.369 -22.745   7.046  0.00  0.00    +0.121 C 
ATOM      3  C   LIG    1       24.703 -23.195   7.626  0.00  0.00    +0.063 C 
ATOM      4  C   LIG    1       25.676 -22.949   6.474  0.00  0.00    +0.120 C 
ATOM      5  C   LIG    1       25.146 -21.713   5.716  0.00  0.00    +0.024 C 
ENDROOT
BRANCH   2   6
ATOM      6  O   LIG    1       22.909 -23.731   6.123  0.00  0.00    -0.391 OA
ATOM      7  H   LIG    1       22.141 -24.167   6.538  0.00  0.00    +0.210 HD
ENDBRANCH   2   6
BRANCH   4   8
ATOM      8  O   LIG    1       25.645 -24.076   5.594  0.00  0.00    -0.391 OA
ATOM      9  H   LIG    1       25.264 -24.816   6.111  0.00  0.00    +0.210 HD
ENDBRANCH   4   8
BRANCH   1  10
ATOM     10  C   LIG    1       22.739 -20.954   5.283  0.00  0.00    +0.033 C 
BRANCH  10  12
ATOM     11  C   LIG    1       23.004 -18.563   4.459  0.00  0.00    -0.031 C 
ATOM     12  C   LIG    1       22.522 -19.467   5.327  0.00  0.00    -0.031 C 
BRANCH  11  13
ATOM     13  C   LIG    1       23.894 -18.840   3.279  0.00  0.00    +0.027 C 
BRANCH  13  14
ATOM     14  C   LIG    1       25.363 -18.601   3.628  0.00  0.00    +0.015 C 
BRANCH  14  15
ATOM     15  C   LIG    1       25.845 -17.243   3.121  0.00  0.00    +0.121 C 
BRANCH  15  16
ATOM     16  C   LIG    1       27.099 -16.804   3.853  0.00  0.00    +0.307 C 
ATOM     17  O   LIG    1       27.966 -17.546   4.261  0.00  0.00    -0.251 OA
BRANCH  16  18
ATOM     18  O   LIG    1       27.115 -15.438   3.928  0.00  0.00    -0.462 OA
BRANCH  18  20
ATOM     19  C   LIG    1       25.236 -14.008   4.470  0.00  0.00    +0.051 C 
ATOM     20  C   LIG    1       25.967 -14.768   3.368  0.00  0.00    +0.170 C 
ATOM     21  C   LIG    1       26.466 -13.807   2.295  0.00  0.00    +0.051 C 
ENDBRANCH  18  20
ENDBRANCH  16  18
ENDBRANCH  15  16
ENDBRANCH  14  15
ENDBRANCH  13  14
ENDBRANCH  11  13
ENDBRANCH  10  12
ENDBRANCH   1  10
BRANCH   5  22
ATOM     22  C   LIG    1       26.055 -20.472   5.835  0.00  0.00    +0.009 C 
BRANCH  22  23
ATOM     23  C   LIG    1       27.483 -20.740   6.344  0.00  0.00    +0.032 C 
BRANCH  23  24
ATOM     24  C   LIG    1       27.847 -19.947   7.603  0.00  0.00    +0.115 C 
BRANCH  24  25
ATOM     25  O   LIG    1       27.100 -20.459   8.706  0.00  0.00    -0.392 OA
ATOM     26  H   LIG    1       27.135 -21.430   8.666  0.00  0.00    +0.210 HD
ENDBRANCH  24  25
BRANCH  24  27
ATOM     27  C   LIG    1       29.347 -20.005   7.914  0.00  0.00    +0.036 C 
BRANCH  27  28
ATOM     28  C   LIG    1       30.038 -18.700   7.503  0.00  0.00    +0.037 C 
BRANCH  28  29
ATOM     29  C   LIG    1       30.659 -18.003   8.685  0.00  0.00    -0.047 A 
ATOM     30  C   LIG    1       29.926 -17.813   9.864  0.00  0.00    +0.003 A 
ATOM     31  C   LIG    1       30.501 -17.153  10.950  0.00  0.00    +0.000 A 
ATOM     32  C   LIG    1       31.808 -16.676  10.865  0.00  0.00    +0.000 A 
ATOM     33  C   LIG    1       32.542 -16.857   9.695  0.00  0.00    +0.000 A 
ATOM     34  C   LIG    1       31.970 -17.517   8.607  0.00  0.00    +0.003 A 
ENDBRANCH  28  29
ENDBRANCH  27  28
ENDBRANCH  24  27
ENDBRANCH  23  24
ENDBRANCH  22  23
ENDBRANCH   5  22
TORSDOF 17
ENDMDL
