MODEL 1
REMARK VINA RESULT:      -8.3      0.000      0.000
REMARK  Name = *****
REMARK                            x       y       z     vdW  Elec       q    Type
REMARK                         _______ _______ _______ _____ _____    ______ ____
ROOT
ATOM      1  N   LIG    1       26.172 -19.205   4.518  0.00  0.00    -0.313 NA
ATOM      2  H   LIG    1       26.446 -18.485   3.847  0.00  0.00    +0.122 HD
ENDROOT
BRANCH   1   3
ATOM      3  C   LIG    1       25.163 -20.083   3.901  0.00  0.00    +0.081 C 
BRANCH   3   4
ATOM      4  C   LIG    1       23.829 -19.397   3.563  0.00  0.00    +0.015 C 
BRANCH   4   5
ATOM      5  C   LIG    1       22.853 -19.380   4.750  0.00  0.00    +0.001 C 
BRANCH   5   6
ATOM      6  C   LIG    1       22.796 -20.752   5.438  0.00  0.00    +0.002 C 
BRANCH   6   7
ATOM      7  C   LIG    1       23.349 -20.764   6.870  0.00  0.00    +0.028 C 
BRANCH   7   8
ATOM      8  C   LIG    1       23.658 -22.157   7.417  0.00  0.00    +0.160 C 
BRANCH   8   9
ATOM      9  O   LIG    1       22.610 -23.064   7.066  0.00  0.00    -0.380 OA
BRANCH   9  10
ATOM     10  C   LIG    1       23.129 -24.320   6.621  0.00  0.00    +0.160 C 
BRANCH  10  11
ATOM     11  C   LIG    1       24.652 -24.323   6.772  0.00  0.00    +0.028 C 
BRANCH  11  12
ATOM     12  C   LIG    1       25.397 -24.824   5.524  0.00  0.00    +0.007 C 
BRANCH  12  13
ATOM     13  C   LIG    1       26.339 -25.990   5.839  0.00  0.00    +0.035 C 
BRANCH  13  14
ATOM     14  C   LIG    1       25.640 -27.214   6.378  0.00  0.00    -0.047 A 
ATOM     15  C   LIG    1       25.971 -27.733   7.638  0.00  0.00    +0.003 A 
ATOM     16  C   LIG    1       25.352 -28.893   8.109  0.00  0.00    +0.000 A 
ATOM     17  C   LIG    1       24.398 -29.542   7.331  0.00  0.00    +0.000 A 
ATOM     18  C   LIG    1       24.056 -29.031   6.080  0.00  0.00    +0.000 A 
ATOM     19  C   LIG    1       24.674 -27.872   5.607  0.00  0.00    +0.003 A 
ENDBRANCH  13  14
ENDBRANCH  12  13
ENDBRANCH  11  12
ENDBRANCH  10  11
ENDBRANCH   9  10
ENDBRANCH   8   9
ENDBRANCH   7   8
ENDBRANCH   6   7
ENDBRANCH   5   6
ENDBRANCH   4   5
ENDBRANCH   3   4
ENDBRANCH   1   3
BRANCH   1  20
ATOM     20  C   LIG    1       27.377 -19.933   4.977  0.00  0.00    +0.117 C 
BRANCH  20  21
ATOM     21  C   LIG    1       27.253 -20.389   6.461  0.00  0.00    +0.158 C 
BRANCH  21  26
ATOM     22  C   LIG    1       30.410 -21.036   8.573  0.00  0.00    +0.019 A 
ATOM     23  C   LIG    1       30.998 -19.763   8.545  0.00  0.00    +0.122 A 
ATOM     24  C   LIG    1       30.375 -18.705   7.889  0.00  0.00    +0.046 A 
ATOM     25  C   LIG    1       29.153 -18.897   7.241  0.00  0.00    +0.010 A 
ATOM     26  C   LIG    1       28.542 -20.165   7.231  0.00  0.00    -0.017 A 
ATOM     27  C   LIG    1       29.183 -21.212   7.910  0.00  0.00    +0.015 A 
BRANCH  23  28
ATOM     28  O   LIG    1       32.198 -19.575   9.169  0.00  0.00    -0.506 OA
ATOM     29  H   LIG    1       32.090 -18.883   9.846  0.00  0.00    +0.292 HD
ENDBRANCH  23  28
BRANCH  22  30
ATOM     30  C   LIG    1       31.044 -22.187   9.298  0.00  0.00    +0.194 C 
BRANCH  30  31
ATOM     31  O   LIG    1       32.270 -22.534   8.661  0.00  0.00    -0.390 OA
ATOM     32  H   LIG    1       32.065 -23.274   8.067  0.00  0.00    +0.210 HD
ENDBRANCH  30  31
ENDBRANCH  22  30
ENDBRANCH  21  26
BRANCH  21  33
ATOM     33  O   LIG    1       26.887 -21.773   6.518  0.00  0.00    -0.386 OA
ATOM     34  H   LIG    1       26.468 -21.897   7.391  0.00  0.00    +0.210 HD
ENDBRANCH  21  33
ENDBRANCH  20  21
ENDBRANCH   1  20
TORSDOF 19
ENDMDL
MODEL 2
REMARK VINA RESULT:      -8.3      2.594      8.726
REMARK  Name = *****
REMARK                            x       y       z     vdW  Elec       q    Type
REMARK                         _______ _______ _______ _____ _____    ______ ____
ROOT
ATOM      1  N   LIG    1       22.875 -21.488   5.076  0.00  0.00    -0.313 NA
ATOM      2  H   LIG    1       22.267 -20.674   4.980  0.00  0.00    +0.122 HD
ENDROOT
BRANCH   1   3
ATOM      3  C   LIG    1       24.064 -21.308   4.224  0.00  0.00    +0.081 C 
BRANCH   3   4
ATOM      4  C   LIG    1       24.595 -19.866   4.153  0.00  0.00    +0.015 C 
BRANCH   4   5
ATOM      5  C   LIG    1       26.083 -19.764   4.522  0.00  0.00    +0.001 C 
BRANCH   5   6
ATOM      6  C   LIG    1       26.363 -20.424   5.881  0.00  0.00    +0.002 C 
BRANCH   6   7
ATOM      7  C   LIG    1       27.798 -20.231   6.392  0.00  0.00    +0.028 C 
BRANCH   7   8
ATOM      8  C   LIG    1       28.356 -21.422   7.171  0.00  0.00    +0.160 C 
BRANCH   8   9
ATOM      9  O   LIG    1       28.980 -20.971   8.376  0.00  0.00    -0.380 OA
BRANCH   9  10
ATOM     10  C   LIG    1       30.341 -21.402   8.455  0.00  0.00    +0.160 C 
BRANCH  10  11
ATOM     11  C   LIG    1       31.244 -20.195   8.718  0.00  0.00    +0.028 C 
BRANCH  11  12
ATOM     12  C   LIG    1       31.029 -19.035   7.733  0.00  0.00    +0.007 C 
BRANCH  12  13
ATOM     13  C   LIG    1       30.306 -17.849   8.381  0.00  0.00    +0.035 C 
BRANCH  13  14
ATOM     14  C   LIG    1       31.075 -17.205   9.507  0.00  0.00    -0.047 A 
ATOM     15  C   LIG    1       32.289 -16.545   9.263  0.00  0.00    +0.003 A 
ATOM     16  C   LIG    1       33.018 -15.992  10.318  0.00  0.00    +0.000 A 
ATOM     17  C   LIG    1       32.543 -16.087  11.622  0.00  0.00    +0.000 A 
ATOM     18  C   LIG    1       31.334 -16.735  11.876  0.00  0.00    +0.000 A 
ATOM     19  C   LIG    1       30.605 -17.290  10.823  0.00  0.00    +0.003 A 
ENDBRANCH  13  14
ENDBRANCH  12  13
ENDBRANCH  11  12
ENDBRANCH  10  11
ENDBRANCH   9  10
ENDBRANCH   8   9
ENDBRANCH   7   8
ENDBRANCH   6   7
ENDBRANCH   5   6
ENDBRANCH   4   5
ENDBRANCH   3   4
ENDBRANCH   1   3
BRANCH   1  20
ATOM     20  C   LIG    1       23.205 -21.691   6.505  0.00  0.00    +0.117 C 
BRANCH  20  21
ATOM     21  C   LIG    1       22.874 -23.136   6.980  0.00  0.00    +0.158 C 
BRANCH  21  26
ATOM     22  C   LIG    1       24.842 -26.292   5.974  0.00  0.00    +0.019 A 
ATOM     23  C   LIG    1       26.157 -25.821   6.099  0.00  0.00    +0.122 A 
ATOM     24  C   LIG    1       26.410 -24.523   6.532  0.00  0.00    +0.046 A 
ATOM     25  C   LIG    1       25.354 -23.664   6.846  0.00  0.00    +0.010 A 
ATOM     26  C   LIG    1       24.021 -24.096   6.713  0.00  0.00    -0.017 A 
ATOM     27  C   LIG    1       23.791 -25.413   6.287  0.00  0.00    +0.015 A 
BRANCH  23  28
ATOM     28  O   LIG    1       27.191 -26.655   5.783  0.00  0.00    -0.506 OA
ATOM     29  H   LIG    1       26.828 -27.537   5.589  0.00  0.00    +0.292 HD
ENDBRANCH  23  28
BRANCH  22  30
ATOM     30  C   LIG    1       24.541 -27.696   5.538  0.00  0.00    +0.194 C 
BRANCH  30  31
ATOM     31  O   LIG    1       25.463 -28.594   6.147  0.00  0.00    -0.390 OA
ATOM     32  H   LIG    1       26.253 -28.069   6.355  0.00  0.00    +0.210 HD
ENDBRANCH  30  31
ENDBRANCH  22  30
ENDBRANCH  21  26
BRANCH  21  33
ATOM     33  O   LIG    1       21.687 -23.605   6.329  0.00  0.00    -0.386 OA
ATOM     34  H   LIG    1       21.447 -24.433   6.787  0.00  0.00    +0.210 HD
ENDBRANCH  21  33
ENDBRANCH  20  21
ENDBRANCH   1  20
TORSDOF 19
ENDMDL
MODEL 3
REMARK VINA RESULT:      -7.9      3.322      5.012
REMARK  Name = *****
REMARK                            x       y       z     vdW  Elec       q    Type
REMARK                         _______ _______ _______ _____ _____    ______ ____
ROOT
ATOM      1  N   LIG    1       24.651 -21.769   8.046  0.00  0.00    -0.313 NA
ATOM      2  H   LIG    1       24.375 -21.589   9.013  0.00  0.00    +0.122 HD
ENDROOT
BRANCH   1   3
ATOM      3  C   LIG    1       23.443 -21.945   7.222  0.00  0.00    +0.081 C 
BRANCH   3   4
ATOM      4  C   LIG    1       23.154 -23.396   6.800  0.00  0.00    +0.015 C 
BRANCH   4   5
ATOM      5  C   LIG    1       24.435 -24.211   6.566  0.00  0.00    +0.001 C 
BRANCH   5   6
ATOM      6  C   LIG    1       24.105 -25.636   6.096  0.00  0.00    +0.002 C 
BRANCH   6   7
ATOM      7  C   LIG    1       25.260 -26.636   6.257  0.00  0.00    +0.028 C 
BRANCH   7   8
ATOM      8  C   LIG    1       24.820 -28.058   6.606  0.00  0.00    +0.160 C 
BRANCH   8   9
ATOM      9  O   LIG    1       25.489 -28.501   7.789  0.00  0.00    -0.380 OA
BRANCH   9  10
ATOM     10  C   LIG    1       24.914 -29.708   8.297  0.00  0.00    +0.160 C 
BRANCH  10  11
ATOM     11  C   LIG    1       25.253 -29.848   9.782  0.00  0.00    +0.028 C 
BRANCH  11  12
ATOM     12  C   LIG    1       24.034 -30.140  10.671  0.00  0.00    +0.007 C 
BRANCH  12  13
ATOM     13  C   LIG    1       24.251 -29.694  12.120  0.00  0.00    +0.035 C 
BRANCH  13  14
ATOM     14  C   LIG    1       23.295 -28.621  12.580  0.00  0.00    -0.047 A 
ATOM     15  C   LIG    1       21.909 -28.782  12.432  0.00  0.00    +0.003 A 
ATOM     16  C   LIG    1       21.034 -27.764  12.818  0.00  0.00    +0.000 A 
ATOM     17  C   LIG    1       21.532 -26.581  13.357  0.00  0.00    +0.000 A 
ATOM     18  C   LIG    1       22.907 -26.412  13.514  0.00  0.00    +0.000 A 
ATOM     19  C   LIG    1       23.783 -27.428  13.128  0.00  0.00    +0.003 A 
ENDBRANCH  13  14
ENDBRANCH  12  13
ENDBRANCH  11  12
ENDBRANCH  10  11
ENDBRANCH   9  10
ENDBRANCH   8   9
ENDBRANCH   7   8
ENDBRANCH   6   7
ENDBRANCH   5   6
ENDBRANCH   4   5
ENDBRANCH   3   4
ENDBRANCH   1   3
BRANCH   1  20
ATOM     20  C   LIG    1       25.526 -20.673   7.572  0.00  0.00    +0.117 C 
BRANCH  20  21
ATOM     21  C   LIG    1       26.564 -21.167   6.522  0.00  0.00    +0.158 C 
BRANCH  21  26
ATOM     22  C   LIG    1       30.095 -20.849   8.030  0.00  0.00    +0.019 A 
ATOM     23  C   LIG    1       30.595 -19.775   7.280  0.00  0.00    +0.122 A 
ATOM     24  C   LIG    1       29.801 -19.140   6.330  0.00  0.00    +0.046 A 
ATOM     25  C   LIG    1       28.490 -19.567   6.104  0.00  0.00    +0.010 A 
ATOM     26  C   LIG    1       27.961 -20.655   6.823  0.00  0.00    -0.017 A 
ATOM     27  C   LIG    1       28.777 -21.271   7.785  0.00  0.00    +0.015 A 
BRANCH  23  28
ATOM     28  O   LIG    1       31.879 -19.361   7.491  0.00  0.00    -0.506 OA
ATOM     29  H   LIG    1       32.255 -19.073   6.641  0.00  0.00    +0.292 HD
ENDBRANCH  23  28
BRANCH  22  30
ATOM     30  C   LIG    1       30.919 -21.534   9.082  0.00  0.00    +0.194 C 
BRANCH  30  31
ATOM     31  O   LIG    1       32.128 -22.016   8.502  0.00  0.00    -0.390 OA
ATOM     32  H   LIG    1       32.798 -21.973   9.203  0.00  0.00    +0.210 HD
ENDBRANCH  30  31
ENDBRANCH  22  30
ENDBRANCH  21  26
BRANCH  21  33
ATOM     33  O   LIG    1       26.167 -20.751   5.210  0.00  0.00    -0.386 OA
ATOM     34  H   LIG    1       26.894 -21.024   4.618  0.00  0.00    +0.210 HD
ENDBRANCH  21  33
ENDBRANCH  20  21
ENDBRANCH   1  20
TORSDOF 19
ENDMDL
MODEL 4
REMARK VINA RESULT:      -7.9      2.994      8.235
REMARK  Name = *****
REMARK                            x       y       z     vdW  Elec       q    Type
REMARK                         _______ _______ _______ _____ _____    ______ ____
ROOT
ATOM      1  N   LIG    1       23.979 -25.668   5.604  0.00  0.00    -0.313 NA
ATOM      2  H   LIG    1       23.829 -26.561   6.076  0.00  0.00    +0.122 HD
ENDROOT
BRANCH   1   3
ATOM      3  C   LIG    1       23.789 -24.571   6.570  0.00  0.00    +0.081 C 
BRANCH   3   4
ATOM      4  C   LIG    1       25.071 -23.806   6.939  0.00  0.00    +0.015 C 
BRANCH   4   5
ATOM      5  C   LIG    1       24.783 -22.430   7.557  0.00  0.00    +0.001 C 
BRANCH   5   6
ATOM      6  C   LIG    1       23.325 -22.010   7.317  0.00  0.00    +0.002 C 
BRANCH   6   7
ATOM      7  C   LIG    1       23.165 -20.641   6.639  0.00  0.00    +0.028 C 
BRANCH   7   8
ATOM      8  C   LIG    1       22.471 -20.687   5.278  0.00  0.00    +0.160 C 
BRANCH   8   9
ATOM      9  O   LIG    1       23.304 -20.087   4.283  0.00  0.00    -0.380 OA
BRANCH   9  10
ATOM     10  C   LIG    1       24.532 -20.802   4.124  0.00  0.00    +0.160 C 
BRANCH  10  11
ATOM     11  C   LIG    1       25.708 -19.833   4.263  0.00  0.00    +0.028 C 
BRANCH  11  12
ATOM     12  C   LIG    1       26.658 -20.173   5.421  0.00  0.00    +0.007 C 
BRANCH  12  13
ATOM     13  C   LIG    1       27.972 -19.390   5.344  0.00  0.00    +0.035 C 
BRANCH  13  14
ATOM     14  C   LIG    1       29.000 -19.816   6.363  0.00  0.00    -0.047 A 
ATOM     15  C   LIG    1       28.769 -20.920   7.198  0.00  0.00    +0.003 A 
ATOM     16  C   LIG    1       29.706 -21.279   8.170  0.00  0.00    +0.000 A 
ATOM     17  C   LIG    1       30.879 -20.545   8.315  0.00  0.00    +0.000 A 
ATOM     18  C   LIG    1       31.122 -19.449   7.487  0.00  0.00    +0.000 A 
ATOM     19  C   LIG    1       30.186 -19.089   6.516  0.00  0.00    +0.003 A 
ENDBRANCH  13  14
ENDBRANCH  12  13
ENDBRANCH  11  12
ENDBRANCH  10  11
ENDBRANCH   9  10
ENDBRANCH   8   9
ENDBRANCH   7   8
ENDBRANCH   6   7
ENDBRANCH   5   6
ENDBRANCH   4   5
ENDBRANCH   3   4
ENDBRANCH   1   3
BRANCH   1  20
ATOM     20  C   LIG    1       25.317 -25.664   4.972  0.00  0.00    +0.117 C 
BRANCH  20  21
ATOM     21  C   LIG    1       25.921 -27.097   4.876  0.00  0.00    +0.158 C 
BRANCH  21  26
ATOM     22  C   LIG    1       24.666 -29.937   7.158  0.00  0.00    +0.019 A 
ATOM     23  C   LIG    1       25.167 -29.507   8.395  0.00  0.00    +0.122 A 
ATOM     24  C   LIG    1       25.865 -28.308   8.503  0.00  0.00    +0.046 A 
ATOM     25  C   LIG    1       26.084 -27.514   7.375  0.00  0.00    +0.010 A 
ATOM     26  C   LIG    1       25.615 -27.923   6.113  0.00  0.00    -0.017 A 
ATOM     27  C   LIG    1       24.902 -29.129   6.032  0.00  0.00    +0.015 A 
BRANCH  23  28
ATOM     28  O   LIG    1       24.962 -30.286   9.498  0.00  0.00    -0.506 OA
ATOM     29  H   LIG    1       25.798 -30.736   9.717  0.00  0.00    +0.292 HD
ENDBRANCH  23  28
BRANCH  22  30
ATOM     30  C   LIG    1       23.883 -31.209   7.017  0.00  0.00    +0.194 C 
BRANCH  30  31
ATOM     31  O   LIG    1       23.286 -31.262   5.725  0.00  0.00    -0.390 OA
ATOM     32  H   LIG    1       23.873 -31.810   5.179  0.00  0.00    +0.210 HD
ENDBRANCH  30  31
ENDBRANCH  22  30
ENDBRANCH  21  26
BRANCH  21  33
ATOM     33  O   LIG    1       27.338 -27.018   4.684  0.00  0.00    -0.386 OA
ATOM     34  H   LIG    1       27.480 -26.256   4.091  0.00  0.00    +0.210 HD
ENDBRANCH  21  33
ENDBRANCH  20  21
ENDBRANCH   1  20
TORSDOF 19
ENDMDL
MODEL 5
REMARK VINA RESULT:      -7.9      3.277      8.531
REMARK  Name = *****
REMARK                            x       y       z     vdW  Elec       q    Type
REMARK                         _______ _______ _______ _____ _____    ______ ____
ROOT
ATOM      1  N   LIG    1       26.327 -27.506   5.193  0.00  0.00    -0.313 NA
ATOM      2  H   LIG    1       26.982 -27.444   4.413  0.00  0.00    +0.122 HD
ENDROOT
BRANCH   1   3
ATOM      3  C   LIG    1       25.578 -26.242   5.300  0.00  0.00    +0.081 C 
BRANCH   3   4
ATOM      4  C   LIG    1       26.175 -25.217   6.279  0.00  0.00    +0.015 C 
BRANCH   4   5
ATOM      5  C   LIG    1       25.105 -24.330   6.935  0.00  0.00    +0.001 C 
BRANCH   5   6
ATOM      6  C   LIG    1       23.694 -24.751   6.497  0.00  0.00    +0.002 C 
BRANCH   6   7
ATOM      7  C   LIG    1       22.635 -23.648   6.637  0.00  0.00    +0.028 C 
BRANCH   7   8
ATOM      8  C   LIG    1       23.172 -22.321   7.171  0.00  0.00    +0.160 C 
BRANCH   8   9
ATOM      9  O   LIG    1       22.773 -21.250   6.312  0.00  0.00    -0.380 OA
BRANCH   9  10
ATOM     10  C   LIG    1       23.896 -20.480   5.876  0.00  0.00    +0.160 C 
BRANCH  10  11
ATOM     11  C   LIG    1       25.046 -20.649   6.871  0.00  0.00    +0.028 C 
BRANCH  11  12
ATOM     12  C   LIG    1       26.434 -20.685   6.213  0.00  0.00    +0.007 C 
BRANCH  12  13
ATOM     13  C   LIG    1       27.468 -21.415   7.076  0.00  0.00    +0.035 C 
BRANCH  13  14
ATOM     14  C   LIG    1       28.801 -20.714   7.159  0.00  0.00    -0.047 A 
ATOM     15  C   LIG    1       29.744 -21.074   8.134  0.00  0.00    +0.003 A 
ATOM     16  C   LIG    1       30.957 -20.389   8.232  0.00  0.00    +0.000 A 
ATOM     17  C   LIG    1       31.242 -19.343   7.360  0.00  0.00    +0.000 A 
ATOM     18  C   LIG    1       30.315 -18.980   6.383  0.00  0.00    +0.000 A 
ATOM     19  C   LIG    1       29.103 -19.663   6.283  0.00  0.00    +0.003 A 
ENDBRANCH  13  14
ENDBRANCH  12  13
ENDBRANCH  11  12
ENDBRANCH  10  11
ENDBRANCH   9  10
ENDBRANCH   8   9
ENDBRANCH   7   8
ENDBRANCH   6   7
ENDBRANCH   5   6
ENDBRANCH   4   5
ENDBRANCH   3   4
ENDBRANCH   1   3
BRANCH   1  20
ATOM     20  C   LIG    1       25.454 -28.688   5.010  0.00  0.00    +0.117 C 
BRANCH  20  21
ATOM     21  C   LIG    1       24.361 -28.783   6.115  0.00  0.00    +0.158 C 
BRANCH  21  26
ATOM     22  C   LIG    1       26.107 -29.351   9.503  0.00  0.00    +0.019 A 
ATOM     23  C   LIG    1       25.741 -30.681   9.756  0.00  0.00    +0.122 A 
ATOM     24  C   LIG    1       24.976 -31.396   8.839  0.00  0.00    +0.046 A 
ATOM     25  C   LIG    1       24.554 -30.796   7.651  0.00  0.00    +0.010 A 
ATOM     26  C   LIG    1       24.885 -29.457   7.371  0.00  0.00    -0.017 A 
ATOM     27  C   LIG    1       25.668 -28.761   8.305  0.00  0.00    +0.015 A 
BRANCH  23  28
ATOM     28  O   LIG    1       26.143 -31.267  10.922  0.00  0.00    -0.506 OA
ATOM     29  H   LIG    1       27.116 -31.312  10.926  0.00  0.00    +0.292 HD
ENDBRANCH  23  28
BRANCH  22  30
ATOM     30  C   LIG    1       26.956 -28.566  10.459  0.00  0.00    +0.194 C 
BRANCH  30  31
ATOM     31  O   LIG    1       28.145 -29.294  10.751  0.00  0.00    -0.390 OA
ATOM     32  H   LIG    1       28.149 -29.431  11.712  0.00  0.00    +0.210 HD
ENDBRANCH  30  31
ENDBRANCH  22  30
ENDBRANCH  21  26
BRANCH  21  33
ATOM     33  O   LIG    1       23.225 -29.500   5.618  0.00  0.00    -0.386 OA
ATOM     34  H   LIG    1       23.340 -29.534   4.650  0.00  0.00    +0.210 HD
ENDBRANCH  21  33
ENDBRANCH  20  21
ENDBRANCH   1  20
TORSDOF 19
ENDMDL
MODEL 6
REMARK VINA RESULT:      -7.8      1.528      2.047
REMARK  Name = *****
REMARK                            x       y       z     vdW  Elec       q    Type
REMARK                         _______ _______ _______ _____ _____    ______ ____
ROOT
ATOM      1  N   LIG    1       26.622 -20.319   4.926  0.00  0.00    -0.313 NA
ATOM      2  H   LIG    1       26.027 -20.627   5.696  0.00  0.00    +0.122 HD
ENDROOT
BRANCH   1   3
ATOM      3  C   LIG    1       25.891 -19.332   4.112  0.00  0.00    +0.081 C 
BRANCH   3   4
ATOM      4  C   LIG    1       24.496 -19.784   3.647  0.00  0.00    +0.015 C 
BRANCH   4   5
ATOM      5  C   LIG    1       23.399 -18.763   3.985  0.00  0.00    +0.001 C 
BRANCH   5   6
ATOM      6  C   LIG    1       22.329 -19.382   4.898  0.00  0.00    +0.002 C 
BRANCH   6   7
ATOM      7  C   LIG    1       22.722 -20.738   5.501  0.00  0.00    +0.028 C 
BRANCH   7   8
ATOM      8  C   LIG    1       23.469 -20.646   6.830  0.00  0.00    +0.160 C 
BRANCH   8   9
ATOM      9  O   LIG    1       24.545 -21.588   6.855  0.00  0.00    -0.380 OA
BRANCH   9  10
ATOM     10  C   LIG    1       24.331 -22.652   5.924  0.00  0.00    +0.160 C 
BRANCH  10  11
ATOM     11  C   LIG    1       24.688 -23.985   6.584  0.00  0.00    +0.028 C 
BRANCH  11  12
ATOM     12  C   LIG    1       25.236 -25.035   5.604  0.00  0.00    +0.007 C 
BRANCH  12  13
ATOM     13  C   LIG    1       26.209 -26.008   6.279  0.00  0.00    +0.035 C 
BRANCH  13  14
ATOM     14  C   LIG    1       25.660 -27.402   6.451  0.00  0.00    -0.047 A 
ATOM     15  C   LIG    1       25.664 -28.025   7.709  0.00  0.00    +0.003 A 
ATOM     16  C   LIG    1       25.197 -29.333   7.850  0.00  0.00    +0.000 A 
ATOM     17  C   LIG    1       24.718 -30.029   6.744  0.00  0.00    +0.000 A 
ATOM     18  C   LIG    1       24.702 -29.417   5.491  0.00  0.00    +0.000 A 
ATOM     19  C   LIG    1       25.170 -28.110   5.347  0.00  0.00    +0.003 A 
ENDBRANCH  13  14
ENDBRANCH  12  13
ENDBRANCH  11  12
ENDBRANCH  10  11
ENDBRANCH   9  10
ENDBRANCH   8   9
ENDBRANCH   7   8
ENDBRANCH   6   7
ENDBRANCH   5   6
ENDBRANCH   4   5
ENDBRANCH   3   4
ENDBRANCH   1   3
BRANCH   1  20
ATOM     20  C   LIG    1       27.898 -19.799   5.467  0.00  0.00    +0.117 C 
BRANCH  20  21
ATOM     21  C   LIG    1       28.101 -20.193   6.960  0.00  0.00    +0.158 C 
BRANCH  21  26
ATOM     22  C   LIG    1       30.324 -18.299   9.474  0.00  0.00    +0.019 A 
ATOM     23  C   LIG    1       31.531 -18.254   8.761  0.00  0.00    +0.122 A 
ATOM     24  C   LIG    1       31.621 -18.791   7.480  0.00  0.00    +0.046 A 
ATOM     25  C   LIG    1       30.509 -19.390   6.885  0.00  0.00    +0.010 A 
ATOM     26  C   LIG    1       29.287 -19.472   7.578  0.00  0.00    -0.017 A 
ATOM     27  C   LIG    1       29.217 -18.912   8.863  0.00  0.00    +0.015 A 
BRANCH  23  28
ATOM     28  O   LIG    1       32.622 -17.677   9.344  0.00  0.00    -0.506 OA
ATOM     29  H   LIG    1       32.389 -17.427  10.256  0.00  0.00    +0.292 HD
ENDBRANCH  23  28
BRANCH  22  30
ATOM     30  C   LIG    1       30.190 -17.702  10.845  0.00  0.00    +0.194 C 
BRANCH  30  31
ATOM     31  O   LIG    1       30.351 -16.289  10.767  0.00  0.00    -0.390 OA
ATOM     32  H   LIG    1       30.060 -16.032   9.877  0.00  0.00    +0.210 HD
ENDBRANCH  30  31
ENDBRANCH  22  30
ENDBRANCH  21  26
BRANCH  21  33
ATOM     33  O   LIG    1       28.282 -21.609   7.072  0.00  0.00    -0.386 OA
ATOM     34  H   LIG    1       28.463 -21.777   8.016  0.00  0.00    +0.210 HD
ENDBRANCH  21  33
ENDBRANCH  20  21
ENDBRANCH   1  20
TORSDOF 19
ENDMDL
MODEL 7
REMARK VINA RESULT:      -7.7      3.072      5.241
REMARK  Name = *****
REMARK                            x       y       z     vdW  Elec       q    Type
REMARK                         _______ _______ _______ _____ _____    ______ ____
ROOT
ATOM      1  N   LIG    1       27.507 -17.432   4.000  0.00  0.00    -0.313 NA
ATOM      2  H   LIG    1       26.612 -17.743   4.381  0.00  0.00    +0.122 HD
ENDROOT
BRANCH   1   3
ATOM      3  C   LIG    1       27.573 -15.961   4.055  0.00  0.00    +0.081 C 
BRANCH   3   4
ATOM      4  C   LIG    1       26.523 -15.234   3.198  0.00  0.00    +0.015 C 
BRANCH   4   5
ATOM      5  C   LIG    1       26.304 -13.778   3.637  0.00  0.00    +0.001 C 
BRANCH   5   6
ATOM      6  C   LIG    1       25.064 -13.651   4.536  0.00  0.00    +0.002 C 
BRANCH   6   7
ATOM      7  C   LIG    1       23.776 -14.212   3.917  0.00  0.00    +0.028 C 
BRANCH   7   8
ATOM      8  C   LIG    1       23.093 -15.295   4.752  0.00  0.00    +0.160 C 
BRANCH   8   9
ATOM      9  O   LIG    1       23.160 -16.552   4.074  0.00  0.00    -0.380 OA
BRANCH   9  10
ATOM     10  C   LIG    1       22.221 -17.488   4.609  0.00  0.00    +0.160 C 
BRANCH  10  11
ATOM     11  C   LIG    1       22.680 -18.911   4.286  0.00  0.00    +0.028 C 
BRANCH  11  12
ATOM     12  C   LIG    1       22.701 -19.847   5.505  0.00  0.00    +0.007 C 
BRANCH  12  13
ATOM     13  C   LIG    1       23.445 -21.156   5.220  0.00  0.00    +0.035 C 
BRANCH  13  14
ATOM     14  C   LIG    1       24.447 -21.533   6.282  0.00  0.00    -0.047 A 
ATOM     15  C   LIG    1       25.071 -22.790   6.267  0.00  0.00    +0.003 A 
ATOM     16  C   LIG    1       25.963 -23.149   7.280  0.00  0.00    +0.000 A 
ATOM     17  C   LIG    1       26.244 -22.259   8.312  0.00  0.00    +0.000 A 
ATOM     18  C   LIG    1       25.635 -21.004   8.334  0.00  0.00    +0.000 A 
ATOM     19  C   LIG    1       24.742 -20.645   7.323  0.00  0.00    +0.003 A 
ENDBRANCH  13  14
ENDBRANCH  12  13
ENDBRANCH  11  12
ENDBRANCH  10  11
ENDBRANCH   9  10
ENDBRANCH   8   9
ENDBRANCH   7   8
ENDBRANCH   6   7
ENDBRANCH   5   6
ENDBRANCH   4   5
ENDBRANCH   3   4
ENDBRANCH   1   3
BRANCH   1  20
ATOM     20  C   LIG    1       28.610 -18.093   4.734  0.00  0.00    +0.117 C 
BRANCH  20  21
ATOM     21  C   LIG    1       28.086 -19.182   5.717  0.00  0.00    +0.158 C 
BRANCH  21  26
ATOM     22  C   LIG    1       31.088 -19.168   8.133  0.00  0.00    +0.019 A 
ATOM     23  C   LIG    1       31.095 -20.511   8.534  0.00  0.00    +0.122 A 
ATOM     24  C   LIG    1       30.176 -21.416   8.012  0.00  0.00    +0.046 A 
ATOM     25  C   LIG    1       29.223 -20.996   7.081  0.00  0.00    +0.010 A 
ATOM     26  C   LIG    1       29.171 -19.651   6.670  0.00  0.00    -0.017 A 
ATOM     27  C   LIG    1       30.118 -18.761   7.200  0.00  0.00    +0.015 A 
BRANCH  23  28
ATOM     28  O   LIG    1       32.020 -20.921   9.452  0.00  0.00    -0.506 OA
ATOM     29  H   LIG    1       31.583 -20.994  10.319  0.00  0.00    +0.292 HD
ENDBRANCH  23  28
BRANCH  22  30
ATOM     30  C   LIG    1       32.086 -18.177   8.656  0.00  0.00    +0.194 C 
BRANCH  30  31
ATOM     31  O   LIG    1       32.078 -18.198  10.080  0.00  0.00    -0.390 OA
ATOM     32  H   LIG    1       32.074 -17.269  10.364  0.00  0.00    +0.210 HD
ENDBRANCH  30  31
ENDBRANCH  22  30
ENDBRANCH  21  26
BRANCH  21  33
ATOM     33  O   LIG    1       27.571 -20.297   4.981  0.00  0.00    -0.386 OA
ATOM     34  H   LIG    1       26.684 -20.024   4.679  0.00  0.00    +0.210 HD
ENDBRANCH  21  33
ENDBRANCH  20  21
ENDBRANCH   1  20
TORSDOF 19
ENDMDL
MODEL 8
REMARK VINA RESULT:      -7.7      3.210      8.425
REMARK  Name = *****
REMARK                            x       y       z     vdW  Elec       q    Type
REMARK                         _______ _______ _______ _____ _____    ______ ____
ROOT
ATOM      1  N   LIG    1       25.802 -26.347   5.074  0.00  0.00    -0.313 NA
ATOM      2  H   LIG    1       25.896 -25.929   4.148  0.00  0.00    +0.122 HD
ENDROOT
BRANCH   1   3
ATOM      3  C   LIG    1       24.802 -25.592   5.849  0.00  0.00    +0.081 C 
BRANCH   3   4
ATOM      4  C   LIG    1       25.008 -24.067   5.856  0.00  0.00    +0.015 C 
BRANCH   4   5
ATOM      5  C   LIG    1       25.960 -23.602   6.969  0.00  0.00    +0.001 C 
BRANCH   5   6
ATOM      6  C   LIG    1       25.209 -22.797   8.040  0.00  0.00    +0.002 C 
BRANCH   6   7
ATOM      7  C   LIG    1       25.880 -21.468   8.417  0.00  0.00    +0.028 C 
BRANCH   7   8
ATOM      8  C   LIG    1       27.403 -21.472   8.290  0.00  0.00    +0.160 C 
BRANCH   8   9
ATOM      9  O   LIG    1       27.910 -20.143   8.439  0.00  0.00    -0.380 OA
BRANCH   9  10
ATOM     10  C   LIG    1       28.876 -19.834   7.430  0.00  0.00    +0.160 C 
BRANCH  10  11
ATOM     11  C   LIG    1       28.431 -20.438   6.097  0.00  0.00    +0.028 C 
BRANCH  11  12
ATOM     12  C   LIG    1       27.269 -19.684   5.432  0.00  0.00    +0.007 C 
BRANCH  12  13
ATOM     13  C   LIG    1       26.250 -20.633   4.793  0.00  0.00    +0.035 C 
BRANCH  13  14
ATOM     14  C   LIG    1       24.855 -20.064   4.704  0.00  0.00    -0.047 A 
ATOM     15  C   LIG    1       24.527 -19.117   3.722  0.00  0.00    +0.003 A 
ATOM     16  C   LIG    1       23.247 -18.561   3.676  0.00  0.00    +0.000 A 
ATOM     17  C   LIG    1       22.283 -18.946   4.604  0.00  0.00    +0.000 A 
ATOM     18  C   LIG    1       22.596 -19.892   5.580  0.00  0.00    +0.000 A 
ATOM     19  C   LIG    1       23.876 -20.447   5.628  0.00  0.00    +0.003 A 
ENDBRANCH  13  14
ENDBRANCH  12  13
ENDBRANCH  11  12
ENDBRANCH  10  11
ENDBRANCH   9  10
ENDBRANCH   8   9
ENDBRANCH   7   8
ENDBRANCH   6   7
ENDBRANCH   5   6
ENDBRANCH   4   5
ENDBRANCH   3   4
ENDBRANCH   1   3
BRANCH   1  20
ATOM     20  C   LIG    1       25.468 -27.783   4.934  0.00  0.00    +0.117 C 
BRANCH  20  21
ATOM     21  C   LIG    1       24.435 -28.249   6.002  0.00  0.00    +0.158 C 
BRANCH  21  26
ATOM     22  C   LIG    1       26.250 -29.280   9.241  0.00  0.00    +0.019 A 
ATOM     23  C   LIG    1       26.167 -30.676   9.143  0.00  0.00    +0.122 A 
ATOM     24  C   LIG    1       25.571 -31.279   8.040  0.00  0.00    +0.046 A 
ATOM     25  C   LIG    1       25.038 -30.499   7.011  0.00  0.00    +0.010 A 
ATOM     26  C   LIG    1       25.084 -29.095   7.084  0.00  0.00    -0.017 A 
ATOM     27  C   LIG    1       25.702 -28.510   8.200  0.00  0.00    +0.015 A 
BRANCH  23  28
ATOM     28  O   LIG    1       26.679 -31.441  10.153  0.00  0.00    -0.506 OA
ATOM     29  H   LIG    1       26.543 -30.971  10.995  0.00  0.00    +0.292 HD
ENDBRANCH  23  28
BRANCH  22  30
ATOM     30  C   LIG    1       26.914 -28.603  10.405  0.00  0.00    +0.194 C 
BRANCH  30  31
ATOM     31  O   LIG    1       28.159 -29.239  10.679  0.00  0.00    -0.390 OA
ATOM     32  H   LIG    1       27.942 -30.126  11.009  0.00  0.00    +0.210 HD
ENDBRANCH  30  31
ENDBRANCH  22  30
ENDBRANCH  21  26
BRANCH  21  33
ATOM     33  O   LIG    1       23.382 -28.989   5.374  0.00  0.00    -0.386 OA
ATOM     34  H   LIG    1       23.343 -28.660   4.456  0.00  0.00    +0.210 HD
ENDBRANCH  21  33
ENDBRANCH  20  21
ENDBRANCH   1  20
TORSDOF 19
ENDMDL
MODEL 9
REMARK VINA RESULT:      -7.7      2.001      3.772
REMARK  Name = *****
REMARK                            x       y       z     vdW  Elec       q    Type
REMARK                         _______ _______ _______ _____ _____    ______ ____
ROOT
ATOM      1  N   LIG    1       24.733 -21.706   8.087  0.00  0.00    -0.313 NA
ATOM      2  H   LIG    1       24.402 -21.581   9.045  0.00  0.00    +0.122 HD
ENDROOT
BRANCH   1   3
ATOM      3  C   LIG    1       23.584 -21.646   7.166  0.00  0.00    +0.081 C 
BRANCH   3   4
ATOM      4  C   LIG    1       23.010 -23.014   6.759  0.00  0.00    +0.015 C 
BRANCH   4   5
ATOM      5  C   LIG    1       24.077 -24.119   6.727  0.00  0.00    +0.001 C 
BRANCH   5   6
ATOM      6  C   LIG    1       24.860 -24.094   5.405  0.00  0.00    +0.002 C 
BRANCH   6   7
ATOM      7  C   LIG    1       25.289 -25.478   4.899  0.00  0.00    +0.028 C 
BRANCH   7   8
ATOM      8  C   LIG    1       26.177 -26.258   5.868  0.00  0.00    +0.160 C 
BRANCH   8   9
ATOM      9  O   LIG    1       25.461 -27.377   6.397  0.00  0.00    -0.380 OA
BRANCH   9  10
ATOM     10  C   LIG    1       24.605 -27.965   5.413  0.00  0.00    +0.160 C 
BRANCH  10  11
ATOM     11  C   LIG    1       24.032 -29.276   5.955  0.00  0.00    +0.028 C 
BRANCH  11  12
ATOM     12  C   LIG    1       24.980 -30.019   6.910  0.00  0.00    +0.007 C 
BRANCH  12  13
ATOM     13  C   LIG    1       24.313 -30.351   8.249  0.00  0.00    +0.035 C 
BRANCH  13  14
ATOM     14  C   LIG    1       25.005 -29.746   9.445  0.00  0.00    -0.047 A 
ATOM     15  C   LIG    1       24.443 -29.846  10.727  0.00  0.00    +0.003 A 
ATOM     16  C   LIG    1       25.067 -29.243  11.821  0.00  0.00    +0.000 A 
ATOM     17  C   LIG    1       26.256 -28.540  11.648  0.00  0.00    +0.000 A 
ATOM     18  C   LIG    1       26.827 -28.439  10.380  0.00  0.00    +0.000 A 
ATOM     19  C   LIG    1       26.204 -29.040   9.285  0.00  0.00    +0.003 A 
ENDBRANCH  13  14
ENDBRANCH  12  13
ENDBRANCH  11  12
ENDBRANCH  10  11
ENDBRANCH   9  10
ENDBRANCH   8   9
ENDBRANCH   7   8
ENDBRANCH   6   7
ENDBRANCH   5   6
ENDBRANCH   4   5
ENDBRANCH   3   4
ENDBRANCH   1   3
BRANCH   1  20
ATOM     20  C   LIG    1       25.772 -20.695   7.791  0.00  0.00    +0.117 C 
BRANCH  20  21
ATOM     21  C   LIG    1       26.802 -21.207   6.740  0.00  0.00    +0.158 C 
BRANCH  21  26
ATOM     22  C   LIG    1       30.365 -20.600   8.075  0.00  0.00    +0.019 A 
ATOM     23  C   LIG    1       30.768 -19.542   7.247  0.00  0.00    +0.122 A 
ATOM     24  C   LIG    1       29.900 -19.008   6.300  0.00  0.00    +0.046 A 
ATOM     25  C   LIG    1       28.610 -19.524   6.155  0.00  0.00    +0.010 A 
ATOM     26  C   LIG    1       28.177 -20.598   6.953  0.00  0.00    -0.017 A 
ATOM     27  C   LIG    1       29.066 -21.111   7.910  0.00  0.00    +0.015 A 
BRANCH  23  28
ATOM     28  O   LIG    1       32.032 -19.044   7.380  0.00  0.00    -0.506 OA
ATOM     29  H   LIG    1       32.352 -19.248   8.277  0.00  0.00    +0.292 HD
ENDBRANCH  23  28
BRANCH  22  30
ATOM     30  C   LIG    1       31.270 -21.176   9.125  0.00  0.00    +0.194 C 
BRANCH  30  31
ATOM     31  O   LIG    1       32.005 -22.265   8.576  0.00  0.00    -0.390 OA
ATOM     32  H   LIG    1       32.478 -21.911   7.805  0.00  0.00    +0.210 HD
ENDBRANCH  30  31
ENDBRANCH  22  30
ENDBRANCH  21  26
BRANCH  21  33
ATOM     33  O   LIG    1       26.339 -20.911   5.418  0.00  0.00    -0.386 OA
ATOM     34  H   LIG    1       25.635 -21.561   5.235  0.00  0.00    +0.210 HD
ENDBRANCH  21  33
ENDBRANCH  20  21
ENDBRANCH   1  20
TORSDOF 19
ENDMDL
