MODEL 1
REMARK VINA RESULT:      27.3      0.000      0.000
REMARK  Name = *****
REMARK                            x       y       z     vdW  Elec       q    Type
REMARK                         _______ _______ _______ _____ _____    ______ ____
ROOT
ATOM      1  C   LIG    1       26.074 -15.479   4.299  0.00  0.00    +0.098 C 
ENDROOT
BRANCH   1   2
ATOM      2  C   LIG    1       26.045 -16.688   5.282  0.00  0.00    +0.192 C 
BRANCH   2   3
ATOM      3  O   LIG    1       26.571 -17.913   4.792  0.00  0.00    -0.285 OA
BRANCH   3   4
ATOM      4  P   LIG    1       27.197 -19.108   5.653  0.00  0.00    +0.475 P 
ATOM      5  O   LIG    1       28.271 -18.728   6.621  0.00  0.00    -0.227 OA
BRANCH   4   6
ATOM      6  O   LIG    1       27.893 -20.099   4.603  0.00  0.00    -0.302 OA
ATOM      7  H   LIG    1       28.850 -19.887   4.696  0.00  0.00    +0.222 HD
ENDBRANCH   4   6
BRANCH   4   8
ATOM      8  O   LIG    1       26.085 -20.060   6.262  0.00  0.00    -0.283 OA
BRANCH   8   9
ATOM      9  C   LIG    1       25.277 -20.977   5.577  0.00  0.00    +0.130 C 
ATOM     10  C   LIG    1       24.074 -21.202   6.447  0.00  0.00    +0.033 C 
ATOM     11  C   LIG    1       23.312 -19.879   6.620  0.00  0.00    +0.019 C 
ATOM     12  C   LIG    1       22.886 -19.080   5.317  0.00  0.00    +0.021 C 
ATOM     13  C   LIG    1       24.030 -19.166   4.272  0.00  0.00    +0.019 C 
ATOM     14  C   LIG    1       24.794 -20.484   4.215  0.00  0.00    +0.033 C 
BRANCH  12  15
ATOM     15  C   LIG    1       22.669 -17.540   5.662  0.00  0.00    -0.037 A 
ATOM     16  C   LIG    1       23.476 -16.486   5.168  0.00  0.00    +0.004 A 
ATOM     17  C   LIG    1       23.181 -15.130   5.412  0.00  0.00    +0.000 A 
ATOM     18  C   LIG    1       22.123 -14.784   6.239  0.00  0.00    +0.000 A 
ATOM     19  C   LIG    1       21.378 -15.791   6.827  0.00  0.00    +0.000 A 
ATOM     20  C   LIG    1       21.650 -17.132   6.543  0.00  0.00    +0.004 A 
ENDBRANCH  12  15
BRANCH  12  21
ATOM     21  C   LIG    1       21.623 -19.770   4.716  0.00  0.00    -0.037 A 
ATOM     22  C   LIG    1       21.058 -20.929   5.274  0.00  0.00    +0.004 A 
ATOM     23  C   LIG    1       19.941 -21.568   4.751  0.00  0.00    +0.000 A 
ATOM     24  C   LIG    1       19.365 -21.083   3.598  0.00  0.00    +0.000 A 
ATOM     25  C   LIG    1       19.942 -20.000   2.956  0.00  0.00    +0.000 A 
ATOM     26  C   LIG    1       21.008 -19.323   3.543  0.00  0.00    +0.004 A 
ENDBRANCH  12  21
ENDBRANCH   8   9
ENDBRANCH   4   8
ENDBRANCH   3   4
ENDBRANCH   2   3
ENDBRANCH   1   2
BRANCH   1  27
ATOM     27  N   LIG    1       25.623 -15.871   2.902  0.00  0.00    -0.276 NA
BRANCH  27  28
ATOM     28  C   LIG    1       24.934 -17.184   2.781  0.00  0.00    +0.206 C 
BRANCH  28  29
ATOM     29  C   LIG    1       25.905 -18.314   2.465  0.00  0.00    +0.319 C 
ATOM     30  O   LIG    1       27.083 -18.327   2.553  0.00  0.00    -0.250 OA
BRANCH  29  31
ATOM     31  O   LIG    1       25.195 -19.394   2.024  0.00  0.00    -0.480 OA
ATOM     32  H   LIG    1       25.802 -19.832   1.398  0.00  0.00    +0.295 HD
ENDBRANCH  29  31
ENDBRANCH  28  29
ENDBRANCH  27  28
BRANCH  27  33
ATOM     33  C   LIG    1       25.066 -14.875   1.976  0.00  0.00    +0.206 C 
BRANCH  33  34
ATOM     34  C   LIG    1       23.750 -14.150   2.500  0.00  0.00    +0.319 C 
ATOM     35  O   LIG    1       22.654 -14.629   2.750  0.00  0.00    -0.250 OA
BRANCH  34  36
ATOM     36  O   LIG    1       23.913 -12.821   2.687  0.00  0.00    -0.480 OA
ATOM     37  H   LIG    1       24.365 -12.382   1.952  0.00  0.00    +0.295 HD
ENDBRANCH  34  36
ENDBRANCH  33  34
ENDBRANCH  27  33
ENDBRANCH   1  27
BRANCH   1  38
ATOM     38  C   LIG    1       25.468 -14.118   5.086  0.00  0.00    +0.106 C 
BRANCH  38  39
ATOM     39  N   LIG    1       25.685 -12.715   4.590  0.00  0.00    -0.290 NA
BRANCH  39  40
ATOM     40  C   LIG    1       25.062 -11.535   5.252  0.00  0.00    +0.205 C 
BRANCH  40  41
ATOM     41  C   LIG    1       23.538 -11.536   5.439  0.00  0.00    +0.319 C 
ATOM     42  O   LIG    1       22.739 -11.486   4.511  0.00  0.00    -0.250 OA
BRANCH  41  43
ATOM     43  O   LIG    1       23.071 -11.603   6.695  0.00  0.00    -0.480 OA
ATOM     44  H   LIG    1       23.276 -10.721   7.074  0.00  0.00    +0.295 HD
ENDBRANCH  41  43
ENDBRANCH  40  41
ENDBRANCH  39  40
BRANCH  39  45
ATOM     45  C   LIG    1       26.068 -12.396   3.183  0.00  0.00    +0.100 C 
BRANCH  45  46
ATOM     46  C   LIG    1       27.257 -11.507   2.602  0.00  0.00    +0.101 C 
BRANCH  46  47
ATOM     47  N   LIG    1       28.677 -12.016   2.600  0.00  0.00    -0.281 NA
BRANCH  47  48
ATOM     48  C   LIG    1       28.667 -13.553   2.490  0.00  0.00    +0.206 C 
BRANCH  48  49
ATOM     49  C   LIG    1       28.515 -14.272   3.877  0.00  0.00    +0.319 C 
ATOM     50  O   LIG    1       28.286 -13.768   4.931  0.00  0.00    -0.250 OA
BRANCH  49  51
ATOM     51  O   LIG    1       28.646 -15.625   3.735  0.00  0.00    -0.480 OA
ATOM     52  H   LIG    1       28.454 -15.982   4.624  0.00  0.00    +0.295 HD
ENDBRANCH  49  51
ENDBRANCH  48  49
ENDBRANCH  47  48
BRANCH  47  53
ATOM     53  C   LIG    1       29.387 -11.504   3.847  0.00  0.00    +0.206 C 
BRANCH  53  55
ATOM     54  O   LIG    1       27.450 -11.640   5.410  0.00  0.00    -0.250 OA
ATOM     55  C   LIG    1       28.650 -11.648   5.186  0.00  0.00    +0.319 C 
BRANCH  55  56
ATOM     56  O   LIG    1       29.475 -12.003   6.183  0.00  0.00    -0.480 OA
ATOM     57  H   LIG    1       29.447 -11.205   6.760  0.00  0.00    +0.295 HD
ENDBRANCH  55  56
ENDBRANCH  53  55
ENDBRANCH  47  53
ENDBRANCH  46  47
ENDBRANCH  45  46
ENDBRANCH  39  45
ENDBRANCH  38  39
ENDBRANCH   1  38
TORSDOF 29
ENDMDL
MODEL 2
REMARK VINA RESULT:      27.8      2.302      6.230
REMARK  Name = *****
REMARK                            x       y       z     vdW  Elec       q    Type
REMARK                         _______ _______ _______ _____ _____    ______ ____
ROOT
ATOM      1  C   LIG    1       23.954 -18.668   3.774  0.00  0.00    +0.098 C 
ENDROOT
BRANCH   1   2
ATOM      2  C   LIG    1       24.895 -19.015   4.965  0.00  0.00    +0.192 C 
BRANCH   2   3
ATOM      3  O   LIG    1       26.290 -18.987   4.697  0.00  0.00    -0.285 OA
BRANCH   3   4
ATOM      4  P   LIG    1       27.465 -19.528   5.639  0.00  0.00    +0.475 P 
ATOM      5  O   LIG    1       28.487 -20.398   4.979  0.00  0.00    -0.227 OA
BRANCH   4   6
ATOM      6  O   LIG    1       26.764 -20.450   6.747  0.00  0.00    -0.302 OA
ATOM      7  H   LIG    1       26.965 -19.981   7.588  0.00  0.00    +0.222 HD
ENDBRANCH   4   6
BRANCH   4   8
ATOM      8  O   LIG    1       28.080 -18.388   6.553  0.00  0.00    -0.283 OA
BRANCH   8   9
ATOM      9  C   LIG    1       29.131 -17.517   6.243  0.00  0.00    +0.130 C 
ATOM     10  C   LIG    1       28.957 -17.153   4.796  0.00  0.00    +0.033 C 
ATOM     11  C   LIG    1       27.618 -16.423   4.609  0.00  0.00    +0.019 C 
ATOM     12  C   LIG    1       27.317 -15.158   5.518  0.00  0.00    +0.021 C 
ATOM     13  C   LIG    1       27.841 -15.427   6.954  0.00  0.00    +0.019 C 
ATOM     14  C   LIG    1       29.134 -16.227   7.061  0.00  0.00    +0.033 C 
BRANCH  12  15
ATOM     15  C   LIG    1       25.746 -14.914   5.620  0.00  0.00    -0.037 A 
ATOM     16  C   LIG    1       24.974 -14.244   4.639  0.00  0.00    +0.004 A 
ATOM     17  C   LIG    1       23.570 -14.146   4.721  0.00  0.00    +0.000 A 
ATOM     18  C   LIG    1       22.900 -14.631   5.834  0.00  0.00    +0.000 A 
ATOM     19  C   LIG    1       23.634 -15.195   6.862  0.00  0.00    +0.000 A 
ATOM     20  C   LIG    1       25.021 -15.328   6.753  0.00  0.00    +0.004 A 
ENDBRANCH  12  15
BRANCH  12  21
ATOM     21  C   LIG    1       28.101 -13.943   4.933  0.00  0.00    -0.037 A 
ATOM     22  C   LIG    1       28.082 -12.672   5.534  0.00  0.00    +0.004 A 
ATOM     23  C   LIG    1       28.763 -11.573   5.026  0.00  0.00    +0.000 A 
ATOM     24  C   LIG    1       29.465 -11.698   3.848  0.00  0.00    +0.000 A 
ATOM     25  C   LIG    1       29.435 -12.904   3.168  0.00  0.00    +0.000 A 
ATOM     26  C   LIG    1       28.820 -14.016   3.737  0.00  0.00    +0.004 A 
ENDBRANCH  12  21
ENDBRANCH   8   9
ENDBRANCH   4   8
ENDBRANCH   3   4
ENDBRANCH   2   3
ENDBRANCH   1   2
BRANCH   1  27
ATOM     27  N   LIG    1       23.367 -19.913   3.131  0.00  0.00    -0.276 NA
BRANCH  27  28
ATOM     28  C   LIG    1       23.983 -20.337   1.844  0.00  0.00    +0.206 C 
BRANCH  28  29
ATOM     29  C   LIG    1       25.492 -20.130   1.835  0.00  0.00    +0.319 C 
ATOM     30  O   LIG    1       26.352 -20.940   1.834  0.00  0.00    -0.250 OA
BRANCH  29  31
ATOM     31  O   LIG    1       25.753 -18.790   1.838  0.00  0.00    -0.480 OA
ATOM     32  H   LIG    1       25.584 -18.522   2.761  0.00  0.00    +0.295 HD
ENDBRANCH  29  31
ENDBRANCH  28  29
ENDBRANCH  27  28
BRANCH  27  33
ATOM     33  C   LIG    1       22.955 -21.066   3.943  0.00  0.00    +0.206 C 
BRANCH  33  34
ATOM     34  C   LIG    1       22.154 -20.689   5.266  0.00  0.00    +0.319 C 
ATOM     35  O   LIG    1       22.553 -20.124   6.274  0.00  0.00    -0.250 OA
BRANCH  34  36
ATOM     36  O   LIG    1       20.854 -21.057   5.224  0.00  0.00    -0.480 OA
ATOM     37  H   LIG    1       20.261 -20.344   4.947  0.00  0.00    +0.295 HD
ENDBRANCH  34  36
ENDBRANCH  33  34
ENDBRANCH  27  33
ENDBRANCH   1  27
BRANCH   1  38
ATOM     38  C   LIG    1       22.999 -17.344   4.196  0.00  0.00    +0.106 C 
BRANCH  38  39
ATOM     39  N   LIG    1       22.116 -16.621   3.218  0.00  0.00    -0.290 NA
BRANCH  39  40
ATOM     40  C   LIG    1       20.881 -17.238   2.658  0.00  0.00    +0.205 C 
BRANCH  40  41
ATOM     41  C   LIG    1       19.965 -18.012   3.617  0.00  0.00    +0.319 C 
ATOM     42  O   LIG    1       19.350 -17.491   4.540  0.00  0.00    -0.250 OA
BRANCH  41  43
ATOM     43  O   LIG    1       19.836 -19.333   3.414  0.00  0.00    -0.480 OA
ATOM     44  H   LIG    1       19.226 -19.626   4.125  0.00  0.00    +0.295 HD
ENDBRANCH  41  43
ENDBRANCH  40  41
ENDBRANCH  39  40
BRANCH  39  45
ATOM     45  C   LIG    1       22.602 -15.514   2.341  0.00  0.00    +0.100 C 
BRANCH  45  46
ATOM     46  C   LIG    1       22.500 -13.931   2.506  0.00  0.00    +0.101 C 
BRANCH  46  47
ATOM     47  N   LIG    1       23.686 -13.121   2.965  0.00  0.00    -0.281 NA
BRANCH  47  48
ATOM     48  C   LIG    1       23.199 -11.759   3.496  0.00  0.00    +0.206 C 
BRANCH  48  49
ATOM     49  C   LIG    1       23.444 -11.572   5.036  0.00  0.00    +0.319 C 
ATOM     50  O   LIG    1       22.628 -11.563   5.902  0.00  0.00    -0.250 OA
BRANCH  49  51
ATOM     51  O   LIG    1       24.780 -11.449   5.298  0.00  0.00    -0.480 OA
ATOM     52  H   LIG    1       25.184 -12.230   4.872  0.00  0.00    +0.295 HD
ENDBRANCH  49  51
ENDBRANCH  48  49
ENDBRANCH  47  48
BRANCH  47  53
ATOM     53  C   LIG    1       24.677 -13.001   1.813  0.00  0.00    +0.206 C 
BRANCH  53  55
ATOM     54  O   LIG    1       27.132 -13.092   2.230  0.00  0.00    -0.250 OA
ATOM     55  C   LIG    1       26.062 -13.634   2.006  0.00  0.00    +0.319 C 
BRANCH  55  56
ATOM     56  O   LIG    1       25.999 -14.971   2.108  0.00  0.00    -0.480 OA
ATOM     57  H   LIG    1       25.330 -15.086   2.822  0.00  0.00    +0.295 HD
ENDBRANCH  55  56
ENDBRANCH  53  55
ENDBRANCH  47  53
ENDBRANCH  46  47
ENDBRANCH  45  46
ENDBRANCH  39  45
ENDBRANCH  38  39
ENDBRANCH   1  38
TORSDOF 29
ENDMDL
MODEL 3
REMARK VINA RESULT:      27.9      2.292      6.248
REMARK  Name = *****
REMARK                            x       y       z     vdW  Elec       q    Type
REMARK                         _______ _______ _______ _____ _____    ______ ____
ROOT
ATOM      1  C   LIG    1       23.736 -18.792   3.929  0.00  0.00    +0.098 C 
ENDROOT
BRANCH   1   2
ATOM      2  C   LIG    1       24.701 -19.181   5.089  0.00  0.00    +0.192 C 
BRANCH   2   3
ATOM      3  O   LIG    1       26.082 -18.930   4.873  0.00  0.00    -0.285 OA
BRANCH   3   4
ATOM      4  P   LIG    1       27.299 -19.338   5.829  0.00  0.00    +0.475 P 
ATOM      5  O   LIG    1       28.331 -20.237   5.230  0.00  0.00    -0.227 OA
BRANCH   4   6
ATOM      6  O   LIG    1       26.657 -20.165   7.043  0.00  0.00    -0.302 OA
ATOM      7  H   LIG    1       26.617 -19.502   7.769  0.00  0.00    +0.222 HD
ENDBRANCH   4   6
BRANCH   4   8
ATOM      8  O   LIG    1       27.898 -18.093   6.608  0.00  0.00    -0.283 OA
BRANCH   8   9
ATOM      9  C   LIG    1       28.955 -17.265   6.211  0.00  0.00    +0.130 C 
ATOM     10  C   LIG    1       28.711 -16.942   4.765  0.00  0.00    +0.033 C 
ATOM     11  C   LIG    1       27.384 -16.178   4.627  0.00  0.00    +0.019 C 
ATOM     12  C   LIG    1       27.171 -14.876   5.509  0.00  0.00    +0.021 C 
ATOM     13  C   LIG    1       27.766 -15.116   6.921  0.00  0.00    +0.019 C 
ATOM     14  C   LIG    1       29.040 -15.950   6.985  0.00  0.00    +0.033 C 
BRANCH  12  15
ATOM     15  C   LIG    1       25.616 -14.581   5.689  0.00  0.00    -0.037 A 
ATOM     16  C   LIG    1       25.031 -13.293   5.618  0.00  0.00    +0.004 A 
ATOM     17  C   LIG    1       23.637 -13.092   5.676  0.00  0.00    +0.000 A 
ATOM     18  C   LIG    1       22.787 -14.164   5.902  0.00  0.00    +0.000 A 
ATOM     19  C   LIG    1       23.331 -15.422   6.084  0.00  0.00    +0.000 A 
ATOM     20  C   LIG    1       24.712 -15.619   5.981  0.00  0.00    +0.004 A 
ENDBRANCH  12  15
BRANCH  12  21
ATOM     21  C   LIG    1       27.955 -13.705   4.842  0.00  0.00    -0.037 A 
ATOM     22  C   LIG    1       28.124 -13.605   3.449  0.00  0.00    +0.004 A 
ATOM     23  C   LIG    1       28.827 -12.578   2.833  0.00  0.00    +0.000 A 
ATOM     24  C   LIG    1       29.439 -11.618   3.608  0.00  0.00    +0.000 A 
ATOM     25  C   LIG    1       29.383 -11.726   4.987  0.00  0.00    +0.000 A 
ATOM     26  C   LIG    1       28.602 -12.712   5.583  0.00  0.00    +0.004 A 
ENDBRANCH  12  21
ENDBRANCH   8   9
ENDBRANCH   4   8
ENDBRANCH   3   4
ENDBRANCH   2   3
ENDBRANCH   1   2
BRANCH   1  27
ATOM     27  N   LIG    1       23.287 -20.006   3.132  0.00  0.00    -0.276 NA
BRANCH  27  28
ATOM     28  C   LIG    1       24.121 -20.357   1.950  0.00  0.00    +0.206 C 
BRANCH  28  29
ATOM     29  C   LIG    1       25.610 -20.306   2.263  0.00  0.00    +0.319 C 
ATOM     30  O   LIG    1       26.429 -19.557   1.859  0.00  0.00    -0.250 OA
BRANCH  29  31
ATOM     31  O   LIG    1       25.912 -21.318   3.129  0.00  0.00    -0.480 OA
ATOM     32  H   LIG    1       26.795 -21.616   2.842  0.00  0.00    +0.295 HD
ENDBRANCH  29  31
ENDBRANCH  28  29
ENDBRANCH  27  28
BRANCH  27  33
ATOM     33  C   LIG    1       22.760 -21.202   3.801  0.00  0.00    +0.206 C 
BRANCH  33  34
ATOM     34  C   LIG    1       22.155 -20.936   5.249  0.00  0.00    +0.319 C 
ATOM     35  O   LIG    1       22.660 -20.363   6.202  0.00  0.00    -0.250 OA
BRANCH  34  36
ATOM     36  O   LIG    1       20.903 -21.424   5.401  0.00  0.00    -0.480 OA
ATOM     37  H   LIG    1       20.543 -21.291   6.289  0.00  0.00    +0.295 HD
ENDBRANCH  34  36
ENDBRANCH  33  34
ENDBRANCH  27  33
ENDBRANCH   1  27
BRANCH   1  38
ATOM     38  C   LIG    1       22.646 -17.634   4.486  0.00  0.00    +0.106 C 
BRANCH  38  39
ATOM     39  N   LIG    1       21.841 -16.754   3.572  0.00  0.00    -0.290 NA
BRANCH  39  40
ATOM     40  C   LIG    1       20.364 -16.898   3.431  0.00  0.00    +0.205 C 
BRANCH  40  41
ATOM     41  C   LIG    1       19.804 -18.290   3.107  0.00  0.00    +0.319 C 
ATOM     42  O   LIG    1       19.507 -19.119   3.959  0.00  0.00    -0.250 OA
BRANCH  41  43
ATOM     43  O   LIG    1       19.630 -18.598   1.812  0.00  0.00    -0.480 OA
ATOM     44  H   LIG    1       19.006 -19.356   1.828  0.00  0.00    +0.295 HD
ENDBRANCH  41  43
ENDBRANCH  40  41
ENDBRANCH  39  40
BRANCH  39  45
ATOM     45  C   LIG    1       22.424 -16.055   2.387  0.00  0.00    +0.100 C 
BRANCH  45  46
ATOM     46  C   LIG    1       22.859 -14.535   2.184  0.00  0.00    +0.101 C 
BRANCH  46  47
ATOM     47  N   LIG    1       24.291 -14.172   1.880  0.00  0.00    -0.281 NA
BRANCH  47  48
ATOM     48  C   LIG    1       25.214 -14.813   2.934  0.00  0.00    +0.206 C 
BRANCH  48  49
ATOM     49  C   LIG    1       25.307 -16.376   2.808  0.00  0.00    +0.319 C 
ATOM     50  O   LIG    1       24.530 -17.181   3.211  0.00  0.00    -0.250 OA
BRANCH  49  51
ATOM     51  O   LIG    1       26.427 -16.735   2.111  0.00  0.00    -0.480 OA
ATOM     52  H   LIG    1       27.129 -16.153   2.462  0.00  0.00    +0.295 HD
ENDBRANCH  49  51
ENDBRANCH  48  49
ENDBRANCH  47  48
BRANCH  47  53
ATOM     53  C   LIG    1       24.412 -12.655   1.813  0.00  0.00    +0.206 C 
BRANCH  53  55
ATOM     54  O   LIG    1       22.942 -11.705   3.587  0.00  0.00    -0.250 OA
ATOM     55  C   LIG    1       24.038 -11.862   3.073  0.00  0.00    +0.319 C 
BRANCH  55  56
ATOM     56  O   LIG    1       25.119 -11.456   3.757  0.00  0.00    -0.480 OA
ATOM     57  H   LIG    1       24.902 -11.755   4.670  0.00  0.00    +0.295 HD
ENDBRANCH  55  56
ENDBRANCH  53  55
ENDBRANCH  47  53
ENDBRANCH  46  47
ENDBRANCH  45  46
ENDBRANCH  39  45
ENDBRANCH  38  39
ENDBRANCH   1  38
TORSDOF 29
ENDMDL
MODEL 4
REMARK VINA RESULT:      29.3      2.078      5.038
REMARK  Name = *****
REMARK                            x       y       z     vdW  Elec       q    Type
REMARK                         _______ _______ _______ _____ _____    ______ ____
ROOT
ATOM      1  C   LIG    1       26.306 -13.326   3.815  0.00  0.00    +0.098 C 
ENDROOT
BRANCH   1   2
ATOM      2  C   LIG    1       25.803 -12.930   5.235  0.00  0.00    +0.192 C 
BRANCH   2   3
ATOM      3  O   LIG    1       24.403 -13.013   5.456  0.00  0.00    -0.285 OA
BRANCH   3   4
ATOM      4  P   LIG    1       23.571 -14.302   5.915  0.00  0.00    +0.475 P 
ATOM      5  O   LIG    1       22.377 -14.040   6.775  0.00  0.00    -0.227 OA
BRANCH   4   6
ATOM      6  O   LIG    1       24.567 -15.181   6.812  0.00  0.00    -0.302 OA
ATOM      7  H   LIG    1       25.245 -15.481   6.165  0.00  0.00    +0.222 HD
ENDBRANCH   4   6
BRANCH   4   8
ATOM      8  O   LIG    1       23.299 -15.302   4.715  0.00  0.00    -0.283 OA
BRANCH   8   9
ATOM      9  C   LIG    1       22.060 -15.756   4.246  0.00  0.00    +0.130 C 
ATOM     10  C   LIG    1       22.364 -16.730   3.144  0.00  0.00    +0.033 C 
ATOM     11  C   LIG    1       23.161 -17.915   3.712  0.00  0.00    +0.019 C 
ATOM     12  C   LIG    1       22.566 -18.691   4.962  0.00  0.00    +0.021 C 
ATOM     13  C   LIG    1       21.926 -17.669   5.938  0.00  0.00    +0.019 C 
ATOM     14  C   LIG    1       21.222 -16.477   5.300  0.00  0.00    +0.033 C 
BRANCH  12  15
ATOM     15  C   LIG    1       23.731 -19.440   5.750  0.00  0.00    -0.037 A 
ATOM     16  C   LIG    1       23.592 -20.703   6.376  0.00  0.00    +0.004 A 
ATOM     17  C   LIG    1       24.678 -21.377   6.968  0.00  0.00    +0.000 A 
ATOM     18  C   LIG    1       25.922 -20.767   7.040  0.00  0.00    +0.000 A 
ATOM     19  C   LIG    1       26.069 -19.488   6.534  0.00  0.00    +0.000 A 
ATOM     20  C   LIG    1       24.996 -18.845   5.908  0.00  0.00    +0.004 A 
ENDBRANCH  12  15
BRANCH  12  21
ATOM     21  C   LIG    1       21.444 -19.646   4.451  0.00  0.00    -0.037 A 
ATOM     22  C   LIG    1       20.889 -20.657   5.254  0.00  0.00    +0.004 A 
ATOM     23  C   LIG    1       19.897 -21.526   4.818  0.00  0.00    +0.000 A 
ATOM     24  C   LIG    1       19.447 -21.441   3.519  0.00  0.00    +0.000 A 
ATOM     25  C   LIG    1       20.030 -20.525   2.661  0.00  0.00    +0.000 A 
ATOM     26  C   LIG    1       20.961 -19.607   3.140  0.00  0.00    +0.004 A 
ENDBRANCH  12  21
ENDBRANCH   8   9
ENDBRANCH   4   8
ENDBRANCH   3   4
ENDBRANCH   2   3
ENDBRANCH   1   2
BRANCH   1  27
ATOM     27  N   LIG    1       26.477 -12.115   2.914  0.00  0.00    -0.276 NA
BRANCH  27  28
ATOM     28  C   LIG    1       27.864 -11.830   2.455  0.00  0.00    +0.206 C 
BRANCH  28  29
ATOM     29  C   LIG    1       28.897 -12.660   3.207  0.00  0.00    +0.319 C 
ATOM     30  O   LIG    1       29.300 -12.522   4.309  0.00  0.00    -0.250 OA
BRANCH  29  31
ATOM     31  O   LIG    1       29.344 -13.655   2.386  0.00  0.00    -0.480 OA
ATOM     32  H   LIG    1       28.526 -14.043   2.023  0.00  0.00    +0.295 HD
ENDBRANCH  29  31
ENDBRANCH  28  29
ENDBRANCH  27  28
BRANCH  27  33
ATOM     33  C   LIG    1       25.484 -11.790   1.880  0.00  0.00    +0.206 C 
BRANCH  33  34
ATOM     34  C   LIG    1       24.009 -11.557   2.432  0.00  0.00    +0.319 C 
ATOM     35  O   LIG    1       22.959 -11.474   1.812  0.00  0.00    -0.250 OA
BRANCH  34  36
ATOM     36  O   LIG    1       23.955 -11.447   3.778  0.00  0.00    -0.480 OA
ATOM     37  H   LIG    1       24.535 -12.069   4.239  0.00  0.00    +0.295 HD
ENDBRANCH  34  36
ENDBRANCH  33  34
ENDBRANCH  27  33
ENDBRANCH   1  27
BRANCH   1  38
ATOM     38  C   LIG    1       27.500 -14.506   3.965  0.00  0.00    +0.106 C 
BRANCH  38  39
ATOM     39  N   LIG    1       28.010 -14.997   5.291  0.00  0.00    -0.290 NA
BRANCH  39  40
ATOM     40  C   LIG    1       27.966 -14.153   6.519  0.00  0.00    +0.205 C 
BRANCH  40  41
ATOM     41  C   LIG    1       27.944 -12.628   6.344  0.00  0.00    +0.319 C 
ATOM     42  O   LIG    1       27.041 -11.909   6.757  0.00  0.00    -0.250 OA
BRANCH  41  43
ATOM     43  O   LIG    1       28.983 -12.066   5.707  0.00  0.00    -0.480 OA
ATOM     44  H   LIG    1       29.679 -12.757   5.730  0.00  0.00    +0.295 HD
ENDBRANCH  41  43
ENDBRANCH  40  41
ENDBRANCH  39  40
BRANCH  39  45
ATOM     45  C   LIG    1       29.030 -16.079   5.425  0.00  0.00    +0.100 C 
BRANCH  45  46
ATOM     46  C   LIG    1       29.121 -17.517   4.741  0.00  0.00    +0.101 C 
BRANCH  46  47
ATOM     47  N   LIG    1       27.924 -18.127   4.056  0.00  0.00    -0.281 NA
BRANCH  47  48
ATOM     48  C   LIG    1       26.682 -17.257   4.329  0.00  0.00    +0.206 C 
BRANCH  48  49
ATOM     49  C   LIG    1       26.215 -16.435   3.076  0.00  0.00    +0.319 C 
ATOM     50  O   LIG    1       26.890 -15.773   2.352  0.00  0.00    -0.250 OA
BRANCH  49  51
ATOM     51  O   LIG    1       24.873 -16.596   2.868  0.00  0.00    -0.480 OA
ATOM     52  H   LIG    1       24.464 -16.338   3.717  0.00  0.00    +0.295 HD
ENDBRANCH  49  51
ENDBRANCH  48  49
ENDBRANCH  47  48
BRANCH  47  53
ATOM     53  C   LIG    1       27.768 -19.568   4.526  0.00  0.00    +0.206 C 
BRANCH  53  55
ATOM     54  O   LIG    1       28.071 -19.357   6.991  0.00  0.00    -0.250 OA
ATOM     55  C   LIG    1       28.292 -19.913   5.927  0.00  0.00    +0.319 C 
BRANCH  55  56
ATOM     56  O   LIG    1       28.929 -21.094   5.953  0.00  0.00    -0.480 OA
ATOM     57  H   LIG    1       28.259 -21.673   6.384  0.00  0.00    +0.295 HD
ENDBRANCH  55  56
ENDBRANCH  53  55
ENDBRANCH  47  53
ENDBRANCH  46  47
ENDBRANCH  45  46
ENDBRANCH  39  45
ENDBRANCH  38  39
ENDBRANCH   1  38
TORSDOF 29
ENDMDL
MODEL 5
REMARK VINA RESULT:      29.7      2.098      5.007
REMARK  Name = *****
REMARK                            x       y       z     vdW  Elec       q    Type
REMARK                         _______ _______ _______ _____ _____    ______ ____
ROOT
ATOM      1  C   LIG    1       25.588 -18.570   3.028  0.00  0.00    +0.098 C 
ENDROOT
BRANCH   1   2
ATOM      2  C   LIG    1       24.350 -19.278   2.403  0.00  0.00    +0.192 C 
BRANCH   2   3
ATOM      3  O   LIG    1       23.338 -19.697   3.307  0.00  0.00    -0.285 OA
BRANCH   3   4
ATOM      4  P   LIG    1       21.939 -20.384   2.941  0.00  0.00    +0.475 P 
ATOM      5  O   LIG    1       21.213 -21.037   4.072  0.00  0.00    -0.227 OA
BRANCH   4   6
ATOM      6  O   LIG    1       22.276 -21.562   1.906  0.00  0.00    -0.302 OA
ATOM      7  H   LIG    1       23.123 -21.267   1.500  0.00  0.00    +0.222 HD
ENDBRANCH   4   6
BRANCH   4   8
ATOM      8  O   LIG    1       21.028 -19.453   2.038  0.00  0.00    -0.283 OA
BRANCH   8   9
ATOM      9  C   LIG    1       20.650 -18.128   2.286  0.00  0.00    +0.130 C 
ATOM     10  C   LIG    1       19.838 -18.156   3.549  0.00  0.00    +0.033 C 
ATOM     11  C   LIG    1       20.711 -18.664   4.708  0.00  0.00    +0.019 C 
ATOM     12  C   LIG    1       22.096 -17.939   4.979  0.00  0.00    +0.021 C 
ATOM     13  C   LIG    1       22.763 -17.593   3.622  0.00  0.00    +0.019 C 
ATOM     14  C   LIG    1       21.825 -17.174   2.496  0.00  0.00    +0.033 C 
BRANCH  12  15
ATOM     15  C   LIG    1       23.083 -18.915   5.762  0.00  0.00    -0.037 A 
ATOM     16  C   LIG    1       22.673 -20.071   6.470  0.00  0.00    +0.004 A 
ATOM     17  C   LIG    1       23.592 -20.963   7.056  0.00  0.00    +0.000 A 
ATOM     18  C   LIG    1       24.950 -20.680   7.037  0.00  0.00    +0.000 A 
ATOM     19  C   LIG    1       25.378 -19.503   6.449  0.00  0.00    +0.000 A 
ATOM     20  C   LIG    1       24.463 -18.646   5.830  0.00  0.00    +0.004 A 
ENDBRANCH  12  15
BRANCH  12  21
ATOM     21  C   LIG    1       21.807 -16.606   5.735  0.00  0.00    -0.037 A 
ATOM     22  C   LIG    1       20.514 -16.066   5.844  0.00  0.00    +0.004 A 
ATOM     23  C   LIG    1       20.233 -14.875   6.502  0.00  0.00    +0.000 A 
ATOM     24  C   LIG    1       21.265 -14.144   7.047  0.00  0.00    +0.000 A 
ATOM     25  C   LIG    1       22.567 -14.586   6.882  0.00  0.00    +0.000 A 
ATOM     26  C   LIG    1       22.820 -15.823   6.296  0.00  0.00    +0.004 A 
ENDBRANCH  12  21
ENDBRANCH   8   9
ENDBRANCH   4   8
ENDBRANCH   3   4
ENDBRANCH   2   3
ENDBRANCH   1   2
BRANCH   1  27
ATOM     27  N   LIG    1       26.693 -19.555   3.374  0.00  0.00    -0.276 NA
BRANCH  27  28
ATOM     28  C   LIG    1       27.725 -19.071   4.331  0.00  0.00    +0.206 C 
BRANCH  28  29
ATOM     29  C   LIG    1       28.115 -20.141   5.342  0.00  0.00    +0.319 C 
ATOM     30  O   LIG    1       29.188 -20.559   5.604  0.00  0.00    -0.250 OA
BRANCH  29  31
ATOM     31  O   LIG    1       26.984 -20.603   5.953  0.00  0.00    -0.480 OA
ATOM     32  H   LIG    1       27.183 -21.540   6.133  0.00  0.00    +0.295 HD
ENDBRANCH  29  31
ENDBRANCH  28  29
ENDBRANCH  27  28
BRANCH  27  33
ATOM     33  C   LIG    1       26.406 -20.984   3.558  0.00  0.00    +0.206 C 
BRANCH  33  34
ATOM     34  C   LIG    1       24.883 -21.316   3.882  0.00  0.00    +0.319 C 
ATOM     35  O   LIG    1       24.362 -21.571   4.957  0.00  0.00    -0.250 OA
BRANCH  34  36
ATOM     36  O   LIG    1       24.090 -21.297   2.788  0.00  0.00    -0.480 OA
ATOM     37  H   LIG    1       23.607 -20.466   2.676  0.00  0.00    +0.295 HD
ENDBRANCH  34  36
ENDBRANCH  33  34
ENDBRANCH  27  33
ENDBRANCH   1  27
BRANCH   1  38
ATOM     38  C   LIG    1       25.893 -17.146   2.180  0.00  0.00    +0.106 C 
BRANCH  38  39
ATOM     39  N   LIG    1       25.829 -15.783   2.810  0.00  0.00    -0.290 NA
BRANCH  39  40
ATOM     40  C   LIG    1       25.776 -15.595   4.288  0.00  0.00    +0.205 C 
BRANCH  40  41
ATOM     41  C   LIG    1       27.064 -15.171   5.007  0.00  0.00    +0.319 C 
ATOM     42  O   LIG    1       28.179 -15.577   4.701  0.00  0.00    -0.250 OA
BRANCH  41  43
ATOM     43  O   LIG    1       26.945 -14.299   6.021  0.00  0.00    -0.480 OA
ATOM     44  H   LIG    1       27.799 -13.816   6.022  0.00  0.00    +0.295 HD
ENDBRANCH  41  43
ENDBRANCH  40  41
ENDBRANCH  39  40
BRANCH  39  45
ATOM     45  C   LIG    1       25.307 -14.577   2.101  0.00  0.00    +0.100 C 
BRANCH  45  46
ATOM     46  C   LIG    1       25.976 -13.155   1.831  0.00  0.00    +0.101 C 
BRANCH  46  47
ATOM     47  N   LIG    1       26.129 -12.146   2.940  0.00  0.00    -0.281 NA
BRANCH  47  48
ATOM     48  C   LIG    1       27.159 -12.665   3.963  0.00  0.00    +0.206 C 
BRANCH  48  49
ATOM     49  C   LIG    1       28.646 -12.395   3.534  0.00  0.00    +0.319 C 
ATOM     50  O   LIG    1       29.448 -11.716   4.094  0.00  0.00    -0.250 OA
BRANCH  49  51
ATOM     51  O   LIG    1       28.953 -13.094   2.400  0.00  0.00    -0.480 OA
ATOM     52  H   LIG    1       28.087 -13.271   1.983  0.00  0.00    +0.295 HD
ENDBRANCH  49  51
ENDBRANCH  48  49
ENDBRANCH  47  48
BRANCH  47  53
ATOM     53  C   LIG    1       24.760 -11.870   3.549  0.00  0.00    +0.206 C 
BRANCH  53  55
ATOM     54  O   LIG    1       25.439 -11.823   5.947  0.00  0.00    -0.250 OA
ATOM     55  C   LIG    1       24.618 -12.036   5.068  0.00  0.00    +0.319 C 
BRANCH  55  56
ATOM     56  O   LIG    1       23.351 -12.280   5.436  0.00  0.00    -0.480 OA
ATOM     57  H   LIG    1       23.432 -13.165   5.860  0.00  0.00    +0.295 HD
ENDBRANCH  55  56
ENDBRANCH  53  55
ENDBRANCH  47  53
ENDBRANCH  46  47
ENDBRANCH  45  46
ENDBRANCH  39  45
ENDBRANCH  38  39
ENDBRANCH   1  38
TORSDOF 29
ENDMDL
