MODEL 1
REMARK VINA RESULT:      -4.7      0.000      0.000
REMARK  Name = *****
REMARK                            x       y       z     vdW  Elec       q    Type
REMARK                         _______ _______ _______ _____ _____    ______ ____
ROOT
ATOM      1  C   LIG    1       26.154 -18.913   4.030  0.00  0.00    +0.402 C 
ATOM      2  N   LIG    1       26.900 -19.455   4.967  0.00  0.00    +0.011 NA
ENDROOT
BRANCH   1   3
ATOM      3  N   LIG    1       24.864 -19.341   3.852  0.00  0.00    -0.272 N 
ATOM      4  H   LIG    1       24.206 -18.572   3.868  0.00  0.00    +0.258 HD
BRANCH   3   6
ATOM      5  C   LIG    1       24.036 -21.493   3.188  0.00  0.00    +0.048 C 
ATOM      6  C   LIG    1       24.286 -20.578   4.398  0.00  0.00    +0.147 C 
BRANCH   6   7
ATOM      7  C   LIG    1       22.985 -20.264   5.230  0.00  0.00    -0.004 C 
ATOM      8  C   LIG    1       23.274 -20.341   6.746  0.00  0.00    +0.014 C 
ATOM      9  C   LIG    1       21.856 -21.280   4.939  0.00  0.00    +0.014 C 
ATOM     10  C   LIG    1       22.436 -18.857   4.914  0.00  0.00    +0.014 C 
ENDBRANCH   6   7
ENDBRANCH   3   6
ENDBRANCH   1   3
BRANCH   1  11
ATOM     11  N   LIG    1       26.466 -17.814   3.251  0.00  0.00    -0.242 N 
ATOM     12  H   LIG    1       26.489 -17.965   2.245  0.00  0.00    +0.265 HD
BRANCH  11  13
ATOM     13  C   LIG    1       26.248 -16.443   3.546  0.00  0.00    +0.103 A 
ATOM     14  C   LIG    1       27.340 -15.610   3.821  0.00  0.00    +0.062 A 
ATOM     15  C   LIG    1       27.113 -14.270   4.112  0.00  0.00    +0.114 A 
ATOM     16  N   LIG    1       25.887 -13.712   4.157  0.00  0.00    -0.263 NA
ATOM     17  C   LIG    1       24.844 -14.528   3.908  0.00  0.00    +0.114 A 
ATOM     18  C   LIG    1       24.972 -15.877   3.611  0.00  0.00    +0.062 A 
ENDBRANCH  11  13
ENDBRANCH   1  11
BRANCH   2  19
ATOM     19  C   LIG    1       28.121 -18.980   5.184  0.00  0.00    +0.295 C 
ATOM     20  N   LIG    1       29.180 -18.537   5.389  0.00  0.00    -0.150 NA
ENDBRANCH   2  19
TORSDOF 6
ENDMDL
MODEL 2
REMARK VINA RESULT:      -4.4      1.238      3.682
REMARK  Name = *****
REMARK                            x       y       z     vdW  Elec       q    Type
REMARK                         _______ _______ _______ _____ _____    ______ ____
ROOT
ATOM      1  C   LIG    1       25.443 -18.239   3.601  0.00  0.00    +0.402 C 
ATOM      2  N   LIG    1       25.232 -16.953   3.428  0.00  0.00    +0.011 NA
ENDROOT
BRANCH   1   3
ATOM      3  N   LIG    1       24.388 -19.114   3.575  0.00  0.00    -0.272 N 
ATOM      4  H   LIG    1       23.508 -18.638   3.420  0.00  0.00    +0.258 HD
BRANCH   3   6
ATOM      5  C   LIG    1       24.225 -21.505   3.474  0.00  0.00    +0.048 C 
ATOM      6  C   LIG    1       24.235 -20.300   4.429  0.00  0.00    +0.147 C 
BRANCH   6   7
ATOM      7  C   LIG    1       22.934 -20.185   5.311  0.00  0.00    -0.004 C 
ATOM      8  C   LIG    1       22.288 -18.791   5.152  0.00  0.00    +0.014 C 
ATOM      9  C   LIG    1       23.242 -20.366   6.817  0.00  0.00    +0.014 C 
ATOM     10  C   LIG    1       21.888 -21.250   4.921  0.00  0.00    +0.014 C 
ENDBRANCH   6   7
ENDBRANCH   3   6
ENDBRANCH   1   3
BRANCH   1  11
ATOM     11  N   LIG    1       26.668 -18.879   3.672  0.00  0.00    -0.242 N 
ATOM     12  H   LIG    1       27.235 -18.864   2.828  0.00  0.00    +0.265 HD
BRANCH  11  13
ATOM     13  C   LIG    1       27.480 -19.086   4.818  0.00  0.00    +0.103 A 
ATOM     14  C   LIG    1       28.646 -18.329   4.987  0.00  0.00    +0.062 A 
ATOM     15  C   LIG    1       29.435 -18.545   6.112  0.00  0.00    +0.114 A 
ATOM     16  N   LIG    1       29.149 -19.457   7.062  0.00  0.00    -0.263 NA
ATOM     17  C   LIG    1       28.034 -20.190   6.876  0.00  0.00    +0.114 A 
ATOM     18  C   LIG    1       27.187 -20.048   5.787  0.00  0.00    +0.062 A 
ENDBRANCH  11  13
ENDBRANCH   1  11
BRANCH   2  19
ATOM     19  C   LIG    1       26.268 -16.124   3.377  0.00  0.00    +0.295 C 
ATOM     20  N   LIG    1       27.170 -15.384   3.360  0.00  0.00    -0.150 NA
ENDBRANCH   2  19
TORSDOF 6
ENDMDL
MODEL 3
REMARK VINA RESULT:      -4.3      1.557      5.560
REMARK  Name = *****
REMARK                            x       y       z     vdW  Elec       q    Type
REMARK                         _______ _______ _______ _____ _____    ______ ____
ROOT
ATOM      1  C   LIG    1       26.495 -16.777   3.627  0.00  0.00    +0.402 C 
ATOM      2  N   LIG    1       27.592 -16.488   4.292  0.00  0.00    +0.011 NA
ENDROOT
BRANCH   1   3
ATOM      3  N   LIG    1       25.696 -15.768   3.156  0.00  0.00    -0.272 N 
ATOM      4  H   LIG    1       26.017 -15.420   2.262  0.00  0.00    +0.258 HD
BRANCH   3   6
ATOM      5  C   LIG    1       23.597 -15.118   4.118  0.00  0.00    +0.048 C 
ATOM      6  C   LIG    1       25.073 -14.715   3.972  0.00  0.00    +0.147 C 
BRANCH   6   7
ATOM      7  C   LIG    1       25.277 -13.302   3.305  0.00  0.00    -0.004 C 
ATOM      8  C   LIG    1       24.649 -12.191   4.176  0.00  0.00    +0.014 C 
ATOM      9  C   LIG    1       24.599 -13.217   1.916  0.00  0.00    +0.014 C 
ATOM     10  C   LIG    1       26.773 -12.976   3.111  0.00  0.00    +0.014 C 
ENDBRANCH   6   7
ENDBRANCH   3   6
ENDBRANCH   1   3
BRANCH   1  11
ATOM     11  N   LIG    1       26.089 -18.027   3.195  0.00  0.00    -0.242 N 
ATOM     12  H   LIG    1       26.733 -18.526   2.587  0.00  0.00    +0.265 HD
BRANCH  11  13
ATOM     13  C   LIG    1       25.210 -18.933   3.846  0.00  0.00    +0.103 A 
ATOM     14  C   LIG    1       25.736 -20.010   4.570  0.00  0.00    +0.062 A 
ATOM     15  C   LIG    1       24.865 -20.892   5.199  0.00  0.00    +0.114 A 
ATOM     16  N   LIG    1       23.522 -20.781   5.148  0.00  0.00    -0.263 NA
ATOM     17  C   LIG    1       23.031 -19.750   4.433  0.00  0.00    +0.114 A 
ATOM     18  C   LIG    1       23.820 -18.822   3.770  0.00  0.00    +0.062 A 
ENDBRANCH  11  13
ENDBRANCH   1  11
BRANCH   2  19
ATOM     19  C   LIG    1       28.400 -17.470   4.675  0.00  0.00    +0.295 C 
ATOM     20  N   LIG    1       29.094 -18.334   5.039  0.00  0.00    -0.150 NA
ENDBRANCH   2  19
TORSDOF 6
ENDMDL
MODEL 4
REMARK VINA RESULT:      -4.0      1.500      5.453
REMARK  Name = *****
REMARK                            x       y       z     vdW  Elec       q    Type
REMARK                         _______ _______ _______ _____ _____    ______ ____
ROOT
ATOM      1  C   LIG    1       26.588 -17.052   3.645  0.00  0.00    +0.402 C 
ATOM      2  N   LIG    1       27.678 -16.747   4.315  0.00  0.00    +0.011 NA
ENDROOT
BRANCH   1   3
ATOM      3  N   LIG    1       25.828 -16.056   3.089  0.00  0.00    -0.272 N 
ATOM      4  H   LIG    1       25.368 -16.363   2.241  0.00  0.00    +0.258 HD
BRANCH   3   6
ATOM      5  C   LIG    1       27.567 -14.521   3.699  0.00  0.00    +0.048 C 
ATOM      6  C   LIG    1       26.180 -14.629   3.046  0.00  0.00    +0.147 C 
BRANCH   6   7
ATOM      7  C   LIG    1       25.076 -13.762   3.762  0.00  0.00    -0.004 C 
ATOM      8  C   LIG    1       25.633 -13.136   5.061  0.00  0.00    +0.014 C 
ATOM      9  C   LIG    1       23.848 -14.613   4.167  0.00  0.00    +0.014 C 
ATOM     10  C   LIG    1       24.572 -12.622   2.854  0.00  0.00    +0.014 C 
ENDBRANCH   6   7
ENDBRANCH   3   6
ENDBRANCH   1   3
BRANCH   1  11
ATOM     11  N   LIG    1       26.157 -18.317   3.290  0.00  0.00    -0.242 N 
ATOM     12  H   LIG    1       26.802 -18.875   2.736  0.00  0.00    +0.265 HD
BRANCH  11  13
ATOM     13  C   LIG    1       25.234 -19.150   3.975  0.00  0.00    +0.103 A 
ATOM     14  C   LIG    1       23.859 -18.940   3.815  0.00  0.00    +0.062 A 
ATOM     15  C   LIG    1       22.965 -19.760   4.494  0.00  0.00    +0.114 A 
ATOM     16  N   LIG    1       23.344 -20.757   5.318  0.00  0.00    -0.263 NA
ATOM     17  C   LIG    1       24.669 -20.936   5.476  0.00  0.00    +0.114 A 
ATOM     18  C   LIG    1       25.635 -20.168   4.843  0.00  0.00    +0.062 A 
ENDBRANCH  11  13
ENDBRANCH   1  11
BRANCH   2  19
ATOM     19  C   LIG    1       28.449 -17.721   4.782  0.00  0.00    +0.295 C 
ATOM     20  N   LIG    1       29.117 -18.572   5.222  0.00  0.00    -0.150 NA
ENDBRANCH   2  19
TORSDOF 6
ENDMDL
MODEL 5
REMARK VINA RESULT:      -3.9      1.375      2.072
REMARK  Name = *****
REMARK                            x       y       z     vdW  Elec       q    Type
REMARK                         _______ _______ _______ _____ _____    ______ ____
ROOT
ATOM      1  C   LIG    1       26.718 -20.188   5.456  0.00  0.00    +0.402 C 
ATOM      2  N   LIG    1       27.268 -20.295   6.645  0.00  0.00    +0.011 NA
ENDROOT
BRANCH   1   3
ATOM      3  N   LIG    1       25.464 -20.697   5.235  0.00  0.00    -0.272 N 
ATOM      4  H   LIG    1       25.367 -21.065   4.298  0.00  0.00    +0.258 HD
BRANCH   3   6
ATOM      5  C   LIG    1       23.822 -20.990   6.959  0.00  0.00    +0.048 C 
ATOM      6  C   LIG    1       24.206 -20.130   5.743  0.00  0.00    +0.147 C 
BRANCH   6   7
ATOM      7  C   LIG    1       23.109 -20.112   4.613  0.00  0.00    -0.004 C 
ATOM      8  C   LIG    1       22.497 -18.701   4.468  0.00  0.00    +0.014 C 
ATOM      9  C   LIG    1       21.939 -21.076   4.929  0.00  0.00    +0.014 C 
ATOM     10  C   LIG    1       23.694 -20.527   3.247  0.00  0.00    +0.014 C 
ENDBRANCH   6   7
ENDBRANCH   3   6
ENDBRANCH   1   3
BRANCH   1  11
ATOM     11  N   LIG    1       27.202 -19.471   4.377  0.00  0.00    -0.242 N 
ATOM     12  H   LIG    1       27.438 -20.008   3.546  0.00  0.00    +0.265 HD
BRANCH  11  13
ATOM     13  C   LIG    1       26.943 -18.116   4.040  0.00  0.00    +0.103 A 
ATOM     14  C   LIG    1       27.850 -17.120   4.424  0.00  0.00    +0.062 A 
ATOM     15  C   LIG    1       27.582 -15.797   4.093  0.00  0.00    +0.114 A 
ATOM     16  N   LIG    1       26.483 -15.402   3.420  0.00  0.00    -0.263 NA
ATOM     17  C   LIG    1       25.611 -16.369   3.073  0.00  0.00    +0.114 A 
ATOM     18  C   LIG    1       25.791 -17.714   3.362  0.00  0.00    +0.062 A 
ENDBRANCH  11  13
ENDBRANCH   1  11
BRANCH   2  19
ATOM     19  C   LIG    1       28.449 -19.730   6.870  0.00  0.00    +0.295 C 
ATOM     20  N   LIG    1       29.475 -19.206   7.057  0.00  0.00    -0.150 NA
ENDBRANCH   2  19
TORSDOF 6
ENDMDL
MODEL 6
REMARK VINA RESULT:      -3.8      2.040      5.527
REMARK  Name = *****
REMARK                            x       y       z     vdW  Elec       q    Type
REMARK                         _______ _______ _______ _____ _____    ______ ____
ROOT
ATOM      1  C   LIG    1       25.863 -17.458   3.586  0.00  0.00    +0.402 C 
ATOM      2  N   LIG    1       24.595 -17.806   3.557  0.00  0.00    +0.011 NA
ENDROOT
BRANCH   1   3
ATOM      3  N   LIG    1       26.206 -16.139   3.729  0.00  0.00    -0.272 N 
ATOM      4  H   LIG    1       26.418 -15.907   4.691  0.00  0.00    +0.258 HD
BRANCH   3   6
ATOM      5  C   LIG    1       26.771 -14.242   2.374  0.00  0.00    +0.048 C 
ATOM      6  C   LIG    1       25.599 -15.011   3.006  0.00  0.00    +0.147 C 
BRANCH   6   7
ATOM      7  C   LIG    1       24.722 -14.135   3.979  0.00  0.00    -0.004 C 
ATOM      8  C   LIG    1       24.244 -12.847   3.272  0.00  0.00    +0.014 C 
ATOM      9  C   LIG    1       25.519 -13.688   5.229  0.00  0.00    +0.014 C 
ATOM     10  C   LIG    1       23.480 -14.905   4.472  0.00  0.00    +0.014 C 
ENDBRANCH   6   7
ENDBRANCH   3   6
ENDBRANCH   1   3
BRANCH   1  11
ATOM     11  N   LIG    1       26.956 -18.304   3.633  0.00  0.00    -0.242 N 
ATOM     12  H   LIG    1       27.583 -18.277   2.833  0.00  0.00    +0.265 HD
BRANCH  11  13
ATOM     13  C   LIG    1       27.629 -18.799   4.781  0.00  0.00    +0.103 A 
ATOM     14  C   LIG    1       28.821 -18.195   5.200  0.00  0.00    +0.062 A 
ATOM     15  C   LIG    1       29.473 -18.691   6.324  0.00  0.00    +0.114 A 
ATOM     16  N   LIG    1       29.027 -19.740   7.044  0.00  0.00    -0.263 NA
ATOM     17  C   LIG    1       27.890 -20.323   6.618  0.00  0.00    +0.114 A 
ATOM     18  C   LIG    1       27.172 -19.900   5.509  0.00  0.00    +0.062 A 
ENDBRANCH  11  13
ENDBRANCH   1  11
BRANCH   2  19
ATOM     19  C   LIG    1       24.274 -19.093   3.497  0.00  0.00    +0.295 C 
ATOM     20  N   LIG    1       24.021 -20.230   3.436  0.00  0.00    -0.150 NA
ENDBRANCH   2  19
TORSDOF 6
ENDMDL
MODEL 7
REMARK VINA RESULT:      -3.6      1.800      5.724
REMARK  Name = *****
REMARK                            x       y       z     vdW  Elec       q    Type
REMARK                         _______ _______ _______ _____ _____    ______ ____
ROOT
ATOM      1  C   LIG    1       24.586 -18.080   3.676  0.00  0.00    +0.402 C 
ATOM      2  N   LIG    1       23.337 -18.148   4.082  0.00  0.00    +0.011 NA
ENDROOT
BRANCH   1   3
ATOM      3  N   LIG    1       25.139 -16.864   3.368  0.00  0.00    -0.272 N 
ATOM      4  H   LIG    1       26.055 -16.963   2.948  0.00  0.00    +0.258 HD
BRANCH   3   6
ATOM      5  C   LIG    1       23.642 -15.054   3.852  0.00  0.00    +0.048 C 
ATOM      6  C   LIG    1       25.026 -15.640   4.174  0.00  0.00    +0.147 C 
BRANCH   6   7
ATOM      7  C   LIG    1       26.216 -14.656   3.860  0.00  0.00    -0.004 C 
ATOM      8  C   LIG    1       27.568 -15.403   3.902  0.00  0.00    +0.014 C 
ATOM      9  C   LIG    1       26.306 -13.511   4.897  0.00  0.00    +0.014 C 
ATOM     10  C   LIG    1       26.065 -14.010   2.467  0.00  0.00    +0.014 C 
ENDBRANCH   6   7
ENDBRANCH   3   6
ENDBRANCH   1   3
BRANCH   1  11
ATOM     11  N   LIG    1       25.509 -19.110   3.649  0.00  0.00    -0.242 N 
ATOM     12  H   LIG    1       25.990 -19.263   2.766  0.00  0.00    +0.265 HD
BRANCH  11  13
ATOM     13  C   LIG    1       26.267 -19.633   4.729  0.00  0.00    +0.103 A 
ATOM     14  C   LIG    1       27.597 -19.231   4.902  0.00  0.00    +0.062 A 
ATOM     15  C   LIG    1       28.330 -19.754   5.961  0.00  0.00    +0.114 A 
ATOM     16  N   LIG    1       27.836 -20.645   6.845  0.00  0.00    -0.263 NA
ATOM     17  C   LIG    1       26.561 -21.035   6.656  0.00  0.00    +0.114 A 
ATOM     18  C   LIG    1       25.754 -20.572   5.627  0.00  0.00    +0.062 A 
ENDBRANCH  11  13
ENDBRANCH   1  11
BRANCH   2  19
ATOM     19  C   LIG    1       22.835 -19.320   4.453  0.00  0.00    +0.295 C 
ATOM     20  N   LIG    1       22.418 -20.352   4.801  0.00  0.00    -0.150 NA
ENDBRANCH   2  19
TORSDOF 6
ENDMDL
MODEL 8
REMARK VINA RESULT:      -3.4      0.965      1.831
REMARK  Name = *****
REMARK                            x       y       z     vdW  Elec       q    Type
REMARK                         _______ _______ _______ _____ _____    ______ ____
ROOT
ATOM      1  C   LIG    1       26.575 -19.711   4.681  0.00  0.00    +0.402 C 
ATOM      2  N   LIG    1       27.497 -19.747   5.619  0.00  0.00    +0.011 NA
ENDROOT
BRANCH   1   3
ATOM      3  N   LIG    1       25.461 -20.501   4.789  0.00  0.00    -0.272 N 
ATOM      4  H   LIG    1       25.241 -20.964   3.916  0.00  0.00    +0.258 HD
BRANCH   3   6
ATOM      5  C   LIG    1       24.198 -21.227   6.696  0.00  0.00    +0.048 C 
ATOM      6  C   LIG    1       24.255 -20.183   5.568  0.00  0.00    +0.147 C 
BRANCH   6   7
ATOM      7  C   LIG    1       22.979 -20.185   4.643  0.00  0.00    -0.004 C 
ATOM      8  C   LIG    1       21.974 -21.265   5.102  0.00  0.00    +0.014 C 
ATOM      9  C   LIG    1       23.335 -20.504   3.171  0.00  0.00    +0.014 C 
ATOM     10  C   LIG    1       22.263 -18.819   4.662  0.00  0.00    +0.014 C 
ENDBRANCH   6   7
ENDBRANCH   3   6
ENDBRANCH   1   3
BRANCH   1  11
ATOM     11  N   LIG    1       26.510 -18.835   3.613  0.00  0.00    -0.242 N 
ATOM     12  H   LIG    1       26.255 -19.237   2.714  0.00  0.00    +0.265 HD
BRANCH  11  13
ATOM     13  C   LIG    1       26.225 -17.445   3.639  0.00  0.00    +0.103 A 
ATOM     14  C   LIG    1       24.894 -17.010   3.649  0.00  0.00    +0.062 A 
ATOM     15  C   LIG    1       24.627 -15.645   3.671  0.00  0.00    +0.114 A 
ATOM     16  N   LIG    1       25.585 -14.697   3.675  0.00  0.00    -0.263 NA
ATOM     17  C   LIG    1       26.861 -15.130   3.648  0.00  0.00    +0.114 A 
ATOM     18  C   LIG    1       27.223 -16.468   3.623  0.00  0.00    +0.062 A 
ENDBRANCH  11  13
ENDBRANCH   1  11
BRANCH   2  19
ATOM     19  C   LIG    1       28.534 -18.921   5.544  0.00  0.00    +0.295 C 
ATOM     20  N   LIG    1       29.463 -18.217   5.495  0.00  0.00    -0.150 NA
ENDBRANCH   2  19
TORSDOF 6
ENDMDL
MODEL 9
REMARK VINA RESULT:      -2.5      1.971      3.818
REMARK  Name = *****
REMARK                            x       y       z     vdW  Elec       q    Type
REMARK                         _______ _______ _______ _____ _____    ______ ____
ROOT
ATOM      1  C   LIG    1       24.796 -15.866   3.804  0.00  0.00    +0.402 C 
ATOM      2  N   LIG    1       23.689 -15.162   3.891  0.00  0.00    +0.011 NA
ENDROOT
BRANCH   1   3
ATOM      3  N   LIG    1       24.771 -17.213   4.057  0.00  0.00    -0.272 N 
ATOM      4  H   LIG    1       25.679 -17.639   3.921  0.00  0.00    +0.258 HD
BRANCH   3   6
ATOM      5  C   LIG    1       22.439 -17.599   4.469  0.00  0.00    +0.048 C 
ATOM      6  C   LIG    1       23.672 -18.130   3.717  0.00  0.00    +0.147 C 
BRANCH   6   7
ATOM      7  C   LIG    1       24.049 -19.613   4.093  0.00  0.00    -0.004 C 
ATOM      8  C   LIG    1       25.549 -19.721   4.447  0.00  0.00    +0.014 C 
ATOM      9  C   LIG    1       23.795 -20.587   2.918  0.00  0.00    +0.014 C 
ATOM     10  C   LIG    1       23.231 -20.117   5.300  0.00  0.00    +0.014 C 
ENDBRANCH   6   7
ENDBRANCH   3   6
ENDBRANCH   1   3
BRANCH   1  11
ATOM     11  N   LIG    1       26.022 -15.432   3.333  0.00  0.00    -0.242 N 
ATOM     12  H   LIG    1       26.176 -15.515   2.331  0.00  0.00    +0.265 HD
BRANCH  11  13
ATOM     13  C   LIG    1       26.871 -14.441   3.890  0.00  0.00    +0.103 A 
ATOM     14  C   LIG    1       27.906 -13.900   3.117  0.00  0.00    +0.062 A 
ATOM     15  C   LIG    1       28.734 -12.932   3.676  0.00  0.00    +0.114 A 
ATOM     16  N   LIG    1       28.607 -12.478   4.939  0.00  0.00    -0.263 NA
ATOM     17  C   LIG    1       27.618 -13.020   5.676  0.00  0.00    +0.114 A 
ATOM     18  C   LIG    1       26.746 -13.991   5.207  0.00  0.00    +0.062 A 
ENDBRANCH  11  13
ENDBRANCH   1  11
BRANCH   2  19
ATOM     19  C   LIG    1       23.708 -13.874   3.569  0.00  0.00    +0.295 C 
ATOM     20  N   LIG    1       23.757 -12.743   3.288  0.00  0.00    -0.150 NA
ENDBRANCH   2  19
TORSDOF 6
ENDMDL
