MODEL 1
REMARK VINA RESULT:      12.8      0.000      0.000
REMARK  Name = *****
REMARK                            x       y       z     vdW  Elec       q    Type
REMARK                         _______ _______ _______ _____ _____    ______ ____
ROOT
ATOM      1  C   LIG    1       25.281 -15.105   5.920  0.00  0.00    +0.193 C 
ATOM      2  N   LIG    1       25.486 -13.895   4.668  0.00  0.00    +0.246 N 
ATOM      3  C   LIG    1       23.937 -13.841   4.175  0.00  0.00    +0.104 C 
ATOM      4  C   LIG    1       24.593 -13.517   2.948  0.00  0.00    +0.123 C 
ATOM      5  C   LIG    1       25.556 -15.152   2.988  0.00  0.00    +0.082 C 
ATOM      6  C   LIG    1       27.013 -15.569   4.103  0.00  0.00    +0.253 C 
ATOM      7  O   LIG    1       27.238 -16.890   3.536  0.00  0.00    -0.476 OA
ATOM      8  C   LIG    1       25.910 -17.408   3.397  0.00  0.00    +0.167 A 
ATOM      9  C   LIG    1       25.502 -18.647   3.833  0.00  0.00    +0.159 A 
ATOM     10  C   LIG    1       24.139 -18.836   4.111  0.00  0.00    +0.049 A 
ATOM     11  C   LIG    1       23.221 -17.754   4.072  0.00  0.00    +0.008 A 
ATOM     12  C   LIG    1       23.657 -16.492   3.676  0.00  0.00    -0.034 A 
ATOM     13  C   LIG    1       27.811 -13.979   4.825  0.00  0.00    +0.174 C 
ATOM     14  O   LIG    1       28.732 -14.054   5.636  0.00  0.00    -0.293 OA
ATOM     15  C   LIG    1       27.247 -12.277   4.208  0.00  0.00    +0.081 C 
ATOM     16  C   LIG    1       24.932 -16.431   3.167  0.00  0.00    +0.015 A 
ATOM     17  C   LIG    1       26.278 -14.904   1.812  0.00  0.00    +0.070 C 
ATOM     18  C   LIG    1       25.583 -11.981   3.357  0.00  0.00    +0.049 C 
ATOM     19  C   LIG    1       23.022 -15.158   4.063  0.00  0.00    +0.092 C 
ATOM     20  C   LIG    1       26.648 -13.899   2.889  0.00  0.00    +0.134 C 
ENDROOT
BRANCH   4  21
ATOM     21  O   LIG    1       23.789 -13.343   1.815  0.00  0.00    -0.382 OA
ATOM     22  H   LIG    1       22.857 -13.224   2.075  0.00  0.00    +0.210 HD
ENDBRANCH   4  21
BRANCH   9  23
ATOM     23  O   LIG    1       26.384 -19.635   4.127  0.00  0.00    -0.503 OA
ATOM     24  H   LIG    1       26.646 -20.055   3.286  0.00  0.00    +0.292 HD
ENDBRANCH   9  23
BRANCH   2  25
ATOM     25  C   LIG    1       25.514 -12.654   5.987  0.00  0.00    +0.137 C 
BRANCH  25  26
ATOM     26  C   LIG    1       24.595 -11.447   5.884  0.00  0.00    +0.035 C 
ATOM     27  C   LIG    1       23.297 -11.555   5.108  0.00  0.00    +0.009 C 
ATOM     28  C   LIG    1       23.265 -11.452   6.603  0.00  0.00    +0.009 C 
ENDBRANCH  25  26
ENDBRANCH   2  25
TORSDOF 4
ENDMDL
MODEL 2
REMARK VINA RESULT:      13.4      1.539      2.616
REMARK  Name = *****
REMARK                            x       y       z     vdW  Elec       q    Type
REMARK                         _______ _______ _______ _____ _____    ______ ____
ROOT
ATOM      1  C   LIG    1       25.708 -14.417   5.834  0.00  0.00    +0.193 C 
ATOM      2  N   LIG    1       25.724 -13.274   4.506  0.00  0.00    +0.246 N 
ATOM      3  C   LIG    1       24.337 -12.508   4.874  0.00  0.00    +0.104 C 
ATOM      4  C   LIG    1       24.328 -12.355   3.453  0.00  0.00    +0.123 C 
ATOM      5  C   LIG    1       24.378 -14.237   3.213  0.00  0.00    +0.082 C 
ATOM      6  C   LIG    1       25.865 -15.361   3.469  0.00  0.00    +0.253 C 
ATOM      7  O   LIG    1       25.184 -16.577   3.050  0.00  0.00    -0.476 OA
ATOM      8  C   LIG    1       23.904 -16.459   3.682  0.00  0.00    +0.167 A 
ATOM      9  C   LIG    1       23.304 -17.447   4.426  0.00  0.00    +0.159 A 
ATOM     10  C   LIG    1       22.352 -17.068   5.386  0.00  0.00    +0.049 A 
ATOM     11  C   LIG    1       22.103 -15.701   5.678  0.00  0.00    +0.008 A 
ATOM     12  C   LIG    1       22.754 -14.709   4.949  0.00  0.00    -0.034 A 
ATOM     13  C   LIG    1       27.503 -14.359   3.458  0.00  0.00    +0.174 C 
ATOM     14  O   LIG    1       28.577 -14.913   3.684  0.00  0.00    -0.293 OA
ATOM     15  C   LIG    1       27.480 -12.521   2.996  0.00  0.00    +0.081 C 
ATOM     16  C   LIG    1       23.468 -15.139   3.856  0.00  0.00    +0.015 A 
ATOM     17  C   LIG    1       24.413 -14.187   1.812  0.00  0.00    +0.070 C 
ATOM     18  C   LIG    1       25.925 -11.447   3.087  0.00  0.00    +0.049 C 
ATOM     19  C   LIG    1       23.043 -13.287   5.424  0.00  0.00    +0.092 C 
ATOM     20  C   LIG    1       25.669 -13.567   2.402  0.00  0.00    +0.134 C 
ENDROOT
BRANCH   4  21
ATOM     21  O   LIG    1       23.216 -11.725   2.880  0.00  0.00    -0.382 OA
ATOM     22  H   LIG    1       22.493 -12.367   2.750  0.00  0.00    +0.210 HD
ENDBRANCH   4  21
BRANCH   9  23
ATOM     23  O   LIG    1       23.697 -18.744   4.356  0.00  0.00    -0.503 OA
ATOM     24  H   LIG    1       24.267 -18.921   5.128  0.00  0.00    +0.292 HD
ENDBRANCH   9  23
BRANCH   2  25
ATOM     25  C   LIG    1       26.949 -12.325   5.443  0.00  0.00    +0.137 C 
BRANCH  25  26
ATOM     26  C   LIG    1       28.418 -12.702   5.330  0.00  0.00    +0.035 C 
ATOM     27  C   LIG    1       29.364 -11.811   4.550  0.00  0.00    +0.009 C 
ATOM     28  C   LIG    1       29.462 -11.874   6.044  0.00  0.00    +0.009 C 
ENDBRANCH  25  26
ENDBRANCH   2  25
TORSDOF 4
ENDMDL
MODEL 3
REMARK VINA RESULT:      13.6      3.318      5.390
REMARK  Name = *****
REMARK                            x       y       z     vdW  Elec       q    Type
REMARK                         _______ _______ _______ _____ _____    ______ ____
ROOT
ATOM      1  C   LIG    1       23.991 -18.199   6.326  0.00  0.00    +0.193 C 
ATOM      2  N   LIG    1       22.980 -18.606   4.954  0.00  0.00    +0.246 N 
ATOM      3  C   LIG    1       22.331 -19.965   5.569  0.00  0.00    +0.104 C 
ATOM      4  C   LIG    1       22.311 -20.295   4.179  0.00  0.00    +0.123 C 
ATOM      5  C   LIG    1       24.191 -20.069   4.060  0.00  0.00    +0.082 C 
ATOM      6  C   LIG    1       25.127 -18.436   4.053  0.00  0.00    +0.253 C 
ATOM      7  O   LIG    1       26.440 -19.038   3.879  0.00  0.00    -0.476 OA
ATOM      8  C   LIG    1       26.398 -20.158   4.770  0.00  0.00    +0.167 A 
ATOM      9  C   LIG    1       27.371 -20.461   5.694  0.00  0.00    +0.159 A 
ATOM     10  C   LIG    1       27.006 -21.226   6.814  0.00  0.00    +0.049 A 
ATOM     11  C   LIG    1       25.651 -21.571   7.062  0.00  0.00    +0.008 A 
ATOM     12  C   LIG    1       24.669 -21.215   6.141  0.00  0.00    -0.034 A 
ATOM     13  C   LIG    1       23.965 -16.973   3.612  0.00  0.00    +0.174 C 
ATOM     14  O   LIG    1       24.381 -15.816   3.630  0.00  0.00    -0.293 OA
ATOM     15  C   LIG    1       22.189 -17.317   3.045  0.00  0.00    +0.081 C 
ATOM     16  C   LIG    1       25.121 -20.705   4.949  0.00  0.00    +0.015 A 
ATOM     17  C   LIG    1       24.267 -20.339   2.686  0.00  0.00    +0.070 C 
ATOM     18  C   LIG    1       21.279 -18.936   3.407  0.00  0.00    +0.049 C 
ATOM     19  C   LIG    1       23.186 -21.008   6.444  0.00  0.00    +0.092 C 
ATOM     20  C   LIG    1       23.468 -19.072   2.939  0.00  0.00    +0.134 C 
ENDROOT
BRANCH   4  21
ATOM     21  O   LIG    1       21.856 -21.572   3.827  0.00  0.00    -0.382 OA
ATOM     22  H   LIG    1       21.622 -22.080   4.625  0.00  0.00    +0.210 HD
ENDBRANCH   4  21
BRANCH   9  23
ATOM     23  O   LIG    1       28.621 -19.937   5.625  0.00  0.00    -0.503 OA
ATOM     24  H   LIG    1       28.666 -19.389   4.820  0.00  0.00    +0.292 HD
ENDBRANCH   9  23
BRANCH   2  25
ATOM     25  C   LIG    1       21.826 -17.334   5.530  0.00  0.00    +0.137 C 
BRANCH  25  26
ATOM     26  C   LIG    1       22.366 -16.151   6.319  0.00  0.00    +0.035 C 
ATOM     27  C   LIG    1       22.489 -14.795   5.651  0.00  0.00    +0.009 C 
ATOM     28  C   LIG    1       21.440 -15.018   6.700  0.00  0.00    +0.009 C 
ENDBRANCH  25  26
ENDBRANCH   2  25
TORSDOF 4
ENDMDL
