MODEL 1
REMARK VINA RESULT:      -8.7      0.000      0.000
REMARK  Name = *****
REMARK                            x       y       z     vdW  Elec       q    Type
REMARK                         _______ _______ _______ _____ _____    ______ ____
ROOT
ATOM      1  C   LIG    1       25.166 -20.779   7.830  0.00  0.00    +0.019 C 
ENDROOT
BRANCH   1   2
ATOM      2  C   LIG    1       24.237 -20.477   6.606  0.00  0.00    +0.085 C 
BRANCH   2   3
ATOM      3  N   LIG    1       23.697 -21.580   5.752  0.00  0.00    -0.300 NA
BRANCH   3   5
ATOM      4  C   LIG    1       24.513 -19.999   3.797  0.00  0.00    +0.020 C 
ATOM      5  C   LIG    1       24.005 -21.351   4.315  0.00  0.00    +0.081 C 
ENDBRANCH   3   5
BRANCH   3   6
ATOM      6  C   LIG    1       23.968 -22.958   6.229  0.00  0.00    +0.058 C 
ATOM      7  C   LIG    1       22.697 -23.608   6.790  0.00  0.00    +0.024 C 
BRANCH   6   8
ATOM      8  C   LIG    1       24.863 -23.932   5.387  0.00  0.00    +0.053 C 
BRANCH   8   9
ATOM      9  C   LIG    1       25.035 -25.364   5.835  0.00  0.00    -0.046 A 
ATOM     10  C   LIG    1       25.841 -25.735   6.908  0.00  0.00    +0.007 A 
ATOM     11  C   LIG    1       25.997 -27.096   7.225  0.00  0.00    +0.046 A 
ATOM     12  C   LIG    1       25.185 -28.064   6.627  0.00  0.00    +0.120 A 
ATOM     13  C   LIG    1       24.301 -27.670   5.648  0.00  0.00    +0.046 A 
ATOM     14  C   LIG    1       24.405 -26.390   5.137  0.00  0.00    +0.007 A 
BRANCH  12  15
ATOM     15  O   LIG    1       25.375 -29.380   6.950  0.00  0.00    -0.495 OA
ATOM     16  C   LIG    1       24.645 -30.292   6.127  0.00  0.00    +0.277 C 
ENDBRANCH  12  15
ENDBRANCH   8   9
ENDBRANCH   6   8
ENDBRANCH   3   6
ENDBRANCH   2   3
ENDBRANCH   1   2
BRANCH   1  17
ATOM     17  C   LIG    1       26.686 -20.686   7.609  0.00  0.00    +0.042 C 
BRANCH  17  18
ATOM     18  C   LIG    1       27.129 -20.629   6.148  0.00  0.00    +0.232 C 
BRANCH  18  19
ATOM     19  O   LIG    1       28.550 -20.453   6.117  0.00  0.00    -0.461 OA
BRANCH  19  20
ATOM     20  C   LIG    1       29.002 -19.209   6.024  0.00  0.00    +0.339 C 
ATOM     21  O   LIG    1       28.881 -18.422   5.044  0.00  0.00    -0.245 OA
BRANCH  20  22
ATOM     22  C   LIG    1       29.838 -18.938   7.189  0.00  0.00    +0.063 A 
ATOM     23  C   LIG    1       30.541 -19.995   7.761  0.00  0.00    +0.064 A 
ATOM     24  C   LIG    1       31.367 -19.802   8.866  0.00  0.00    +0.162 A 
ATOM     25  C   LIG    1       31.420 -18.507   9.447  0.00  0.00    +0.162 A 
ATOM     26  C   LIG    1       30.708 -17.457   8.845  0.00  0.00    +0.050 A 
ATOM     27  C   LIG    1       29.912 -17.670   7.735  0.00  0.00    +0.019 A 
BRANCH  24  28
ATOM     28  O   LIG    1       32.106 -20.843   9.388  0.00  0.00    -0.491 OA
ATOM     29  C   LIG    1       31.608 -22.175   9.158  0.00  0.00    +0.277 C 
ENDBRANCH  24  28
BRANCH  25  30
ATOM     30  O   LIG    1       32.191 -18.263  10.560  0.00  0.00    -0.491 OA
ATOM     31  C   LIG    1       32.427 -16.875  10.844  0.00  0.00    +0.277 C 
ENDBRANCH  25  30
ENDBRANCH  20  22
ENDBRANCH  19  20
ENDBRANCH  18  19
ENDBRANCH  17  18
ENDBRANCH   1  17
TORSDOF 14
ENDMDL
MODEL 2
REMARK VINA RESULT:      -8.5      1.829      9.384
REMARK  Name = *****
REMARK                            x       y       z     vdW  Elec       q    Type
REMARK                         _______ _______ _______ _____ _____    ______ ____
ROOT
ATOM      1  C   LIG    1       23.331 -23.502   6.846  0.00  0.00    +0.019 C 
ENDROOT
BRANCH   1   2
ATOM      2  C   LIG    1       23.504 -21.947   6.896  0.00  0.00    +0.085 C 
BRANCH   2   3
ATOM      3  N   LIG    1       24.596 -21.264   6.136  0.00  0.00    -0.300 NA
BRANCH   3   5
ATOM      4  C   LIG    1       22.558 -19.863   5.202  0.00  0.00    +0.020 C 
ATOM      5  C   LIG    1       24.053 -20.203   5.246  0.00  0.00    +0.081 C 
ENDBRANCH   3   5
BRANCH   3   6
ATOM      6  C   LIG    1       25.779 -20.856   6.932  0.00  0.00    +0.058 C 
ATOM      7  C   LIG    1       25.420 -20.704   8.416  0.00  0.00    +0.024 C 
BRANCH   6   8
ATOM      8  C   LIG    1       27.178 -21.519   6.680  0.00  0.00    +0.053 C 
BRANCH   8   9
ATOM      9  C   LIG    1       28.437 -20.709   6.887  0.00  0.00    -0.046 A 
ATOM     10  C   LIG    1       28.749 -19.581   6.133  0.00  0.00    +0.007 A 
ATOM     11  C   LIG    1       29.969 -18.917   6.346  0.00  0.00    +0.046 A 
ATOM     12  C   LIG    1       30.771 -19.233   7.447  0.00  0.00    +0.120 A 
ATOM     13  C   LIG    1       30.390 -20.278   8.261  0.00  0.00    +0.046 A 
ATOM     14  C   LIG    1       29.369 -21.109   7.839  0.00  0.00    +0.007 A 
BRANCH  12  15
ATOM     15  O   LIG    1       31.958 -18.576   7.614  0.00  0.00    -0.495 OA
ATOM     16  C   LIG    1       32.049 -17.841   8.836  0.00  0.00    +0.277 C 
ENDBRANCH  12  15
ENDBRANCH   8   9
ENDBRANCH   6   8
ENDBRANCH   3   6
ENDBRANCH   2   3
ENDBRANCH   1   2
BRANCH   1  17
ATOM     17  C   LIG    1       24.605 -24.356   6.716  0.00  0.00    +0.042 C 
BRANCH  17  18
ATOM     18  C   LIG    1       25.102 -24.569   5.287  0.00  0.00    +0.232 C 
BRANCH  18  19
ATOM     19  O   LIG    1       24.934 -25.951   4.955  0.00  0.00    -0.461 OA
BRANCH  19  20
ATOM     20  C   LIG    1       25.903 -26.782   5.318  0.00  0.00    +0.339 C 
ATOM     21  O   LIG    1       27.121 -26.726   4.988  0.00  0.00    -0.245 OA
BRANCH  20  22
ATOM     22  C   LIG    1       25.302 -27.903   6.031  0.00  0.00    +0.063 A 
ATOM     23  C   LIG    1       25.647 -28.103   7.365  0.00  0.00    +0.064 A 
ATOM     24  C   LIG    1       25.099 -29.146   8.108  0.00  0.00    +0.162 A 
ATOM     25  C   LIG    1       24.229 -30.055   7.449  0.00  0.00    +0.162 A 
ATOM     26  C   LIG    1       23.891 -29.825   6.105  0.00  0.00    +0.050 A 
ATOM     27  C   LIG    1       24.431 -28.769   5.396  0.00  0.00    +0.019 A 
BRANCH  24  28
ATOM     28  O   LIG    1       25.402 -29.298   9.445  0.00  0.00    -0.491 OA
ATOM     29  C   LIG    1       26.720 -28.898   9.864  0.00  0.00    +0.277 C 
ENDBRANCH  24  28
BRANCH  25  30
ATOM     30  O   LIG    1       23.685 -31.124   8.121  0.00  0.00    -0.491 OA
ATOM     31  C   LIG    1       23.606 -32.343   7.364  0.00  0.00    +0.277 C 
ENDBRANCH  25  30
ENDBRANCH  20  22
ENDBRANCH  19  20
ENDBRANCH  18  19
ENDBRANCH  17  18
ENDBRANCH   1  17
TORSDOF 14
ENDMDL
MODEL 3
REMARK VINA RESULT:      -8.5      1.830      9.601
REMARK  Name = *****
REMARK                            x       y       z     vdW  Elec       q    Type
REMARK                         _______ _______ _______ _____ _____    ______ ____
ROOT
ATOM      1  C   LIG    1       23.817 -23.492   6.862  0.00  0.00    +0.019 C 
ENDROOT
BRANCH   1   2
ATOM      2  C   LIG    1       24.208 -22.004   7.151  0.00  0.00    +0.085 C 
BRANCH   2   3
ATOM      3  N   LIG    1       25.066 -21.230   6.201  0.00  0.00    -0.300 NA
BRANCH   3   5
ATOM      4  C   LIG    1       22.805 -20.008   5.581  0.00  0.00    +0.020 C 
ATOM      5  C   LIG    1       24.240 -20.438   5.251  0.00  0.00    +0.081 C 
ENDBRANCH   3   5
BRANCH   3   6
ATOM      6  C   LIG    1       26.192 -20.482   6.811  0.00  0.00    +0.058 C 
ATOM      7  C   LIG    1       26.162 -20.589   8.341  0.00  0.00    +0.024 C 
BRANCH   6   8
ATOM      8  C   LIG    1       27.632 -20.566   6.195  0.00  0.00    +0.053 C 
BRANCH   8   9
ATOM      9  C   LIG    1       28.832 -20.236   7.052  0.00  0.00    -0.046 A 
ATOM     10  C   LIG    1       29.542 -21.194   7.769  0.00  0.00    +0.007 A 
ATOM     11  C   LIG    1       30.611 -20.798   8.592  0.00  0.00    +0.046 A 
ATOM     12  C   LIG    1       31.113 -19.495   8.531  0.00  0.00    +0.120 A 
ATOM     13  C   LIG    1       30.474 -18.580   7.723  0.00  0.00    +0.046 A 
ATOM     14  C   LIG    1       29.245 -18.914   7.185  0.00  0.00    +0.007 A 
BRANCH  12  15
ATOM     15  O   LIG    1       32.144 -19.141   9.356  0.00  0.00    -0.495 OA
ATOM     16  C   LIG    1       32.119 -17.772   9.765  0.00  0.00    +0.277 C 
ENDBRANCH  12  15
ENDBRANCH   8   9
ENDBRANCH   6   8
ENDBRANCH   3   6
ENDBRANCH   2   3
ENDBRANCH   1   2
BRANCH   1  17
ATOM     17  C   LIG    1       24.951 -24.471   6.510  0.00  0.00    +0.042 C 
BRANCH  17  18
ATOM     18  C   LIG    1       25.024 -24.880   5.040  0.00  0.00    +0.232 C 
BRANCH  18  19
ATOM     19  O   LIG    1       24.857 -26.300   4.961  0.00  0.00    -0.461 OA
BRANCH  19  20
ATOM     20  C   LIG    1       25.909 -27.050   5.266  0.00  0.00    +0.339 C 
ATOM     21  O   LIG    1       27.041 -27.045   4.705  0.00  0.00    -0.245 OA
BRANCH  20  22
ATOM     22  C   LIG    1       25.497 -28.034   6.261  0.00  0.00    +0.063 A 
ATOM     23  C   LIG    1       24.652 -29.066   5.863  0.00  0.00    +0.064 A 
ATOM     24  C   LIG    1       24.232 -30.046   6.760  0.00  0.00    +0.162 A 
ATOM     25  C   LIG    1       24.627 -29.928   8.118  0.00  0.00    +0.162 A 
ATOM     26  C   LIG    1       25.487 -28.881   8.491  0.00  0.00    +0.050 A 
ATOM     27  C   LIG    1       25.909 -27.934   7.578  0.00  0.00    +0.019 A 
BRANCH  24  28
ATOM     28  O   LIG    1       23.443 -31.098   6.341  0.00  0.00    -0.491 OA
ATOM     29  C   LIG    1       24.120 -32.226   5.755  0.00  0.00    +0.277 C 
ENDBRANCH  24  28
BRANCH  25  30
ATOM     30  O   LIG    1       24.216 -30.845   9.056  0.00  0.00    -0.491 OA
ATOM     31  C   LIG    1       23.073 -30.451   9.833  0.00  0.00    +0.277 C 
ENDBRANCH  25  30
ENDBRANCH  20  22
ENDBRANCH  19  20
ENDBRANCH  18  19
ENDBRANCH  17  18
ENDBRANCH   1  17
TORSDOF 14
ENDMDL
MODEL 4
REMARK VINA RESULT:      -8.4      1.173      2.584
REMARK  Name = *****
REMARK                            x       y       z     vdW  Elec       q    Type
REMARK                         _______ _______ _______ _____ _____    ______ ____
ROOT
ATOM      1  C   LIG    1       23.629 -20.332   5.413  0.00  0.00    +0.019 C 
ENDROOT
BRANCH   1   2
ATOM      2  C   LIG    1       23.762 -21.069   6.788  0.00  0.00    +0.085 C 
BRANCH   2   3
ATOM      3  N   LIG    1       24.760 -22.165   6.987  0.00  0.00    -0.300 NA
BRANCH   3   5
ATOM      4  C   LIG    1       25.862 -20.564   8.778  0.00  0.00    +0.020 C 
ATOM      5  C   LIG    1       25.542 -21.963   8.235  0.00  0.00    +0.081 C 
ENDBRANCH   3   5
BRANCH   3   6
ATOM      6  C   LIG    1       24.252 -23.545   6.793  0.00  0.00    +0.058 C 
ATOM      7  C   LIG    1       22.720 -23.563   6.713  0.00  0.00    +0.024 C 
BRANCH   6   8
ATOM      8  C   LIG    1       24.954 -24.520   5.785  0.00  0.00    +0.053 C 
BRANCH   8   9
ATOM      9  C   LIG    1       25.061 -25.990   6.119  0.00  0.00    -0.046 A 
ATOM     10  C   LIG    1       25.876 -26.483   7.135  0.00  0.00    +0.007 A 
ATOM     11  C   LIG    1       25.966 -27.870   7.344  0.00  0.00    +0.046 A 
ATOM     12  C   LIG    1       25.087 -28.746   6.701  0.00  0.00    +0.120 A 
ATOM     13  C   LIG    1       24.198 -28.233   5.782  0.00  0.00    +0.046 A 
ATOM     14  C   LIG    1       24.357 -26.924   5.366  0.00  0.00    +0.007 A 
BRANCH  12  15
ATOM     15  O   LIG    1       25.214 -30.091   6.918  0.00  0.00    -0.495 OA
ATOM     16  C   LIG    1       25.484 -30.848   5.736  0.00  0.00    +0.277 C 
ENDBRANCH  12  15
ENDBRANCH   8   9
ENDBRANCH   6   8
ENDBRANCH   3   6
ENDBRANCH   2   3
ENDBRANCH   1   2
BRANCH   1  17
ATOM     17  C   LIG    1       24.695 -20.626   4.342  0.00  0.00    +0.042 C 
BRANCH  17  18
ATOM     18  C   LIG    1       25.781 -19.561   4.196  0.00  0.00    +0.232 C 
BRANCH  18  19
ATOM     19  O   LIG    1       26.848 -19.883   5.095  0.00  0.00    -0.461 OA
BRANCH  19  20
ATOM     20  C   LIG    1       27.838 -19.005   5.195  0.00  0.00    +0.339 C 
ATOM     21  O   LIG    1       28.038 -17.991   4.469  0.00  0.00    -0.245 OA
BRANCH  20  22
ATOM     22  C   LIG    1       28.788 -19.498   6.186  0.00  0.00    +0.063 A 
ATOM     23  C   LIG    1       29.888 -18.705   6.503  0.00  0.00    +0.064 A 
ATOM     24  C   LIG    1       30.825 -19.111   7.450  0.00  0.00    +0.162 A 
ATOM     25  C   LIG    1       30.674 -20.394   8.038  0.00  0.00    +0.162 A 
ATOM     26  C   LIG    1       29.550 -21.170   7.707  0.00  0.00    +0.050 A 
ATOM     27  C   LIG    1       28.622 -20.736   6.781  0.00  0.00    +0.019 A 
BRANCH  24  28
ATOM     28  O   LIG    1       31.878 -18.292   7.800  0.00  0.00    -0.491 OA
ATOM     29  C   LIG    1       31.727 -17.514   9.003  0.00  0.00    +0.277 C 
ENDBRANCH  24  28
BRANCH  25  30
ATOM     30  O   LIG    1       31.586 -20.864   8.954  0.00  0.00    -0.491 OA
ATOM     31  C   LIG    1       31.301 -22.169   9.483  0.00  0.00    +0.277 C 
ENDBRANCH  25  30
ENDBRANCH  20  22
ENDBRANCH  19  20
ENDBRANCH  18  19
ENDBRANCH  17  18
ENDBRANCH   1  17
TORSDOF 14
ENDMDL
MODEL 5
REMARK VINA RESULT:      -8.1      1.262      1.945
REMARK  Name = *****
REMARK                            x       y       z     vdW  Elec       q    Type
REMARK                         _______ _______ _______ _____ _____    ______ ____
ROOT
ATOM      1  C   LIG    1       26.103 -21.997   8.445  0.00  0.00    +0.019 C 
ENDROOT
BRANCH   1   2
ATOM      2  C   LIG    1       26.104 -23.168   7.405  0.00  0.00    +0.085 C 
BRANCH   2   3
ATOM      3  N   LIG    1       24.830 -23.818   6.969  0.00  0.00    -0.300 NA
BRANCH   3   5
ATOM      4  C   LIG    1       23.080 -21.839   7.074  0.00  0.00    +0.020 C 
ATOM      5  C   LIG    1       23.932 -22.846   6.290  0.00  0.00    +0.081 C 
ENDBRANCH   3   5
BRANCH   3   6
ATOM      6  C   LIG    1       24.975 -25.117   6.269  0.00  0.00    +0.058 C 
ATOM      7  C   LIG    1       24.990 -24.926   4.747  0.00  0.00    +0.024 C 
BRANCH   6   8
ATOM      8  C   LIG    1       25.993 -26.193   6.786  0.00  0.00    +0.053 C 
BRANCH   8   9
ATOM      9  C   LIG    1       25.542 -27.624   6.964  0.00  0.00    -0.046 A 
ATOM     10  C   LIG    1       25.747 -28.347   8.135  0.00  0.00    +0.007 A 
ATOM     11  C   LIG    1       25.351 -29.694   8.201  0.00  0.00    +0.046 A 
ATOM     12  C   LIG    1       24.558 -30.254   7.195  0.00  0.00    +0.120 A 
ATOM     13  C   LIG    1       24.258 -29.489   6.090  0.00  0.00    +0.046 A 
ATOM     14  C   LIG    1       24.928 -28.293   5.909  0.00  0.00    +0.007 A 
BRANCH  12  15
ATOM     15  O   LIG    1       24.205 -31.572   7.286  0.00  0.00    -0.495 OA
ATOM     16  C   LIG    1       23.590 -32.092   6.105  0.00  0.00    +0.277 C 
ENDBRANCH  12  15
ENDBRANCH   8   9
ENDBRANCH   6   8
ENDBRANCH   3   6
ENDBRANCH   2   3
ENDBRANCH   1   2
BRANCH   1  17
ATOM     17  C   LIG    1       26.696 -20.649   7.997  0.00  0.00    +0.042 C 
BRANCH  17  18
ATOM     18  C   LIG    1       26.888 -20.491   6.489  0.00  0.00    +0.232 C 
BRANCH  18  19
ATOM     19  O   LIG    1       28.293 -20.462   6.217  0.00  0.00    -0.461 OA
BRANCH  19  20
ATOM     20  C   LIG    1       28.850 -19.271   6.042  0.00  0.00    +0.339 C 
ATOM     21  O   LIG    1       28.787 -18.540   5.014  0.00  0.00    -0.245 OA
BRANCH  20  22
ATOM     22  C   LIG    1       29.719 -18.999   7.183  0.00  0.00    +0.063 A 
ATOM     23  C   LIG    1       30.444 -20.054   7.731  0.00  0.00    +0.064 A 
ATOM     24  C   LIG    1       31.301 -19.860   8.811  0.00  0.00    +0.162 A 
ATOM     25  C   LIG    1       31.364 -18.567   9.395  0.00  0.00    +0.162 A 
ATOM     26  C   LIG    1       30.629 -17.519   8.817  0.00  0.00    +0.050 A 
ATOM     27  C   LIG    1       29.802 -17.732   7.731  0.00  0.00    +0.019 A 
BRANCH  24  28
ATOM     28  O   LIG    1       32.060 -20.899   9.308  0.00  0.00    -0.491 OA
ATOM     29  C   LIG    1       31.500 -22.222   9.206  0.00  0.00    +0.277 C 
ENDBRANCH  24  28
BRANCH  25  30
ATOM     30  O   LIG    1       32.166 -18.323  10.485  0.00  0.00    -0.491 OA
ATOM     31  C   LIG    1       32.546 -16.949  10.666  0.00  0.00    +0.277 C 
ENDBRANCH  25  30
ENDBRANCH  20  22
ENDBRANCH  19  20
ENDBRANCH  18  19
ENDBRANCH  17  18
ENDBRANCH   1  17
TORSDOF 14
ENDMDL
MODEL 6
REMARK VINA RESULT:      -8.1      2.102      9.149
REMARK  Name = *****
REMARK                            x       y       z     vdW  Elec       q    Type
REMARK                         _______ _______ _______ _____ _____    ______ ____
ROOT
ATOM      1  C   LIG    1       23.080 -22.982   6.878  0.00  0.00    +0.019 C 
ENDROOT
BRANCH   1   2
ATOM      2  C   LIG    1       23.660 -21.536   6.723  0.00  0.00    +0.085 C 
BRANCH   2   3
ATOM      3  N   LIG    1       24.981 -21.298   6.063  0.00  0.00    -0.300 NA
BRANCH   3   5
ATOM      4  C   LIG    1       23.521 -19.748   4.498  0.00  0.00    +0.020 C 
ATOM      5  C   LIG    1       24.832 -20.467   4.839  0.00  0.00    +0.081 C 
ENDBRANCH   3   5
BRANCH   3   6
ATOM      6  C   LIG    1       26.085 -20.880   6.962  0.00  0.00    +0.058 C 
ATOM      7  C   LIG    1       25.580 -20.667   8.395  0.00  0.00    +0.024 C 
BRANCH   6   8
ATOM      8  C   LIG    1       27.489 -21.576   6.878  0.00  0.00    +0.053 C 
BRANCH   8   9
ATOM      9  C   LIG    1       28.737 -20.776   7.167  0.00  0.00    -0.046 A 
ATOM     10  C   LIG    1       29.699 -21.173   8.091  0.00  0.00    +0.007 A 
ATOM     11  C   LIG    1       30.804 -20.343   8.348  0.00  0.00    +0.046 A 
ATOM     12  C   LIG    1       31.069 -19.237   7.535  0.00  0.00    +0.120 A 
ATOM     13  C   LIG    1       30.169 -18.919   6.541  0.00  0.00    +0.046 A 
ATOM     14  C   LIG    1       28.943 -19.557   6.528  0.00  0.00    +0.007 A 
BRANCH  12  15
ATOM     15  O   LIG    1       32.144 -18.444   7.824  0.00  0.00    -0.495 OA
ATOM     16  C   LIG    1       31.934 -17.554   8.922  0.00  0.00    +0.277 C 
ENDBRANCH  12  15
ENDBRANCH   8   9
ENDBRANCH   6   8
ENDBRANCH   3   6
ENDBRANCH   2   3
ENDBRANCH   1   2
BRANCH   1  17
ATOM     17  C   LIG    1       24.079 -24.152   6.887  0.00  0.00    +0.042 C 
BRANCH  17  18
ATOM     18  C   LIG    1       24.066 -25.029   5.635  0.00  0.00    +0.232 C 
BRANCH  18  19
ATOM     19  O   LIG    1       24.002 -26.398   6.048  0.00  0.00    -0.461 OA
BRANCH  19  20
ATOM     20  C   LIG    1       25.097 -27.130   5.884  0.00  0.00    +0.339 C 
ATOM     21  O   LIG    1       25.866 -27.143   4.882  0.00  0.00    -0.245 OA
BRANCH  20  22
ATOM     22  C   LIG    1       25.185 -28.076   6.991  0.00  0.00    +0.063 A 
ATOM     23  C   LIG    1       26.173 -27.881   7.953  0.00  0.00    +0.064 A 
ATOM     24  C   LIG    1       26.303 -28.739   9.042  0.00  0.00    +0.162 A 
ATOM     25  C   LIG    1       25.447 -29.870   9.113  0.00  0.00    +0.162 A 
ATOM     26  C   LIG    1       24.454 -30.038   8.134  0.00  0.00    +0.050 A 
ATOM     27  C   LIG    1       24.330 -29.160   7.075  0.00  0.00    +0.019 A 
BRANCH  24  28
ATOM     28  O   LIG    1       27.246 -28.503  10.021  0.00  0.00    -0.491 OA
ATOM     29  C   LIG    1       26.763 -28.015  11.287  0.00  0.00    +0.277 C 
ENDBRANCH  24  28
BRANCH  25  30
ATOM     30  O   LIG    1       25.551 -30.771  10.147  0.00  0.00    -0.491 OA
ATOM     31  C   LIG    1       25.907 -32.107   9.756  0.00  0.00    +0.277 C 
ENDBRANCH  25  30
ENDBRANCH  20  22
ENDBRANCH  19  20
ENDBRANCH  18  19
ENDBRANCH  17  18
ENDBRANCH   1  17
TORSDOF 14
ENDMDL
MODEL 7
REMARK VINA RESULT:      -7.9      2.335      9.444
REMARK  Name = *****
REMARK                            x       y       z     vdW  Elec       q    Type
REMARK                         _______ _______ _______ _____ _____    ______ ____
ROOT
ATOM      1  C   LIG    1       24.061 -24.104   6.500  0.00  0.00    +0.019 C 
ENDROOT
BRANCH   1   2
ATOM      2  C   LIG    1       24.139 -22.601   6.930  0.00  0.00    +0.085 C 
BRANCH   2   3
ATOM      3  N   LIG    1       25.059 -21.644   6.241  0.00  0.00    -0.300 NA
BRANCH   3   5
ATOM      4  C   LIG    1       22.899 -20.173   5.842  0.00  0.00    +0.020 C 
ATOM      5  C   LIG    1       24.300 -20.649   5.437  0.00  0.00    +0.081 C 
ENDBRANCH   3   5
BRANCH   3   6
ATOM      6  C   LIG    1       26.136 -21.065   7.081  0.00  0.00    +0.058 C 
ATOM      7  C   LIG    1       25.615 -20.708   8.479  0.00  0.00    +0.024 C 
BRANCH   6   8
ATOM      8  C   LIG    1       27.574 -21.693   7.078  0.00  0.00    +0.053 C 
BRANCH   8   9
ATOM      9  C   LIG    1       28.777 -20.804   7.285  0.00  0.00    -0.046 A 
ATOM     10  C   LIG    1       29.795 -21.098   8.189  0.00  0.00    +0.007 A 
ATOM     11  C   LIG    1       30.852 -20.189   8.367  0.00  0.00    +0.046 A 
ATOM     12  C   LIG    1       31.016 -19.106   7.498  0.00  0.00    +0.120 A 
ATOM     13  C   LIG    1       30.064 -18.891   6.526  0.00  0.00    +0.046 A 
ATOM     14  C   LIG    1       28.882 -19.605   6.587  0.00  0.00    +0.007 A 
BRANCH  12  15
ATOM     15  O   LIG    1       32.048 -18.235   7.711  0.00  0.00    -0.495 OA
ATOM     16  C   LIG    1       32.028 -17.612   8.997  0.00  0.00    +0.277 C 
ENDBRANCH  12  15
ENDBRANCH   8   9
ENDBRANCH   6   8
ENDBRANCH   3   6
ENDBRANCH   2   3
ENDBRANCH   1   2
BRANCH   1  17
ATOM     17  C   LIG    1       25.379 -24.896   6.440  0.00  0.00    +0.042 C 
BRANCH  17  18
ATOM     18  C   LIG    1       25.445 -25.968   5.353  0.00  0.00    +0.232 C 
BRANCH  18  19
ATOM     19  O   LIG    1       25.940 -27.175   5.945  0.00  0.00    -0.461 OA
BRANCH  19  20
ATOM     20  C   LIG    1       25.059 -28.143   6.169  0.00  0.00    +0.339 C 
ATOM     21  O   LIG    1       24.100 -28.491   5.426  0.00  0.00    -0.245 OA
BRANCH  20  22
ATOM     22  C   LIG    1       25.264 -28.642   7.524  0.00  0.00    +0.063 A 
ATOM     23  C   LIG    1       24.383 -29.601   8.018  0.00  0.00    +0.064 A 
ATOM     24  C   LIG    1       24.530 -30.129   9.299  0.00  0.00    +0.162 A 
ATOM     25  C   LIG    1       25.562 -29.611  10.125  0.00  0.00    +0.162 A 
ATOM     26  C   LIG    1       26.442 -28.651   9.598  0.00  0.00    +0.050 A 
ATOM     27  C   LIG    1       26.289 -28.159   8.316  0.00  0.00    +0.019 A 
BRANCH  24  28
ATOM     28  O   LIG    1       23.688 -31.121   9.756  0.00  0.00    -0.491 OA
ATOM     29  C   LIG    1       22.371 -30.716  10.177  0.00  0.00    +0.277 C 
ENDBRANCH  24  28
BRANCH  25  30
ATOM     30  O   LIG    1       25.735 -30.069  11.410  0.00  0.00    -0.491 OA
ATOM     31  C   LIG    1       26.585 -29.256  12.236  0.00  0.00    +0.277 C 
ENDBRANCH  25  30
ENDBRANCH  20  22
ENDBRANCH  19  20
ENDBRANCH  18  19
ENDBRANCH  17  18
ENDBRANCH   1  17
TORSDOF 14
ENDMDL
MODEL 8
REMARK VINA RESULT:      -7.9      2.135      8.581
REMARK  Name = *****
REMARK                            x       y       z     vdW  Elec       q    Type
REMARK                         _______ _______ _______ _____ _____    ______ ____
ROOT
ATOM      1  C   LIG    1       23.930 -22.939   7.021  0.00  0.00    +0.019 C 
ENDROOT
BRANCH   1   2
ATOM      2  C   LIG    1       22.875 -21.860   6.603  0.00  0.00    +0.085 C 
BRANCH   2   3
ATOM      3  N   LIG    1       23.070 -21.016   5.384  0.00  0.00    -0.300 NA
BRANCH   3   5
ATOM      4  C   LIG    1       22.222 -18.674   4.499  0.00  0.00    +0.020 C 
ATOM      5  C   LIG    1       22.667 -19.606   5.633  0.00  0.00    +0.081 C 
ENDBRANCH   3   5
BRANCH   3   6
ATOM      6  C   LIG    1       24.373 -21.172   4.693  0.00  0.00    +0.058 C 
ATOM      7  C   LIG    1       24.182 -21.701   3.266  0.00  0.00    +0.024 C 
BRANCH   6   8
ATOM      8  C   LIG    1       25.481 -20.067   4.819  0.00  0.00    +0.053 C 
BRANCH   8   9
ATOM      9  C   LIG    1       26.560 -20.209   5.866  0.00  0.00    -0.046 A 
ATOM     10  C   LIG    1       26.291 -20.466   7.208  0.00  0.00    +0.007 A 
ATOM     11  C   LIG    1       27.349 -20.524   8.132  0.00  0.00    +0.046 A 
ATOM     12  C   LIG    1       28.676 -20.549   7.695  0.00  0.00    +0.120 A 
ATOM     13  C   LIG    1       28.930 -20.415   6.348  0.00  0.00    +0.046 A 
ATOM     14  C   LIG    1       27.895 -20.036   5.513  0.00  0.00    +0.007 A 
BRANCH  12  15
ATOM     15  O   LIG    1       29.679 -20.591   8.624  0.00  0.00    -0.495 OA
ATOM     16  C   LIG    1       30.611 -19.512   8.524  0.00  0.00    +0.277 C 
ENDBRANCH  12  15
ENDBRANCH   8   9
ENDBRANCH   6   8
ENDBRANCH   3   6
ENDBRANCH   2   3
ENDBRANCH   1   2
BRANCH   1  17
ATOM     17  C   LIG    1       23.654 -24.398   6.616  0.00  0.00    +0.042 C 
BRANCH  17  18
ATOM     18  C   LIG    1       24.519 -24.931   5.474  0.00  0.00    +0.232 C 
BRANCH  18  19
ATOM     19  O   LIG    1       24.489 -26.361   5.519  0.00  0.00    -0.461 OA
BRANCH  19  20
ATOM     20  C   LIG    1       25.643 -26.983   5.724  0.00  0.00    +0.339 C 
ATOM     21  O   LIG    1       26.681 -26.925   5.006  0.00  0.00    -0.245 OA
BRANCH  20  22
ATOM     22  C   LIG    1       25.473 -27.911   6.837  0.00  0.00    +0.063 A 
ATOM     23  C   LIG    1       26.400 -27.878   7.876  0.00  0.00    +0.064 A 
ATOM     24  C   LIG    1       26.287 -28.727   8.974  0.00  0.00    +0.162 A 
ATOM     25  C   LIG    1       25.241 -29.686   8.978  0.00  0.00    +0.162 A 
ATOM     26  C   LIG    1       24.314 -29.692   7.921  0.00  0.00    +0.050 A 
ATOM     27  C   LIG    1       24.434 -28.824   6.853  0.00  0.00    +0.019 A 
BRANCH  24  28
ATOM     28  O   LIG    1       27.176 -28.645  10.026  0.00  0.00    -0.491 OA
ATOM     29  C   LIG    1       26.764 -27.871  11.168  0.00  0.00    +0.277 C 
ENDBRANCH  24  28
BRANCH  25  30
ATOM     30  O   LIG    1       25.099 -30.574  10.018  0.00  0.00    -0.491 OA
ATOM     31  C   LIG    1       25.772 -31.831   9.842  0.00  0.00    +0.277 C 
ENDBRANCH  25  30
ENDBRANCH  20  22
ENDBRANCH  19  20
ENDBRANCH  18  19
ENDBRANCH  17  18
ENDBRANCH   1  17
TORSDOF 14
ENDMDL
MODEL 9
REMARK VINA RESULT:      -7.9      1.945      9.363
REMARK  Name = *****
REMARK                            x       y       z     vdW  Elec       q    Type
REMARK                         _______ _______ _______ _____ _____    ______ ____
ROOT
ATOM      1  C   LIG    1       23.982 -23.032   6.995  0.00  0.00    +0.019 C 
ENDROOT
BRANCH   1   2
ATOM      2  C   LIG    1       22.906 -21.974   6.579  0.00  0.00    +0.085 C 
BRANCH   2   3
ATOM      3  N   LIG    1       23.096 -21.106   5.376  0.00  0.00    -0.300 NA
BRANCH   3   5
ATOM      4  C   LIG    1       22.155 -18.779   4.549  0.00  0.00    +0.020 C 
ATOM      5  C   LIG    1       22.687 -19.703   5.651  0.00  0.00    +0.081 C 
ENDBRANCH   3   5
BRANCH   3   6
ATOM      6  C   LIG    1       24.398 -21.244   4.679  0.00  0.00    +0.058 C 
ATOM      7  C   LIG    1       24.213 -21.824   3.271  0.00  0.00    +0.024 C 
BRANCH   6   8
ATOM      8  C   LIG    1       25.472 -20.104   4.763  0.00  0.00    +0.053 C 
BRANCH   8   9
ATOM      9  C   LIG    1       26.557 -20.175   5.811  0.00  0.00    -0.046 A 
ATOM     10  C   LIG    1       26.311 -20.505   7.141  0.00  0.00    +0.007 A 
ATOM     11  C   LIG    1       27.367 -20.491   8.069  0.00  0.00    +0.046 A 
ATOM     12  C   LIG    1       28.691 -20.369   7.640  0.00  0.00    +0.120 A 
ATOM     13  C   LIG    1       28.934 -20.161   6.300  0.00  0.00    +0.046 A 
ATOM     14  C   LIG    1       27.869 -19.858   5.473  0.00  0.00    +0.007 A 
BRANCH  12  15
ATOM     15  O   LIG    1       29.691 -20.345   8.573  0.00  0.00    -0.495 OA
ATOM     16  C   LIG    1       30.458 -19.139   8.573  0.00  0.00    +0.277 C 
ENDBRANCH  12  15
ENDBRANCH   8   9
ENDBRANCH   6   8
ENDBRANCH   3   6
ENDBRANCH   2   3
ENDBRANCH   1   2
BRANCH   1  17
ATOM     17  C   LIG    1       23.780 -24.479   6.511  0.00  0.00    +0.042 C 
BRANCH  17  18
ATOM     18  C   LIG    1       24.783 -24.962   5.465  0.00  0.00    +0.232 C 
BRANCH  18  19
ATOM     19  O   LIG    1       24.569 -26.362   5.251  0.00  0.00    -0.461 OA
BRANCH  19  20
ATOM     20  C   LIG    1       25.641 -27.143   5.244  0.00  0.00    +0.339 C 
ATOM     21  O   LIG    1       26.703 -26.979   4.580  0.00  0.00    -0.245 OA
BRANCH  20  22
ATOM     22  C   LIG    1       25.334 -28.348   6.007  0.00  0.00    +0.063 A 
ATOM     23  C   LIG    1       25.186 -29.549   5.318  0.00  0.00    +0.064 A 
ATOM     24  C   LIG    1       24.906 -30.738   5.987  0.00  0.00    +0.162 A 
ATOM     25  C   LIG    1       24.700 -30.688   7.390  0.00  0.00    +0.162 A 
ATOM     26  C   LIG    1       24.864 -29.464   8.062  0.00  0.00    +0.050 A 
ATOM     27  C   LIG    1       25.164 -28.301   7.378  0.00  0.00    +0.019 A 
BRANCH  24  28
ATOM     28  O   LIG    1       24.821 -31.933   5.302  0.00  0.00    -0.491 OA
ATOM     29  C   LIG    1       25.813 -32.173   4.286  0.00  0.00    +0.277 C 
ENDBRANCH  24  28
BRANCH  25  30
ATOM     30  O   LIG    1       24.387 -31.823   8.100  0.00  0.00    -0.491 OA
ATOM     31  C   LIG    1       23.330 -31.668   9.061  0.00  0.00    +0.277 C 
ENDBRANCH  25  30
ENDBRANCH  20  22
ENDBRANCH  19  20
ENDBRANCH  18  19
ENDBRANCH  17  18
ENDBRANCH   1  17
TORSDOF 14
ENDMDL
