MODEL 1
REMARK VINA RESULT:      -6.8      0.000      0.000
REMARK  Name = *****
REMARK                            x       y       z     vdW  Elec       q    Type
REMARK                         _______ _______ _______ _____ _____    ______ ____
ROOT
ATOM      1  C   LIG    1       23.494 -29.978  12.104  0.00  0.00    +0.167 C 
ATOM      2  N   LIG    1       24.072 -30.087  10.765  0.00  0.00    -0.233 N 
ATOM      3  C   LIG    1       23.432 -30.776   9.683  0.00  0.00    +0.269 C 
ATOM      4  O   LIG    1       24.440 -31.580   9.076  0.00  0.00    -0.298 OA
ATOM      5  C   LIG    1       25.730 -30.935   9.300  0.00  0.00    +0.220 C 
ATOM      6  C   LIG    1       22.164 -31.546  10.130  0.00  0.00    +0.156 C 
ATOM      7  N   LIG    1       22.194 -32.018  11.505  0.00  0.00    -0.290 N 
ATOM      8  C   LIG    1       21.323 -33.170  11.692  0.00  0.00    +0.108 C 
ATOM      9  C   LIG    1       20.715 -33.409  10.310  0.00  0.00    +0.021 C 
ATOM     10  C   LIG    1       21.743 -32.793   9.353  0.00  0.00    +0.031 C 
ATOM     11  C   LIG    1       25.437 -30.293  10.660  0.00  0.00    +0.271 C 
ATOM     12  O   LIG    1       26.245 -29.999  11.537  0.00  0.00    -0.270 OA
ATOM     13  C   LIG    1       22.674 -31.234  12.533  0.00  0.00    +0.237 C 
ATOM     14  O   LIG    1       22.402 -31.466  13.710  0.00  0.00    -0.274 OA
ENDROOT
BRANCH   5  15
ATOM     15  N   LIG    1       25.878 -29.953   8.231  0.00  0.00    -0.280 N 
ATOM     16  H   LIG    1       25.847 -30.337   7.296  0.00  0.00    +0.152 HD
ATOM     17  C   LIG    1       26.478 -28.732   8.435  0.00  0.00    +0.220 C 
ATOM     18  O   LIG    1       26.876 -28.382   9.543  0.00  0.00    -0.275 OA
BRANCH  17  19
ATOM     19  C   LIG    1       26.454 -27.736   7.280  0.00  0.00    +0.090 C 
ATOM     20  C   LIG    1       25.362 -28.182   6.282  0.00  0.00    +0.097 C 
ATOM     21  N   LIG    1       25.252 -27.281   5.128  0.00  0.00    -0.301 NA
ATOM     22  C   LIG    1       24.310 -27.804   4.140  0.00  0.00    +0.105 C 
ATOM     23  C   LIG    1       24.963 -25.884   5.521  0.00  0.00    +0.068 C 
ATOM     24  C   LIG    1       26.130 -25.377   6.460  0.00  0.00    +0.038 C 
ATOM     25  C   LIG    1       25.900 -23.949   6.893  0.00  0.00    -0.033 C 
ATOM     26  C   LIG    1       24.578 -23.501   6.948  0.00  0.00    +0.006 C 
ATOM     27  C   LIG    1       24.245 -22.227   7.356  0.00  0.00    +0.047 C 
ATOM     28  N   LIG    1       22.871 -22.157   7.272  0.00  0.00    -0.360 NA
ATOM     29  H   LIG    1       22.323 -21.340   7.504  0.00  0.00    +0.165 HD
ATOM     30  C   LIG    1       22.353 -23.356   6.822  0.00  0.00    +0.087 C 
ATOM     31  C   LIG    1       25.226 -21.311   7.741  0.00  0.00    +0.026 C 
ATOM     32  C   LIG    1       26.561 -21.754   7.695  0.00  0.00    +0.002 C 
ATOM     33  C   LIG    1       23.409 -24.211   6.604  0.00  0.00    -0.021 C 
ATOM     34  C   LIG    1       26.898 -23.050   7.283  0.00  0.00    +0.005 C 
ATOM     35  C   LIG    1       23.518 -25.619   6.112  0.00  0.00    +0.056 C 
ATOM     36  C   LIG    1       26.268 -26.280   7.697  0.00  0.00    +0.023 C 
ENDBRANCH  17  19
ENDBRANCH   5  15
BRANCH   5  37
ATOM     37  C   LIG    1       26.820 -32.031   9.385  0.00  0.00    +0.043 C 
ATOM     38  C   LIG    1       26.316 -33.326  10.031  0.00  0.00    +0.012 C 
ATOM     39  C   LIG    1       27.484 -32.367   8.049  0.00  0.00    +0.012 C 
ENDBRANCH   5  37
BRANCH   3  40
ATOM     40  O   LIG    1       23.018 -29.802   8.742  0.00  0.00    -0.348 OA
ATOM     41  H   LIG    1       22.050 -29.857   8.757  0.00  0.00    +0.214 HD
ENDBRANCH   3  40
BRANCH   1  42
ATOM     42  C   LIG    1       22.694 -28.683  12.315  0.00  0.00    +0.035 C 
BRANCH  42  44
ATOM     43  C   LIG    1       24.696 -27.417  13.168  0.00  0.00    +0.007 C 
ATOM     44  C   LIG    1       23.213 -27.719  13.412  0.00  0.00    -0.015 C 
ATOM     45  C   LIG    1       22.465 -26.383  13.493  0.00  0.00    +0.007 C 
ENDBRANCH  42  44
ENDBRANCH   1  42
TORSDOF 6
ENDMDL
MODEL 2
REMARK VINA RESULT:      -6.5      2.817      7.329
REMARK  Name = *****
REMARK                            x       y       z     vdW  Elec       q    Type
REMARK                         _______ _______ _______ _____ _____    ______ ____
ROOT
ATOM      1  C   LIG    1       24.936 -30.026   7.123  0.00  0.00    +0.167 C 
ATOM      2  N   LIG    1       25.113 -30.509   8.492  0.00  0.00    -0.233 N 
ATOM      3  C   LIG    1       26.189 -31.366   8.894  0.00  0.00    +0.269 C 
ATOM      4  O   LIG    1       25.602 -32.391   9.692  0.00  0.00    -0.298 OA
ATOM      5  C   LIG    1       24.398 -31.847  10.313  0.00  0.00    +0.220 C 
ATOM      6  C   LIG    1       27.030 -31.873   7.695  0.00  0.00    +0.156 C 
ATOM      7  N   LIG    1       26.292 -32.005   6.449  0.00  0.00    -0.290 N 
ATOM      8  C   LIG    1       26.910 -32.984   5.566  0.00  0.00    +0.108 C 
ATOM      9  C   LIG    1       28.126 -33.481   6.348  0.00  0.00    +0.021 C 
ATOM     10  C   LIG    1       27.745 -33.219   7.809  0.00  0.00    +0.031 C 
ATOM     11  C   LIG    1       23.983 -30.874   9.205  0.00  0.00    +0.271 C 
ATOM     12  O   LIG    1       22.852 -30.464   8.954  0.00  0.00    -0.270 OA
ATOM     13  C   LIG    1       25.384 -31.053   6.037  0.00  0.00    +0.237 C 
ATOM     14  O   LIG    1       25.015 -30.969   4.867  0.00  0.00    -0.274 OA
ENDROOT
BRANCH   5  15
ATOM     15  N   LIG    1       24.844 -31.168  11.525  0.00  0.00    -0.280 N 
ATOM     16  H   LIG    1       25.012 -30.177  11.418  0.00  0.00    +0.152 HD
ATOM     17  C   LIG    1       25.443 -31.841  12.564  0.00  0.00    +0.220 C 
ATOM     18  O   LIG    1       25.589 -33.060  12.549  0.00  0.00    -0.275 OA
BRANCH  17  19
ATOM     19  C   LIG    1       25.742 -31.050  13.833  0.00  0.00    +0.090 C 
ATOM     20  C   LIG    1       27.271 -31.043  14.049  0.00  0.00    +0.097 C 
ATOM     21  N   LIG    1       27.668 -30.297  15.250  0.00  0.00    -0.301 NA
ATOM     22  C   LIG    1       29.102 -30.426  15.500  0.00  0.00    +0.105 C 
ATOM     23  C   LIG    1       27.208 -28.891  15.226  0.00  0.00    +0.068 C 
ATOM     24  C   LIG    1       25.630 -28.883  15.112  0.00  0.00    +0.038 C 
ATOM     25  C   LIG    1       25.093 -27.472  15.091  0.00  0.00    -0.033 C 
ATOM     26  C   LIG    1       25.935 -26.473  14.597  0.00  0.00    +0.006 C 
ATOM     27  C   LIG    1       25.542 -25.155  14.502  0.00  0.00    +0.047 C 
ATOM     28  N   LIG    1       26.627 -24.480  13.985  0.00  0.00    -0.360 NA
ATOM     29  H   LIG    1       26.650 -23.487  13.800  0.00  0.00    +0.165 HD
ATOM     30  C   LIG    1       27.676 -25.352  13.761  0.00  0.00    +0.087 C 
ATOM     31  C   LIG    1       24.266 -24.750  14.899  0.00  0.00    +0.026 C 
ATOM     32  C   LIG    1       23.408 -25.750  15.392  0.00  0.00    +0.002 C 
ATOM     33  C   LIG    1       27.264 -26.607  14.146  0.00  0.00    -0.021 C 
ATOM     34  C   LIG    1       23.807 -27.090  15.485  0.00  0.00    +0.005 C 
ATOM     35  C   LIG    1       27.920 -27.951  14.170  0.00  0.00    +0.056 C 
ATOM     36  C   LIG    1       25.169 -29.636  13.854  0.00  0.00    +0.023 C 
ENDBRANCH  17  19
ENDBRANCH   5  15
BRANCH   5  37
ATOM     37  C   LIG    1       23.379 -32.997  10.502  0.00  0.00    +0.043 C 
ATOM     38  C   LIG    1       22.074 -32.536  11.160  0.00  0.00    +0.012 C 
ATOM     39  C   LIG    1       23.047 -33.765   9.222  0.00  0.00    +0.012 C 
ENDBRANCH   5  37
BRANCH   3  40
ATOM     40  O   LIG    1       27.055 -30.606   9.719  0.00  0.00    -0.348 OA
ATOM     41  H   LIG    1       27.412 -29.930   9.123  0.00  0.00    +0.214 HD
ENDBRANCH   3  40
BRANCH   1  42
ATOM     42  C   LIG    1       25.561 -28.643   6.884  0.00  0.00    +0.035 C 
BRANCH  42  44
ATOM     43  C   LIG    1       24.380 -26.480   6.372  0.00  0.00    +0.007 C 
ATOM     44  C   LIG    1       24.923 -27.778   5.766  0.00  0.00    -0.015 C 
ATOM     45  C   LIG    1       25.877 -27.405   4.625  0.00  0.00    +0.007 C 
ENDBRANCH  42  44
ENDBRANCH   1  42
TORSDOF 6
ENDMDL
MODEL 3
REMARK VINA RESULT:      -6.4      1.703      2.273
REMARK  Name = *****
REMARK                            x       y       z     vdW  Elec       q    Type
REMARK                         _______ _______ _______ _____ _____    ______ ____
ROOT
ATOM      1  C   LIG    1       23.120 -28.944  13.366  0.00  0.00    +0.167 C 
ATOM      2  N   LIG    1       24.082 -28.824  12.272  0.00  0.00    -0.233 N 
ATOM      3  C   LIG    1       24.386 -29.893  11.367  0.00  0.00    +0.269 C 
ATOM      4  O   LIG    1       25.806 -29.926  11.257  0.00  0.00    -0.298 OA
ATOM      5  C   LIG    1       26.312 -28.580  11.507  0.00  0.00    +0.220 C 
ATOM      6  C   LIG    1       23.731 -31.234  11.784  0.00  0.00    +0.156 C 
ATOM      7  N   LIG    1       23.539 -31.397  13.216  0.00  0.00    -0.290 N 
ATOM      8  C   LIG    1       23.490 -32.802  13.591  0.00  0.00    +0.108 C 
ATOM      9  C   LIG    1       23.665 -33.550  12.269  0.00  0.00    +0.021 C 
ATOM     10  C   LIG    1       24.409 -32.544  11.383  0.00  0.00    +0.031 C 
ATOM     11  C   LIG    1       25.247 -28.112  12.505  0.00  0.00    +0.271 C 
ATOM     12  O   LIG    1       25.366 -27.259  13.380  0.00  0.00    -0.270 OA
ATOM     13  C   LIG    1       23.082 -30.365  14.010  0.00  0.00    +0.237 C 
ATOM     14  O   LIG    1       22.598 -30.566  15.122  0.00  0.00    -0.274 OA
ENDROOT
BRANCH   5  15
ATOM     15  N   LIG    1       26.235 -27.880  10.229  0.00  0.00    -0.280 N 
ATOM     16  H   LIG    1       25.737 -27.001  10.256  0.00  0.00    +0.152 HD
ATOM     17  C   LIG    1       26.379 -28.532   9.026  0.00  0.00    +0.220 C 
ATOM     18  O   LIG    1       26.631 -29.732   8.964  0.00  0.00    -0.275 OA
BRANCH  17  19
ATOM     19  C   LIG    1       26.417 -27.676   7.764  0.00  0.00    +0.090 C 
ATOM     20  C   LIG    1       25.367 -28.227   6.775  0.00  0.00    +0.097 C 
ATOM     21  N   LIG    1       25.318 -27.465   5.521  0.00  0.00    -0.301 NA
ATOM     22  C   LIG    1       24.416 -28.093   4.558  0.00  0.00    +0.105 C 
ATOM     23  C   LIG    1       25.028 -26.030   5.737  0.00  0.00    +0.068 C 
ATOM     24  C   LIG    1       26.158 -25.426   6.664  0.00  0.00    +0.038 C 
ATOM     25  C   LIG    1       25.925 -23.955   6.918  0.00  0.00    -0.033 C 
ATOM     26  C   LIG    1       24.607 -23.496   6.860  0.00  0.00    +0.006 C 
ATOM     27  C   LIG    1       24.271 -22.181   7.103  0.00  0.00    +0.047 C 
ATOM     28  N   LIG    1       22.903 -22.112   6.949  0.00  0.00    -0.360 NA
ATOM     29  H   LIG    1       22.354 -21.271   7.061  0.00  0.00    +0.165 HD
ATOM     30  C   LIG    1       22.392 -23.352   6.617  0.00  0.00    +0.087 C 
ATOM     31  C   LIG    1       25.244 -21.233   7.425  0.00  0.00    +0.026 C 
ATOM     32  C   LIG    1       26.575 -21.687   7.491  0.00  0.00    +0.002 C 
ATOM     33  C   LIG    1       23.447 -24.234   6.547  0.00  0.00    -0.021 C 
ATOM     34  C   LIG    1       26.915 -23.024   7.248  0.00  0.00    +0.005 C 
ATOM     35  C   LIG    1       23.562 -25.689   6.227  0.00  0.00    +0.056 C 
ATOM     36  C   LIG    1       26.231 -26.180   8.001  0.00  0.00    +0.023 C 
ENDBRANCH  17  19
ENDBRANCH   5  15
BRANCH   5  37
ATOM     37  C   LIG    1       27.716 -28.692  12.149  0.00  0.00    +0.043 C 
ATOM     38  C   LIG    1       27.669 -29.156  13.608  0.00  0.00    +0.012 C 
ATOM     39  C   LIG    1       28.695 -29.576  11.376  0.00  0.00    +0.012 C 
ENDBRANCH   5  37
BRANCH   3  40
ATOM     40  O   LIG    1       23.853 -29.545  10.101  0.00  0.00    -0.348 OA
ATOM     41  H   LIG    1       23.764 -28.581  10.141  0.00  0.00    +0.214 HD
ENDBRANCH   3  40
BRANCH   1  42
ATOM     42  C   LIG    1       21.711 -28.458  12.991  0.00  0.00    +0.035 C 
BRANCH  42  44
ATOM     43  C   LIG    1       19.896 -26.767  13.423  0.00  0.00    +0.007 C 
ATOM     44  C   LIG    1       21.406 -26.958  13.243  0.00  0.00    -0.015 C 
ATOM     45  C   LIG    1       22.109 -26.362  14.468  0.00  0.00    +0.007 C 
ENDBRANCH  42  44
ENDBRANCH   1  42
TORSDOF 6
ENDMDL
MODEL 4
REMARK VINA RESULT:      -5.6      2.991      7.620
REMARK  Name = *****
REMARK                            x       y       z     vdW  Elec       q    Type
REMARK                         _______ _______ _______ _____ _____    ______ ____
ROOT
ATOM      1  C   LIG    1       25.355 -30.707   5.849  0.00  0.00    +0.167 C 
ATOM      2  N   LIG    1       25.153 -31.083   7.248  0.00  0.00    -0.233 N 
ATOM      3  C   LIG    1       26.130 -31.787   8.025  0.00  0.00    +0.269 C 
ATOM      4  O   LIG    1       25.423 -32.820   8.706  0.00  0.00    -0.298 OA
ATOM      5  C   LIG    1       24.045 -32.378   8.894  0.00  0.00    +0.220 C 
ATOM      6  C   LIG    1       27.334 -32.269   7.177  0.00  0.00    +0.156 C 
ATOM      7  N   LIG    1       27.021 -32.560   5.788  0.00  0.00    -0.290 N 
ATOM      8  C   LIG    1       27.960 -33.515   5.218  0.00  0.00    +0.108 C 
ATOM      9  C   LIG    1       28.924 -33.824   6.365  0.00  0.00    +0.021 C 
ATOM     10  C   LIG    1       28.098 -33.517   7.620  0.00  0.00    +0.031 C 
ATOM     11  C   LIG    1       23.898 -31.527   7.628  0.00  0.00    +0.271 C 
ATOM     12  O   LIG    1       22.864 -31.263   7.021  0.00  0.00    -0.270 OA
ATOM     13  C   LIG    1       26.198 -31.742   5.042  0.00  0.00    +0.237 C 
ATOM     14  O   LIG    1       26.193 -31.772   3.812  0.00  0.00    -0.274 OA
ENDROOT
BRANCH   5  15
ATOM     15  N   LIG    1       24.043 -31.580  10.116  0.00  0.00    -0.280 N 
ATOM     16  H   LIG    1       23.764 -30.616   9.992  0.00  0.00    +0.152 HD
ATOM     17  C   LIG    1       24.790 -31.925  11.218  0.00  0.00    +0.220 C 
ATOM     18  O   LIG    1       25.460 -32.953  11.252  0.00  0.00    -0.275 OA
BRANCH  17  19
ATOM     19  C   LIG    1       24.602 -31.092  12.482  0.00  0.00    +0.090 C 
ATOM     20  C   LIG    1       25.333 -29.745  12.285  0.00  0.00    +0.097 C 
ATOM     21  N   LIG    1       25.208 -28.860  13.451  0.00  0.00    -0.301 NA
ATOM     22  C   LIG    1       26.022 -27.657  13.287  0.00  0.00    +0.105 C 
ATOM     23  C   LIG    1       23.800 -28.565  13.794  0.00  0.00    +0.068 C 
ATOM     24  C   LIG    1       23.064 -29.930  14.102  0.00  0.00    +0.038 C 
ATOM     25  C   LIG    1       21.618 -29.699  14.470  0.00  0.00    -0.033 C 
ATOM     26  C   LIG    1       21.001 -28.557  13.953  0.00  0.00    +0.006 C 
ATOM     27  C   LIG    1       19.677 -28.257  14.197  0.00  0.00    +0.047 C 
ATOM     28  N   LIG    1       19.437 -27.071  13.538  0.00  0.00    -0.360 NA
ATOM     29  H   LIG    1       18.549 -26.588  13.530  0.00  0.00    +0.165 HD
ATOM     30  C   LIG    1       20.581 -26.635  12.898  0.00  0.00    +0.087 C 
ATOM     31  C   LIG    1       18.878 -29.093  14.980  0.00  0.00    +0.026 C 
ATOM     32  C   LIG    1       19.489 -30.249  15.500  0.00  0.00    +0.002 C 
ATOM     33  C   LIG    1       21.577 -27.549  13.153  0.00  0.00    -0.021 C 
ATOM     34  C   LIG    1       20.833 -30.555  15.249  0.00  0.00    +0.005 C 
ATOM     35  C   LIG    1       23.018 -27.646  12.769  0.00  0.00    +0.056 C 
ATOM     36  C   LIG    1       23.150 -30.883  12.899  0.00  0.00    +0.023 C 
ENDBRANCH  17  19
ENDBRANCH   5  15
BRANCH   5  37
ATOM     37  C   LIG    1       23.122 -33.621   8.881  0.00  0.00    +0.043 C 
ATOM     38  C   LIG    1       22.131 -33.640  10.050  0.00  0.00    +0.012 C 
ATOM     39  C   LIG    1       22.355 -33.825   7.574  0.00  0.00    +0.012 C 
ENDBRANCH   5  37
BRANCH   3  40
ATOM     40  O   LIG    1       26.636 -30.885   8.994  0.00  0.00    -0.348 OA
ATOM     41  H   LIG    1       25.892 -30.751   9.601  0.00  0.00    +0.214 HD
ENDBRANCH   3  40
BRANCH   1  42
ATOM     42  C   LIG    1       25.898 -29.280   5.677  0.00  0.00    +0.035 C 
BRANCH  42  44
ATOM     43  C   LIG    1       26.150 -27.524   7.464  0.00  0.00    +0.007 C 
ATOM     44  C   LIG    1       25.173 -28.162   6.470  0.00  0.00    -0.015 C 
ATOM     45  C   LIG    1       24.584 -27.044   5.602  0.00  0.00    +0.007 C 
ENDBRANCH  42  44
ENDBRANCH   1  42
TORSDOF 6
ENDMDL
MODEL 5
REMARK VINA RESULT:      -5.6      2.502      3.575
REMARK  Name = *****
REMARK                            x       y       z     vdW  Elec       q    Type
REMARK                         _______ _______ _______ _____ _____    ______ ____
ROOT
ATOM      1  C   LIG    1       27.623 -29.648  13.356  0.00  0.00    +0.167 C 
ATOM      2  N   LIG    1       27.034 -29.204  12.094  0.00  0.00    -0.233 N 
ATOM      3  C   LIG    1       25.727 -28.624  11.993  0.00  0.00    +0.269 C 
ATOM      4  O   LIG    1       25.095 -29.264  10.888  0.00  0.00    -0.298 OA
ATOM      5  C   LIG    1       26.135 -29.690   9.956  0.00  0.00    +0.220 C 
ATOM      6  C   LIG    1       24.938 -28.692  13.325  0.00  0.00    +0.156 C 
ATOM      7  N   LIG    1       25.274 -29.824  14.173  0.00  0.00    -0.290 N 
ATOM      8  C   LIG    1       24.174 -30.171  15.061  0.00  0.00    +0.108 C 
ATOM      9  C   LIG    1       23.082 -29.156  14.719  0.00  0.00    +0.021 C 
ATOM     10  C   LIG    1       23.411 -28.745  13.279  0.00  0.00    +0.031 C 
ATOM     11  C   LIG    1       27.250 -29.978  10.966  0.00  0.00    +0.271 C 
ATOM     12  O   LIG    1       28.191 -30.757  10.839  0.00  0.00    -0.270 OA
ATOM     13  C   LIG    1       26.579 -30.231  14.359  0.00  0.00    +0.237 C 
ATOM     14  O   LIG    1       26.910 -30.940  15.308  0.00  0.00    -0.274 OA
ENDROOT
BRANCH   5  15
ATOM     15  N   LIG    1       26.418 -28.531   9.115  0.00  0.00    -0.280 N 
ATOM     16  H   LIG    1       27.000 -27.826   9.547  0.00  0.00    +0.152 HD
ATOM     17  C   LIG    1       25.614 -28.180   8.055  0.00  0.00    +0.220 C 
ATOM     18  O   LIG    1       24.641 -28.854   7.728  0.00  0.00    -0.275 OA
BRANCH  17  19
ATOM     19  C   LIG    1       26.086 -27.034   7.167  0.00  0.00    +0.090 C 
ATOM     20  C   LIG    1       25.433 -27.200   5.777  0.00  0.00    +0.097 C 
ATOM     21  N   LIG    1       25.819 -26.137   4.841  0.00  0.00    -0.301 NA
ATOM     22  C   LIG    1       25.296 -26.399   3.502  0.00  0.00    +0.105 C 
ATOM     23  C   LIG    1       25.481 -24.786   5.341  0.00  0.00    +0.068 C 
ATOM     24  C   LIG    1       26.230 -24.560   6.716  0.00  0.00    +0.038 C 
ATOM     25  C   LIG    1       25.933 -23.191   7.279  0.00  0.00    -0.033 C 
ATOM     26  C   LIG    1       24.715 -22.603   6.925  0.00  0.00    +0.006 C 
ATOM     27  C   LIG    1       24.324 -21.370   7.402  0.00  0.00    +0.047 C 
ATOM     28  N   LIG    1       23.091 -21.127   6.836  0.00  0.00    -0.360 NA
ATOM     29  H   LIG    1       22.542 -20.293   6.992  0.00  0.00    +0.165 HD
ATOM     30  C   LIG    1       22.718 -22.180   6.023  0.00  0.00    +0.087 C 
ATOM     31  C   LIG    1       25.134 -20.641   8.274  0.00  0.00    +0.026 C 
ATOM     32  C   LIG    1       26.360 -21.227   8.642  0.00  0.00    +0.002 C 
ATOM     33  C   LIG    1       23.728 -23.114   6.058  0.00  0.00    -0.021 C 
ATOM     34  C   LIG    1       26.755 -22.482   8.160  0.00  0.00    +0.005 C 
ATOM     35  C   LIG    1       23.937 -24.440   5.401  0.00  0.00    +0.056 C 
ATOM     36  C   LIG    1       25.837 -25.641   7.737  0.00  0.00    +0.023 C 
ENDBRANCH  17  19
ENDBRANCH   5  15
BRANCH   5  37
ATOM     37  C   LIG    1       25.651 -30.968   9.228  0.00  0.00    +0.043 C 
ATOM     38  C   LIG    1       26.732 -31.595   8.342  0.00  0.00    +0.012 C 
ATOM     39  C   LIG    1       25.080 -32.043  10.153  0.00  0.00    +0.012 C 
ENDBRANCH   5  37
BRANCH   3  40
ATOM     40  O   LIG    1       25.891 -27.253  11.675  0.00  0.00    -0.348 OA
ATOM     41  H   LIG    1       26.824 -27.181  11.423  0.00  0.00    +0.214 HD
ENDBRANCH   3  40
BRANCH   1  42
ATOM     42  C   LIG    1       28.509 -28.583  14.020  0.00  0.00    +0.035 C 
BRANCH  42  44
ATOM     43  C   LIG    1       30.736 -29.685  13.614  0.00  0.00    +0.007 C 
ATOM     44  C   LIG    1       29.817 -29.085  14.684  0.00  0.00    -0.015 C 
ATOM     45  C   LIG    1       30.606 -28.006  15.434  0.00  0.00    +0.007 C 
ENDBRANCH  42  44
ENDBRANCH   1  42
TORSDOF 6
ENDMDL
MODEL 6
REMARK VINA RESULT:      -4.8      3.291      7.676
REMARK  Name = *****
REMARK                            x       y       z     vdW  Elec       q    Type
REMARK                         _______ _______ _______ _____ _____    ______ ____
ROOT
ATOM      1  C   LIG    1       25.440 -30.635   5.322  0.00  0.00    +0.167 C 
ATOM      2  N   LIG    1       25.125 -31.003   6.701  0.00  0.00    -0.233 N 
ATOM      3  C   LIG    1       26.024 -31.727   7.551  0.00  0.00    +0.269 C 
ATOM      4  O   LIG    1       25.246 -32.743   8.177  0.00  0.00    -0.298 OA
ATOM      5  C   LIG    1       23.867 -32.272   8.259  0.00  0.00    +0.220 C 
ATOM      6  C   LIG    1       27.279 -32.235   6.798  0.00  0.00    +0.156 C 
ATOM      7  N   LIG    1       27.066 -32.522   5.388  0.00  0.00    -0.290 N 
ATOM      8  C   LIG    1       28.026 -33.498   4.892  0.00  0.00    +0.108 C 
ATOM      9  C   LIG    1       28.893 -33.824   6.109  0.00  0.00    +0.021 C 
ATOM     10  C   LIG    1       27.981 -33.498   7.297  0.00  0.00    +0.031 C 
ATOM     11  C   LIG    1       23.835 -31.420   6.985  0.00  0.00    +0.271 C 
ATOM     12  O   LIG    1       22.856 -31.136   6.301  0.00  0.00    -0.270 OA
ATOM     13  C   LIG    1       26.320 -31.689   4.581  0.00  0.00    +0.237 C 
ATOM     14  O   LIG    1       26.408 -31.721   3.355  0.00  0.00    -0.274 OA
ENDROOT
BRANCH   5  15
ATOM     15  N   LIG    1       23.789 -31.472   9.476  0.00  0.00    -0.280 N 
ATOM     16  H   LIG    1       23.506 -30.511   9.335  0.00  0.00    +0.152 HD
ATOM     17  C   LIG    1       24.478 -31.807  10.619  0.00  0.00    +0.220 C 
ATOM     18  O   LIG    1       25.156 -32.827  10.692  0.00  0.00    -0.275 OA
BRANCH  17  19
ATOM     19  C   LIG    1       24.211 -30.973  11.869  0.00  0.00    +0.090 C 
ATOM     20  C   LIG    1       24.336 -31.897  13.100  0.00  0.00    +0.097 C 
ATOM     21  N   LIG    1       24.102 -31.187  14.364  0.00  0.00    -0.301 NA
ATOM     22  C   LIG    1       24.092 -32.113  15.494  0.00  0.00    +0.105 C 
ATOM     23  C   LIG    1       25.025 -30.047  14.557  0.00  0.00    +0.068 C 
ATOM     24  C   LIG    1       24.832 -29.038  13.355  0.00  0.00    +0.038 C 
ATOM     25  C   LIG    1       25.743 -27.842  13.496  0.00  0.00    -0.033 C 
ATOM     26  C   LIG    1       26.934 -28.024  14.203  0.00  0.00    +0.006 C 
ATOM     27  C   LIG    1       27.856 -27.012  14.371  0.00  0.00    +0.047 C 
ATOM     28  N   LIG    1       28.878 -27.561  15.116  0.00  0.00    -0.360 NA
ATOM     29  H   LIG    1       29.707 -27.063  15.408  0.00  0.00    +0.165 HD
ATOM     30  C   LIG    1       28.605 -28.884  15.410  0.00  0.00    +0.087 C 
ATOM     31  C   LIG    1       27.643 -25.742  13.833  0.00  0.00    +0.026 C 
ATOM     32  C   LIG    1       26.449 -25.550  13.113  0.00  0.00    +0.002 C 
ATOM     33  C   LIG    1       27.384 -29.191  14.853  0.00  0.00    -0.021 C 
ATOM     34  C   LIG    1       25.514 -26.579  12.940  0.00  0.00    +0.005 C 
ATOM     35  C   LIG    1       26.539 -30.424  14.825  0.00  0.00    +0.056 C 
ATOM     36  C   LIG    1       25.089 -29.734  12.009  0.00  0.00    +0.023 C 
ENDBRANCH  17  19
ENDBRANCH   5  15
BRANCH   5  37
ATOM     37  C   LIG    1       22.922 -33.495   8.176  0.00  0.00    +0.043 C 
ATOM     38  C   LIG    1       21.713 -33.379   9.110  0.00  0.00    +0.012 C 
ATOM     39  C   LIG    1       22.432 -33.821   6.765  0.00  0.00    +0.012 C 
ENDBRANCH   5  37
BRANCH   3  40
ATOM     40  O   LIG    1       26.474 -30.834   8.555  0.00  0.00    -0.348 OA
ATOM     41  H   LIG    1       26.915 -31.409   9.199  0.00  0.00    +0.214 HD
ENDBRANCH   3  40
BRANCH   1  42
ATOM     42  C   LIG    1       26.024 -29.220   5.191  0.00  0.00    +0.035 C 
BRANCH  42  44
ATOM     43  C   LIG    1       24.271 -27.844   6.362  0.00  0.00    +0.007 C 
ATOM     44  C   LIG    1       25.006 -28.061   5.035  0.00  0.00    -0.015 C 
ATOM     45  C   LIG    1       25.623 -26.723   4.611  0.00  0.00    +0.007 C 
ENDBRANCH  42  44
ENDBRANCH   1  42
TORSDOF 6
ENDMDL
MODEL 7
REMARK VINA RESULT:      -4.5      1.792      2.442
REMARK  Name = *****
REMARK                            x       y       z     vdW  Elec       q    Type
REMARK                         _______ _______ _______ _____ _____    ______ ____
ROOT
ATOM      1  C   LIG    1       26.035 -31.270  12.290  0.00  0.00    +0.167 C 
ATOM      2  N   LIG    1       25.793 -30.640  10.993  0.00  0.00    -0.233 N 
ATOM      3  C   LIG    1       24.554 -30.012  10.638  0.00  0.00    +0.269 C 
ATOM      4  O   LIG    1       24.237 -30.476   9.329  0.00  0.00    -0.298 OA
ATOM      5  C   LIG    1       25.487 -30.802   8.649  0.00  0.00    +0.220 C 
ATOM      6  C   LIG    1       23.446 -30.237  11.697  0.00  0.00    +0.156 C 
ATOM      7  N   LIG    1       23.556 -31.484  12.436  0.00  0.00    -0.290 N 
ATOM      8  C   LIG    1       22.264 -31.915  12.951  0.00  0.00    +0.108 C 
ATOM      9  C   LIG    1       21.293 -30.830  12.483  0.00  0.00    +0.021 C 
ATOM     10  C   LIG    1       21.984 -30.237  11.249  0.00  0.00    +0.031 C 
ATOM     11  C   LIG    1       26.301 -31.259   9.864  0.00  0.00    +0.271 C 
ATOM     12  O   LIG    1       27.247 -32.043   9.878  0.00  0.00    -0.270 OA
ATOM     13  C   LIG    1       24.769 -31.952  12.897  0.00  0.00    +0.237 C 
ATOM     14  O   LIG    1       24.845 -32.794  13.790  0.00  0.00    -0.274 OA
ENDROOT
BRANCH   5  15
ATOM     15  N   LIG    1       25.973 -29.549   8.080  0.00  0.00    -0.280 N 
ATOM     16  H   LIG    1       26.865 -29.239   8.440  0.00  0.00    +0.152 HD
ATOM     17  C   LIG    1       25.129 -28.632   7.498  0.00  0.00    +0.220 C 
ATOM     18  O   LIG    1       23.925 -28.842   7.379  0.00  0.00    -0.275 OA
BRANCH  17  19
ATOM     19  C   LIG    1       25.767 -27.425   6.818  0.00  0.00    +0.090 C 
ATOM     20  C   LIG    1       25.322 -27.414   5.339  0.00  0.00    +0.097 C 
ATOM     21  N   LIG    1       25.880 -26.281   4.590  0.00  0.00    -0.301 NA
ATOM     22  C   LIG    1       25.553 -26.377   3.169  0.00  0.00    +0.105 C 
ATOM     23  C   LIG    1       25.518 -24.974   5.181  0.00  0.00    +0.068 C 
ATOM     24  C   LIG    1       26.062 -24.929   6.666  0.00  0.00    +0.038 C 
ATOM     25  C   LIG    1       25.733 -23.612   7.327  0.00  0.00    -0.033 C 
ATOM     26  C   LIG    1       24.603 -22.930   6.868  0.00  0.00    +0.006 C 
ATOM     27  C   LIG    1       24.189 -21.734   7.416  0.00  0.00    +0.047 C 
ATOM     28  N   LIG    1       23.063 -21.372   6.708  0.00  0.00    -0.360 NA
ATOM     29  H   LIG    1       22.526 -20.532   6.874  0.00  0.00    +0.165 HD
ATOM     30  C   LIG    1       22.778 -22.316   5.739  0.00  0.00    +0.087 C 
ATOM     31  C   LIG    1       24.885 -21.141   8.470  0.00  0.00    +0.026 C 
ATOM     32  C   LIG    1       26.021 -21.823   8.944  0.00  0.00    +0.002 C 
ATOM     33  C   LIG    1       23.738 -23.298   5.818  0.00  0.00    -0.021 C 
ATOM     34  C   LIG    1       26.440 -23.040   8.389  0.00  0.00    +0.005 C 
ATOM     35  C   LIG    1       23.996 -24.558   5.056  0.00  0.00    +0.056 C 
ATOM     36  C   LIG    1       25.486 -26.088   7.495  0.00  0.00    +0.023 C 
ENDBRANCH  17  19
ENDBRANCH   5  15
BRANCH   5  37
ATOM     37  C   LIG    1       25.218 -31.954   7.650  0.00  0.00    +0.043 C 
ATOM     38  C   LIG    1       23.732 -32.311   7.537  0.00  0.00    +0.012 C 
ATOM     39  C   LIG    1       25.781 -31.718   6.247  0.00  0.00    +0.012 C 
ENDBRANCH   5  37
BRANCH   3  40
ATOM     40  O   LIG    1       24.787 -28.617  10.568  0.00  0.00    -0.348 OA
ATOM     41  H   LIG    1       25.157 -28.485   9.682  0.00  0.00    +0.214 HD
ENDBRANCH   3  40
BRANCH   1  42
ATOM     42  C   LIG    1       26.710 -30.333  13.303  0.00  0.00    +0.035 C 
BRANCH  42  44
ATOM     43  C   LIG    1       27.628 -28.036  13.773  0.00  0.00    +0.007 C 
ATOM     44  C   LIG    1       27.511 -29.141  12.717  0.00  0.00    -0.015 C 
ATOM     45  C   LIG    1       28.925 -29.494  12.242  0.00  0.00    +0.007 C 
ENDBRANCH  42  44
ENDBRANCH   1  42
TORSDOF 6
ENDMDL
