MODEL 1
REMARK VINA RESULT:      -6.8      0.000      0.000
REMARK  Name = *****
REMARK                            x       y       z     vdW  Elec       q    Type
REMARK                         _______ _______ _______ _____ _____    ______ ____
ROOT
ATOM      1  O   LIG    1       26.754 -20.104   6.651  0.00  0.00    -0.312 OA
ENDROOT
BRANCH   1   2
ATOM      2  C   LIG    1       25.630 -20.883   6.215  0.00  0.00    +0.285 C 
ATOM      3  C   LIG    1       25.518 -20.662   4.690  0.00  0.00    +0.201 C 
ATOM      4  C   LIG    1       24.255 -21.326   4.123  0.00  0.00    +0.179 C 
ATOM      5  C   LIG    1       23.011 -20.922   4.933  0.00  0.00    +0.177 C 
ATOM      6  C   LIG    1       23.221 -21.027   6.453  0.00  0.00    +0.178 C 
ATOM      7  O   LIG    1       24.450 -20.411   6.855  0.00  0.00    -0.340 OA
BRANCH   3   8
ATOM      8  O   LIG    1       25.444 -19.236   4.441  0.00  0.00    -0.384 OA
ATOM      9  H   LIG    1       24.725 -19.141   3.780  0.00  0.00    +0.210 HD
ENDBRANCH   3   8
BRANCH   4  10
ATOM     10  O   LIG    1       24.403 -22.744   4.034  0.00  0.00    -0.386 OA
ATOM     11  H   LIG    1       25.339 -22.957   3.843  0.00  0.00    +0.210 HD
ENDBRANCH   4  10
BRANCH   5  12
ATOM     12  O   LIG    1       22.681 -19.549   4.639  0.00  0.00    -0.387 OA
ATOM     13  H   LIG    1       21.943 -19.567   3.992  0.00  0.00    +0.210 HD
ENDBRANCH   5  12
BRANCH   6  14
ATOM     14  C   LIG    1       23.053 -22.437   7.045  0.00  0.00    +0.190 C 
BRANCH  14  15
ATOM     15  O   LIG    1       22.355 -23.322   6.177  0.00  0.00    -0.392 OA
ATOM     16  H   LIG    1       22.224 -22.842   5.332  0.00  0.00    +0.209 HD
ENDBRANCH  14  15
ENDBRANCH   6  14
ENDBRANCH   1   2
BRANCH   1  20
ATOM     17  C   LIG    1       29.461 -19.486   8.514  0.00  0.00    +0.178 C 
ATOM     18  C   LIG    1       29.995 -20.829   8.032  0.00  0.00    +0.179 C 
ATOM     19  C   LIG    1       28.899 -21.340   7.103  0.00  0.00    +0.207 C 
ATOM     20  C   LIG    1       27.605 -20.682   7.654  0.00  0.00    +0.225 C 
ATOM     21  O   LIG    1       28.025 -19.574   8.499  0.00  0.00    -0.336 OA
BRANCH  18  22
ATOM     22  O   LIG    1       30.205 -21.705   9.147  0.00  0.00    -0.386 OA
ATOM     23  H   LIG    1       30.515 -21.159   9.904  0.00  0.00    +0.210 HD
ENDBRANCH  18  22
BRANCH  19  24
ATOM     24  O   LIG    1       29.199 -20.931   5.757  0.00  0.00    -0.384 OA
ATOM     25  H   LIG    1       28.414 -21.181   5.219  0.00  0.00    +0.210 HD
ENDBRANCH  19  24
BRANCH  17  26
ATOM     26  C   LIG    1       29.908 -18.292   7.657  0.00  0.00    +0.190 C 
BRANCH  26  27
ATOM     27  O   LIG    1       30.967 -18.638   6.771  0.00  0.00    -0.392 OA
ATOM     28  H   LIG    1       31.552 -17.840   6.719  0.00  0.00    +0.209 HD
ENDBRANCH  26  27
ENDBRANCH  17  26
BRANCH  20  29
ATOM     29  C   LIG    1       26.826 -21.654   8.587  0.00  0.00    +0.223 C 
BRANCH  29  30
ATOM     30  O   LIG    1       25.894 -20.999   9.454  0.00  0.00    -0.390 OA
ATOM     31  H   LIG    1       25.186 -21.652   9.611  0.00  0.00    +0.210 HD
ENDBRANCH  29  30
ENDBRANCH  20  29
ENDBRANCH   1  20
TORSDOF 13
ENDMDL
MODEL 2
REMARK VINA RESULT:      -6.8      1.681      6.271
REMARK  Name = *****
REMARK                            x       y       z     vdW  Elec       q    Type
REMARK                         _______ _______ _______ _____ _____    ______ ____
ROOT
ATOM      1  O   LIG    1       27.326 -21.201   6.552  0.00  0.00    -0.312 OA
ENDROOT
BRANCH   1   2
ATOM      2  C   LIG    1       28.363 -20.804   7.462  0.00  0.00    +0.285 C 
ATOM      3  C   LIG    1       28.657 -19.318   7.161  0.00  0.00    +0.201 C 
ATOM      4  C   LIG    1       29.860 -18.813   7.970  0.00  0.00    +0.179 C 
ATOM      5  C   LIG    1       31.063 -19.758   7.811  0.00  0.00    +0.177 C 
ATOM      6  C   LIG    1       30.692 -21.240   7.983  0.00  0.00    +0.178 C 
ATOM      7  O   LIG    1       29.531 -21.581   7.216  0.00  0.00    -0.340 OA
BRANCH   3   8
ATOM      8  O   LIG    1       28.958 -19.190   5.749  0.00  0.00    -0.384 OA
ATOM      9  H   LIG    1       28.086 -19.039   5.327  0.00  0.00    +0.210 HD
ENDBRANCH   3   8
BRANCH   4  10
ATOM     10  O   LIG    1       29.519 -18.599   9.341  0.00  0.00    -0.386 OA
ATOM     11  H   LIG    1       28.809 -19.225   9.595  0.00  0.00    +0.210 HD
ENDBRANCH   4  10
BRANCH   5  12
ATOM     12  O   LIG    1       31.615 -19.605   6.488  0.00  0.00    -0.387 OA
ATOM     13  H   LIG    1       30.855 -19.541   5.869  0.00  0.00    +0.210 HD
ENDBRANCH   5  12
BRANCH   6  14
ATOM     14  C   LIG    1       30.595 -21.732   9.438  0.00  0.00    +0.190 C 
BRANCH  14  15
ATOM     15  O   LIG    1       31.857 -22.103   9.981  0.00  0.00    -0.392 OA
ATOM     16  H   LIG    1       31.871 -23.084  10.016  0.00  0.00    +0.209 HD
ENDBRANCH  14  15
ENDBRANCH   6  14
ENDBRANCH   1   2
BRANCH   1  20
ATOM     17  C   LIG    1       24.987 -23.561   6.916  0.00  0.00    +0.178 C 
ATOM     18  C   LIG    1       23.994 -22.543   6.367  0.00  0.00    +0.179 C 
ATOM     19  C   LIG    1       24.855 -21.316   6.089  0.00  0.00    +0.207 C 
ATOM     20  C   LIG    1       26.022 -21.438   7.106  0.00  0.00    +0.225 C 
ATOM     21  O   LIG    1       26.036 -22.820   7.564  0.00  0.00    -0.336 OA
BRANCH  18  22
ATOM     22  O   LIG    1       22.975 -22.274   7.339  0.00  0.00    -0.386 OA
ATOM     23  H   LIG    1       23.229 -22.729   8.173  0.00  0.00    +0.210 HD
ENDBRANCH  18  22
BRANCH  19  24
ATOM     24  O   LIG    1       25.304 -21.360   4.723  0.00  0.00    -0.384 OA
ATOM     25  H   LIG    1       25.299 -22.311   4.468  0.00  0.00    +0.210 HD
ENDBRANCH  19  24
BRANCH  17  26
ATOM     26  C   LIG    1       25.597 -24.479   5.846  0.00  0.00    +0.190 C 
BRANCH  26  27
ATOM     27  O   LIG    1       24.947 -24.336   4.587  0.00  0.00    -0.392 OA
ATOM     28  H   LIG    1       24.827 -25.255   4.235  0.00  0.00    +0.209 HD
ENDBRANCH  26  27
ENDBRANCH  17  26
BRANCH  20  29
ATOM     29  C   LIG    1       25.763 -20.574   8.374  0.00  0.00    +0.223 C 
BRANCH  29  30
ATOM     30  O   LIG    1       25.629 -21.341   9.577  0.00  0.00    -0.390 OA
ATOM     31  H   LIG    1       26.482 -21.805   9.680  0.00  0.00    +0.210 HD
ENDBRANCH  29  30
ENDBRANCH  20  29
ENDBRANCH   1  20
TORSDOF 13
ENDMDL
MODEL 3
REMARK VINA RESULT:      -6.5      1.649      3.716
REMARK  Name = *****
REMARK                            x       y       z     vdW  Elec       q    Type
REMARK                         _______ _______ _______ _____ _____    ______ ____
ROOT
ATOM      1  O   LIG    1       27.624 -19.986   8.190  0.00  0.00    -0.312 OA
ENDROOT
BRANCH   1   2
ATOM      2  C   LIG    1       26.419 -20.342   7.496  0.00  0.00    +0.285 C 
ATOM      3  C   LIG    1       25.495 -20.998   8.546  0.00  0.00    +0.201 C 
ATOM      4  C   LIG    1       24.225 -21.564   7.893  0.00  0.00    +0.179 C 
ATOM      5  C   LIG    1       24.576 -22.452   6.688  0.00  0.00    +0.177 C 
ATOM      6  C   LIG    1       25.607 -21.811   5.745  0.00  0.00    +0.178 C 
ATOM      7  O   LIG    1       26.723 -21.282   6.471  0.00  0.00    -0.340 OA
BRANCH   3   8
ATOM      8  O   LIG    1       26.218 -22.086   9.173  0.00  0.00    -0.384 OA
ATOM      9  H   LIG    1       27.069 -21.683   9.452  0.00  0.00    +0.210 HD
ENDBRANCH   3   8
BRANCH   4  10
ATOM     10  O   LIG    1       23.306 -20.525   7.547  0.00  0.00    -0.386 OA
ATOM     11  H   LIG    1       23.003 -20.081   8.366  0.00  0.00    +0.210 HD
ENDBRANCH   4  10
BRANCH   5  12
ATOM     12  O   LIG    1       25.142 -23.691   7.163  0.00  0.00    -0.387 OA
ATOM     13  H   LIG    1       24.393 -24.311   7.301  0.00  0.00    +0.210 HD
ENDBRANCH   5  12
BRANCH   6  14
ATOM     14  C   LIG    1       25.037 -20.800   4.735  0.00  0.00    +0.190 C 
BRANCH  14  15
ATOM     15  O   LIG    1       26.023 -20.293   3.843  0.00  0.00    -0.392 OA
ATOM     16  H   LIG    1       26.302 -21.044   3.276  0.00  0.00    +0.209 HD
ENDBRANCH  14  15
ENDBRANCH   6  14
ENDBRANCH   1   2
BRANCH   1  20
ATOM     17  C   LIG    1       30.783 -21.005   7.787  0.00  0.00    +0.178 C 
ATOM     18  C   LIG    1       31.174 -19.532   7.828  0.00  0.00    +0.179 C 
ATOM     19  C   LIG    1       29.845 -18.814   8.033  0.00  0.00    +0.207 C 
ATOM     20  C   LIG    1       28.800 -19.768   7.394  0.00  0.00    +0.225 C 
ATOM     21  O   LIG    1       29.440 -21.070   7.274  0.00  0.00    -0.336 OA
BRANCH  18  22
ATOM     22  O   LIG    1       31.805 -19.155   6.597  0.00  0.00    -0.386 OA
ATOM     23  H   LIG    1       31.579 -19.835   5.924  0.00  0.00    +0.210 HD
ENDBRANCH  18  22
BRANCH  19  24
ATOM     24  O   LIG    1       29.631 -18.620   9.442  0.00  0.00    -0.384 OA
ATOM     25  H   LIG    1       30.495 -18.807   9.874  0.00  0.00    +0.210 HD
ENDBRANCH  19  24
BRANCH  17  26
ATOM     26  C   LIG    1       30.842 -21.706   9.153  0.00  0.00    +0.190 C 
BRANCH  26  27
ATOM     27  O   LIG    1       32.167 -21.749   9.673  0.00  0.00    -0.392 OA
ATOM     28  H   LIG    1       32.167 -21.163  10.472  0.00  0.00    +0.209 HD
ENDBRANCH  26  27
ENDBRANCH  17  26
BRANCH  20  29
ATOM     29  C   LIG    1       28.447 -19.334   5.942  0.00  0.00    +0.223 C 
BRANCH  29  30
ATOM     30  O   LIG    1       29.254 -18.258   5.450  0.00  0.00    -0.390 OA
ATOM     31  H   LIG    1       29.575 -18.557   4.578  0.00  0.00    +0.210 HD
ENDBRANCH  29  30
ENDBRANCH  20  29
ENDBRANCH   1  20
TORSDOF 13
ENDMDL
MODEL 4
REMARK VINA RESULT:      -6.0      1.675      3.102
REMARK  Name = *****
REMARK                            x       y       z     vdW  Elec       q    Type
REMARK                         _______ _______ _______ _____ _____    ______ ____
ROOT
ATOM      1  O   LIG    1       27.223 -20.964   7.656  0.00  0.00    -0.312 OA
ENDROOT
BRANCH   1   2
ATOM      2  C   LIG    1       26.365 -21.769   6.836  0.00  0.00    +0.285 C 
ATOM      3  C   LIG    1       25.148 -20.884   6.485  0.00  0.00    +0.201 C 
ATOM      4  C   LIG    1       24.076 -21.685   5.731  0.00  0.00    +0.179 C 
ATOM      5  C   LIG    1       23.741 -22.988   6.474  0.00  0.00    +0.177 C 
ATOM      6  C   LIG    1       24.988 -23.765   6.925  0.00  0.00    +0.178 C 
ATOM      7  O   LIG    1       25.932 -22.906   7.576  0.00  0.00    -0.340 OA
BRANCH   3   8
ATOM      8  O   LIG    1       24.574 -20.389   7.720  0.00  0.00    -0.384 OA
ATOM      9  H   LIG    1       25.188 -20.707   8.417  0.00  0.00    +0.210 HD
ENDBRANCH   3   8
BRANCH   4  10
ATOM     10  O   LIG    1       24.456 -21.921   4.373  0.00  0.00    -0.386 OA
ATOM     11  H   LIG    1       24.418 -22.883   4.194  0.00  0.00    +0.210 HD
ENDBRANCH   4  10
BRANCH   5  12
ATOM     12  O   LIG    1       22.979 -22.675   7.659  0.00  0.00    -0.387 OA
ATOM     13  H   LIG    1       22.301 -23.379   7.754  0.00  0.00    +0.210 HD
ENDBRANCH   5  12
BRANCH   6  14
ATOM     14  C   LIG    1       25.646 -24.641   5.845  0.00  0.00    +0.190 C 
BRANCH  14  15
ATOM     15  O   LIG    1       24.826 -24.809   4.694  0.00  0.00    -0.392 OA
ATOM     16  H   LIG    1       25.106 -25.648   4.269  0.00  0.00    +0.209 HD
ENDBRANCH  14  15
ENDBRANCH   6  14
ENDBRANCH   1   2
BRANCH   1  20
ATOM     17  C   LIG    1       30.565 -21.050   7.683  0.00  0.00    +0.178 C 
ATOM     18  C   LIG    1       30.520 -19.531   7.788  0.00  0.00    +0.179 C 
ATOM     19  C   LIG    1       29.028 -19.217   7.813  0.00  0.00    +0.207 C 
ATOM     20  C   LIG    1       28.384 -20.394   7.031  0.00  0.00    +0.225 C 
ATOM     21  O   LIG    1       29.373 -21.461   6.991  0.00  0.00    -0.336 OA
BRANCH  18  22
ATOM     22  O   LIG    1       31.174 -18.939   6.658  0.00  0.00    -0.386 OA
ATOM     23  H   LIG    1       30.830 -18.023   6.558  0.00  0.00    +0.210 HD
ENDBRANCH  18  22
BRANCH  19  24
ATOM     24  O   LIG    1       28.587 -19.153   9.181  0.00  0.00    -0.384 OA
ATOM     25  H   LIG    1       29.290 -19.594   9.711  0.00  0.00    +0.210 HD
ENDBRANCH  19  24
BRANCH  17  26
ATOM     26  C   LIG    1       30.641 -21.768   9.039  0.00  0.00    +0.190 C 
BRANCH  26  27
ATOM     27  O   LIG    1       31.968 -21.799   9.553  0.00  0.00    -0.392 OA
ATOM     28  H   LIG    1       32.552 -21.466   8.824  0.00  0.00    +0.209 HD
ENDBRANCH  26  27
ENDBRANCH  17  26
BRANCH  20  29
ATOM     29  C   LIG    1       28.116 -20.009   5.547  0.00  0.00    +0.223 C 
BRANCH  29  30
ATOM     30  O   LIG    1       28.702 -18.761   5.159  0.00  0.00    -0.390 OA
ATOM     31  H   LIG    1       29.646 -18.959   5.007  0.00  0.00    +0.210 HD
ENDBRANCH  29  30
ENDBRANCH  20  29
ENDBRANCH   1  20
TORSDOF 13
ENDMDL
MODEL 5
REMARK VINA RESULT:      -5.5      1.419      1.886
REMARK  Name = *****
REMARK                            x       y       z     vdW  Elec       q    Type
REMARK                         _______ _______ _______ _____ _____    ______ ____
ROOT
ATOM      1  O   LIG    1       27.501 -19.560   6.493  0.00  0.00    -0.312 OA
ENDROOT
BRANCH   1   2
ATOM      2  C   LIG    1       26.442 -20.519   6.362  0.00  0.00    +0.285 C 
ATOM      3  C   LIG    1       25.996 -20.471   4.884  0.00  0.00    +0.201 C 
ATOM      4  C   LIG    1       24.758 -21.348   4.646  0.00  0.00    +0.179 C 
ATOM      5  C   LIG    1       23.655 -21.028   5.669  0.00  0.00    +0.177 C 
ATOM      6  C   LIG    1       24.176 -20.950   7.114  0.00  0.00    +0.178 C 
ATOM      7  O   LIG    1       25.355 -20.142   7.202  0.00  0.00    -0.340 OA
BRANCH   3   8
ATOM      8  O   LIG    1       25.665 -19.100   4.553  0.00  0.00    -0.384 OA
ATOM      9  H   LIG    1       24.711 -19.129   4.324  0.00  0.00    +0.210 HD
ENDBRANCH   3   8
BRANCH   4  10
ATOM     10  O   LIG    1       25.094 -22.737   4.632  0.00  0.00    -0.386 OA
ATOM     11  H   LIG    1       25.120 -23.049   3.704  0.00  0.00    +0.210 HD
ENDBRANCH   4  10
BRANCH   5  12
ATOM     12  O   LIG    1       23.073 -19.746   5.353  0.00  0.00    -0.387 OA
ATOM     13  H   LIG    1       23.393 -19.114   6.032  0.00  0.00    +0.210 HD
ENDBRANCH   5  12
BRANCH   6  14
ATOM     14  C   LIG    1       24.340 -22.302   7.830  0.00  0.00    +0.190 C 
BRANCH  14  15
ATOM     15  O   LIG    1       23.731 -23.378   7.125  0.00  0.00    -0.392 OA
ATOM     16  H   LIG    1       23.341 -23.972   7.802  0.00  0.00    +0.209 HD
ENDBRANCH  14  15
ENDBRANCH   6  14
ENDBRANCH   1   2
BRANCH   1  20
ATOM     17  C   LIG    1       30.087 -18.783   8.465  0.00  0.00    +0.178 C 
ATOM     18  C   LIG    1       30.983 -19.099   7.274  0.00  0.00    +0.179 C 
ATOM     19  C   LIG    1       29.997 -19.485   6.176  0.00  0.00    +0.207 C 
ATOM     20  C   LIG    1       28.774 -20.046   6.950  0.00  0.00    +0.225 C 
ATOM     21  O   LIG    1       28.900 -19.584   8.325  0.00  0.00    -0.336 OA
BRANCH  18  22
ATOM     22  O   LIG    1       31.873 -20.175   7.598  0.00  0.00    -0.386 OA
ATOM     23  H   LIG    1       31.481 -20.671   8.352  0.00  0.00    +0.210 HD
ENDBRANCH  18  22
BRANCH  19  24
ATOM     24  O   LIG    1       29.675 -18.314   5.405  0.00  0.00    -0.384 OA
ATOM     25  H   LIG    1       29.477 -18.636   4.496  0.00  0.00    +0.210 HD
ENDBRANCH  19  24
BRANCH  17  26
ATOM     26  C   LIG    1       29.693 -17.302   8.575  0.00  0.00    +0.190 C 
BRANCH  26  27
ATOM     27  O   LIG    1       30.090 -16.736   9.820  0.00  0.00    -0.392 OA
ATOM     28  H   LIG    1       29.930 -15.761   9.741  0.00  0.00    +0.209 HD
ENDBRANCH  26  27
ENDBRANCH  17  26
BRANCH  20  29
ATOM     29  C   LIG    1       28.812 -21.601   7.022  0.00  0.00    +0.223 C 
BRANCH  29  30
ATOM     30  O   LIG    1       29.774 -22.112   7.952  0.00  0.00    -0.390 OA
ATOM     31  H   LIG    1       30.401 -21.379   8.099  0.00  0.00    +0.210 HD
ENDBRANCH  29  30
ENDBRANCH  20  29
ENDBRANCH   1  20
TORSDOF 13
ENDMDL
MODEL 6
REMARK VINA RESULT:      -5.5      3.940      6.089
REMARK  Name = *****
REMARK                            x       y       z     vdW  Elec       q    Type
REMARK                         _______ _______ _______ _____ _____    ______ ____
ROOT
ATOM      1  O   LIG    1       24.268 -24.332   6.531  0.00  0.00    -0.312 OA
ENDROOT
BRANCH   1   2
ATOM      2  C   LIG    1       25.066 -25.525   6.530  0.00  0.00    +0.285 C 
ATOM      3  C   LIG    1       25.579 -25.700   5.083  0.00  0.00    +0.201 C 
ATOM      4  C   LIG    1       26.326 -27.030   4.915  0.00  0.00    +0.179 C 
ATOM      5  C   LIG    1       25.489 -28.202   5.454  0.00  0.00    +0.177 C 
ATOM      6  C   LIG    1       24.884 -27.924   6.840  0.00  0.00    +0.178 C 
ATOM      7  O   LIG    1       24.253 -26.638   6.887  0.00  0.00    -0.340 OA
BRANCH   3   8
ATOM      8  O   LIG    1       24.437 -25.691   4.191  0.00  0.00    -0.384 OA
ATOM      9  H   LIG    1       24.631 -24.969   3.556  0.00  0.00    +0.210 HD
ENDBRANCH   3   8
BRANCH   4  10
ATOM     10  O   LIG    1       27.627 -26.981   5.505  0.00  0.00    -0.386 OA
ATOM     11  H   LIG    1       28.175 -26.332   5.018  0.00  0.00    +0.210 HD
ENDBRANCH   4  10
BRANCH   5  12
ATOM     12  O   LIG    1       24.393 -28.456   4.551  0.00  0.00    -0.387 OA
ATOM     13  H   LIG    1       23.615 -28.681   5.105  0.00  0.00    +0.210 HD
ENDBRANCH   5  12
BRANCH   6  14
ATOM     14  C   LIG    1       25.830 -28.153   8.031  0.00  0.00    +0.190 C 
BRANCH  14  15
ATOM     15  O   LIG    1       26.207 -29.517   8.183  0.00  0.00    -0.392 OA
ATOM     16  H   LIG    1       25.551 -30.048   7.683  0.00  0.00    +0.209 HD
ENDBRANCH  14  15
ENDBRANCH   6  14
ENDBRANCH   1   2
BRANCH   1  20
ATOM     17  C   LIG    1       23.769 -21.033   6.752  0.00  0.00    +0.178 C 
ATOM     18  C   LIG    1       24.985 -20.874   5.846  0.00  0.00    +0.179 C 
ATOM     19  C   LIG    1       25.416 -22.310   5.569  0.00  0.00    +0.207 C 
ATOM     20  C   LIG    1       24.937 -23.094   6.820  0.00  0.00    +0.225 C 
ATOM     21  O   LIG    1       23.947 -22.259   7.484  0.00  0.00    -0.336 OA
BRANCH  18  22
ATOM     22  O   LIG    1       26.006 -20.127   6.520  0.00  0.00    -0.386 OA
ATOM     23  H   LIG    1       26.446 -19.552   5.854  0.00  0.00    +0.210 HD
ENDBRANCH  18  22
BRANCH  19  24
ATOM     24  O   LIG    1       24.787 -22.761   4.357  0.00  0.00    -0.384 OA
ATOM     25  H   LIG    1       23.956 -22.239   4.275  0.00  0.00    +0.210 HD
ENDBRANCH  19  24
BRANCH  17  26
ATOM     26  C   LIG    1       22.431 -21.079   5.999  0.00  0.00    +0.190 C 
BRANCH  26  27
ATOM     27  O   LIG    1       22.033 -22.412   5.699  0.00  0.00    -0.392 OA
ATOM     28  H   LIG    1       22.222 -22.544   4.734  0.00  0.00    +0.209 HD
ENDBRANCH  26  27
ENDBRANCH  17  26
BRANCH  20  29
ATOM     29  C   LIG    1       26.090 -23.283   7.849  0.00  0.00    +0.223 C 
BRANCH  29  30
ATOM     30  O   LIG    1       26.181 -22.228   8.813  0.00  0.00    -0.390 OA
ATOM     31  H   LIG    1       25.630 -21.506   8.455  0.00  0.00    +0.210 HD
ENDBRANCH  29  30
ENDBRANCH  20  29
ENDBRANCH   1  20
TORSDOF 13
ENDMDL
MODEL 7
REMARK VINA RESULT:      -5.1      1.764      6.524
REMARK  Name = *****
REMARK                            x       y       z     vdW  Elec       q    Type
REMARK                         _______ _______ _______ _____ _____    ______ ____
ROOT
ATOM      1  O   LIG    1       27.474 -20.385   7.942  0.00  0.00    -0.312 OA
ENDROOT
BRANCH   1   2
ATOM      2  C   LIG    1       28.661 -19.579   7.884  0.00  0.00    +0.285 C 
ATOM      3  C   LIG    1       29.714 -20.417   7.126  0.00  0.00    +0.201 C 
ATOM      4  C   LIG    1       31.084 -19.724   7.129  0.00  0.00    +0.179 C 
ATOM      5  C   LIG    1       31.486 -19.308   8.554  0.00  0.00    +0.177 C 
ATOM      6  C   LIG    1       30.355 -18.599   9.317  0.00  0.00    +0.178 C 
ATOM      7  O   LIG    1       29.119 -19.316   9.206  0.00  0.00    -0.340 OA
BRANCH   3   8
ATOM      8  O   LIG    1       29.841 -21.698   7.792  0.00  0.00    -0.384 OA
ATOM      9  H   LIG    1       30.187 -21.476   8.683  0.00  0.00    +0.210 HD
ENDBRANCH   3   8
BRANCH   4  10
ATOM     10  O   LIG    1       31.118 -18.624   6.217  0.00  0.00    -0.386 OA
ATOM     11  H   LIG    1       31.898 -18.067   6.416  0.00  0.00    +0.210 HD
ENDBRANCH   4  10
BRANCH   5  12
ATOM     12  O   LIG    1       31.841 -20.485   9.309  0.00  0.00    -0.387 OA
ATOM     13  H   LIG    1       32.814 -20.586   9.234  0.00  0.00    +0.210 HD
ENDBRANCH   5  12
BRANCH   6  14
ATOM     14  C   LIG    1       30.190 -17.100   9.009  0.00  0.00    +0.190 C 
BRANCH  14  15
ATOM     15  O   LIG    1       30.184 -16.293  10.180  0.00  0.00    -0.392 OA
ATOM     16  H   LIG    1       29.790 -16.837  10.896  0.00  0.00    +0.209 HD
ENDBRANCH  14  15
ENDBRANCH   6  14
ENDBRANCH   1   2
BRANCH   1  20
ATOM     17  C   LIG    1       24.441 -21.066   6.712  0.00  0.00    +0.178 C 
ATOM     18  C   LIG    1       25.108 -22.178   5.911  0.00  0.00    +0.179 C 
ATOM     19  C   LIG    1       26.573 -22.089   6.325  0.00  0.00    +0.207 C 
ATOM     20  C   LIG    1       26.764 -20.598   6.712  0.00  0.00    +0.225 C 
ATOM     21  O   LIG    1       25.434 -20.047   6.926  0.00  0.00    -0.336 OA
BRANCH  18  22
ATOM     22  O   LIG    1       24.933 -21.947   4.507  0.00  0.00    -0.386 OA
ATOM     23  H   LIG    1       25.160 -22.780   4.035  0.00  0.00    +0.210 HD
ENDBRANCH  18  22
BRANCH  19  24
ATOM     24  O   LIG    1       26.802 -22.982   7.429  0.00  0.00    -0.384 OA
ATOM     25  H   LIG    1       25.917 -23.149   7.828  0.00  0.00    +0.210 HD
ENDBRANCH  19  24
BRANCH  17  26
ATOM     26  C   LIG    1       23.879 -21.524   8.066  0.00  0.00    +0.190 C 
BRANCH  26  27
ATOM     27  O   LIG    1       24.902 -21.677   9.044  0.00  0.00    -0.392 OA
ATOM     28  H   LIG    1       24.436 -21.796   9.912  0.00  0.00    +0.209 HD
ENDBRANCH  26  27
ENDBRANCH  17  26
BRANCH  20  29
ATOM     29  C   LIG    1       27.376 -19.780   5.537  0.00  0.00    +0.223 C 
BRANCH  29  30
ATOM     30  O   LIG    1       26.598 -19.825   4.336  0.00  0.00    -0.390 OA
ATOM     31  H   LIG    1       27.180 -20.236   3.669  0.00  0.00    +0.210 HD
ENDBRANCH  29  30
ENDBRANCH  20  29
ENDBRANCH   1  20
TORSDOF 13
ENDMDL
MODEL 8
REMARK VINA RESULT:      -5.1      1.648      6.032
REMARK  Name = *****
REMARK                            x       y       z     vdW  Elec       q    Type
REMARK                         _______ _______ _______ _____ _____    ______ ____
ROOT
ATOM      1  O   LIG    1       27.598 -21.864   6.896  0.00  0.00    -0.312 OA
ENDROOT
BRANCH   1   2
ATOM      2  C   LIG    1       28.678 -20.921   6.832  0.00  0.00    +0.285 C 
ATOM      3  C   LIG    1       29.644 -21.292   7.978  0.00  0.00    +0.201 C 
ATOM      4  C   LIG    1       30.772 -20.258   8.113  0.00  0.00    +0.179 C 
ATOM      5  C   LIG    1       30.203 -18.831   8.177  0.00  0.00    +0.177 C 
ATOM      6  C   LIG    1       29.142 -18.555   7.099  0.00  0.00    +0.178 C 
ATOM      7  O   LIG    1       28.171 -19.607   7.039  0.00  0.00    -0.340 OA
BRANCH   3   8
ATOM      8  O   LIG    1       28.891 -21.321   9.216  0.00  0.00    -0.384 OA
ATOM      9  H   LIG    1       28.005 -20.977   8.970  0.00  0.00    +0.210 HD
ENDBRANCH   3   8
BRANCH   4  10
ATOM     10  O   LIG    1       31.744 -20.405   7.076  0.00  0.00    -0.386 OA
ATOM     11  H   LIG    1       31.451 -19.900   6.290  0.00  0.00    +0.210 HD
ENDBRANCH   4  10
BRANCH   5  12
ATOM     12  O   LIG    1       29.574 -18.629   9.459  0.00  0.00    -0.387 OA
ATOM     13  H   LIG    1       28.725 -18.167   9.289  0.00  0.00    +0.210 HD
ENDBRANCH   5  12
BRANCH   6  14
ATOM     14  C   LIG    1       29.693 -18.190   5.710  0.00  0.00    +0.190 C 
BRANCH  14  15
ATOM     15  O   LIG    1       28.687 -18.171   4.703  0.00  0.00    -0.392 OA
ATOM     16  H   LIG    1       28.241 -17.299   4.767  0.00  0.00    +0.209 HD
ENDBRANCH  14  15
ENDBRANCH   6  14
ENDBRANCH   1   2
BRANCH   1  20
ATOM     17  C   LIG    1       24.433 -22.413   5.970  0.00  0.00    +0.178 C 
ATOM     18  C   LIG    1       24.407 -20.965   5.498  0.00  0.00    +0.179 C 
ATOM     19  C   LIG    1       25.814 -20.462   5.807  0.00  0.00    +0.207 C 
ATOM     20  C   LIG    1       26.268 -21.334   7.009  0.00  0.00    +0.225 C 
ATOM     21  O   LIG    1       25.385 -22.490   7.046  0.00  0.00    -0.336 OA
BRANCH  18  22
ATOM     22  O   LIG    1       23.406 -20.230   6.214  0.00  0.00    -0.386 OA
ATOM     23  H   LIG    1       22.916 -20.866   6.782  0.00  0.00    +0.210 HD
ENDBRANCH  18  22
BRANCH  19  24
ATOM     24  O   LIG    1       26.642 -20.647   4.645  0.00  0.00    -0.384 OA
ATOM     25  H   LIG    1       26.566 -21.600   4.410  0.00  0.00    +0.210 HD
ENDBRANCH  19  24
BRANCH  17  26
ATOM     26  C   LIG    1       24.817 -23.421   4.875  0.00  0.00    +0.190 C 
BRANCH  26  27
ATOM     27  O   LIG    1       25.658 -24.455   5.374  0.00  0.00    -0.392 OA
ATOM     28  H   LIG    1       25.473 -24.514   6.346  0.00  0.00    +0.209 HD
ENDBRANCH  26  27
ENDBRANCH  17  26
BRANCH  20  29
ATOM     29  C   LIG    1       26.051 -20.593   8.361  0.00  0.00    +0.223 C 
BRANCH  29  30
ATOM     30  O   LIG    1       25.789 -21.469   9.463  0.00  0.00    -0.390 OA
ATOM     31  H   LIG    1       24.818 -21.489   9.549  0.00  0.00    +0.210 HD
ENDBRANCH  29  30
ENDBRANCH  20  29
ENDBRANCH   1  20
TORSDOF 13
ENDMDL
MODEL 9
REMARK VINA RESULT:      -4.7      1.740      3.526
REMARK  Name = *****
REMARK                            x       y       z     vdW  Elec       q    Type
REMARK                         _______ _______ _______ _____ _____    ______ ____
ROOT
ATOM      1  O   LIG    1       27.784 -19.868   8.620  0.00  0.00    -0.312 OA
ENDROOT
BRANCH   1   2
ATOM      2  C   LIG    1       26.695 -20.184   7.740  0.00  0.00    +0.285 C 
ATOM      3  C   LIG    1       25.703 -21.032   8.567  0.00  0.00    +0.201 C 
ATOM      4  C   LIG    1       24.560 -21.564   7.692  0.00  0.00    +0.179 C 
ATOM      5  C   LIG    1       25.110 -22.252   6.431  0.00  0.00    +0.177 C 
ATOM      6  C   LIG    1       26.196 -21.429   5.718  0.00  0.00    +0.178 C 
ATOM      7  O   LIG    1       27.180 -20.951   6.643  0.00  0.00    -0.340 OA
BRANCH   3   8
ATOM      8  O   LIG    1       26.424 -22.158   9.126  0.00  0.00    -0.384 OA
ATOM      9  H   LIG    1       26.066 -22.937   8.648  0.00  0.00    +0.210 HD
ENDBRANCH   3   8
BRANCH   4  10
ATOM     10  O   LIG    1       23.617 -20.537   7.378  0.00  0.00    -0.386 OA
ATOM     11  H   LIG    1       22.711 -20.888   7.498  0.00  0.00    +0.210 HD
ENDBRANCH   4  10
BRANCH   5  12
ATOM     12  O   LIG    1       25.702 -23.515   6.800  0.00  0.00    -0.387 OA
ATOM     13  H   LIG    1       26.668 -23.429   6.650  0.00  0.00    +0.210 HD
ENDBRANCH   5  12
BRANCH   6  14
ATOM     14  C   LIG    1       25.677 -20.316   4.791  0.00  0.00    +0.190 C 
BRANCH  14  15
ATOM     15  O   LIG    1       26.701 -19.416   4.381  0.00  0.00    -0.392 OA
ATOM     16  H   LIG    1       27.552 -19.892   4.489  0.00  0.00    +0.209 HD
ENDBRANCH  14  15
ENDBRANCH   6  14
ENDBRANCH   1   2
BRANCH   1  20
ATOM     17  C   LIG    1       30.876 -18.598   8.548  0.00  0.00    +0.178 C 
ATOM     18  C   LIG    1       30.849 -18.838   7.043  0.00  0.00    +0.179 C 
ATOM     19  C   LIG    1       29.465 -19.428   6.799  0.00  0.00    +0.207 C 
ATOM     20  C   LIG    1       29.113 -20.128   8.140  0.00  0.00    +0.225 C 
ATOM     21  O   LIG    1       30.008 -19.578   9.147  0.00  0.00    -0.336 OA
BRANCH  18  22
ATOM     22  O   LIG    1       31.894 -19.746   6.670  0.00  0.00    -0.386 OA
ATOM     23  H   LIG    1       32.732 -19.418   7.065  0.00  0.00    +0.210 HD
ENDBRANCH  18  22
BRANCH  19  24
ATOM     24  O   LIG    1       28.553 -18.364   6.473  0.00  0.00    -0.384 OA
ATOM     25  H   LIG    1       28.204 -18.037   7.333  0.00  0.00    +0.210 HD
ENDBRANCH  19  24
BRANCH  17  26
ATOM     26  C   LIG    1       30.421 -17.191   8.965  0.00  0.00    +0.190 C 
BRANCH  26  27
ATOM     27  O   LIG    1       30.027 -17.141  10.332  0.00  0.00    -0.392 OA
ATOM     28  H   LIG    1       29.101 -17.492  10.363  0.00  0.00    +0.209 HD
ENDBRANCH  26  27
ENDBRANCH  17  26
BRANCH  20  29
ATOM     29  C   LIG    1       29.424 -21.652   8.084  0.00  0.00    +0.223 C 
BRANCH  29  30
ATOM     30  O   LIG    1       30.764 -21.981   8.468  0.00  0.00    -0.390 OA
ATOM     31  H   LIG    1       30.740 -22.057   9.441  0.00  0.00    +0.210 HD
ENDBRANCH  29  30
ENDBRANCH  20  29
ENDBRANCH   1  20
TORSDOF 13
ENDMDL
