MODEL 1
REMARK VINA RESULT:      -8.3      0.000      0.000
REMARK  Name = *****
REMARK                            x       y       z     vdW  Elec       q    Type
REMARK                         _______ _______ _______ _____ _____    ______ ____
ROOT
ATOM      1  C   LIG    1       25.547 -21.629   8.714  0.00  0.00    +0.024 C 
ATOM      2  C   LIG    1       26.176 -21.660   7.307  0.00  0.00    +0.058 C 
ENDROOT
BRANCH   2   3
ATOM      3  N   LIG    1       25.575 -22.690   6.399  0.00  0.00    -0.298 NA
ATOM      4  C   LIG    1       25.765 -24.062   6.882  0.00  0.00    +0.105 C 
BRANCH   3   5
ATOM      5  C   LIG    1       24.147 -22.405   6.126  0.00  0.00    +0.119 C 
BRANCH   5   6
ATOM      6  C   LIG    1       23.875 -21.130   5.347  0.00  0.00    -0.033 A 
ATOM      7  C   LIG    1       24.726 -20.722   4.310  0.00  0.00    +0.005 A 
ATOM      8  C   LIG    1       24.447 -19.560   3.585  0.00  0.00    +0.000 A 
ATOM      9  C   LIG    1       23.327 -18.791   3.892  0.00  0.00    +0.000 A 
ATOM     10  C   LIG    1       22.479 -19.180   4.928  0.00  0.00    +0.000 A 
ATOM     11  C   LIG    1       22.754 -20.341   5.653  0.00  0.00    +0.005 A 
ENDBRANCH   5   6
ENDBRANCH   3   5
ENDBRANCH   2   3
BRANCH   2  12
ATOM     12  C   LIG    1       27.722 -21.827   7.408  0.00  0.00    +0.053 C 
BRANCH  12  13
ATOM     13  C   LIG    1       28.566 -20.681   6.881  0.00  0.00    -0.046 A 
ATOM     14  C   LIG    1       29.808 -20.375   7.447  0.00  0.00    +0.003 A 
ATOM     15  C   LIG    1       30.536 -19.266   7.008  0.00  0.00    +0.000 A 
ATOM     16  C   LIG    1       30.030 -18.451   5.994  0.00  0.00    +0.000 A 
ATOM     17  C   LIG    1       28.804 -18.753   5.412  0.00  0.00    +0.000 A 
ATOM     18  C   LIG    1       28.075 -19.861   5.850  0.00  0.00    +0.003 A 
ENDBRANCH  12  13
ENDBRANCH   2  12
TORSDOF 5
ENDMDL
MODEL 2
REMARK VINA RESULT:      -8.3      0.504      5.355
REMARK  Name = *****
REMARK                            x       y       z     vdW  Elec       q    Type
REMARK                         _______ _______ _______ _____ _____    ______ ____
ROOT
ATOM      1  C   LIG    1       25.822 -24.177   6.885  0.00  0.00    +0.024 C 
ATOM      2  C   LIG    1       25.670 -22.720   6.406  0.00  0.00    +0.058 C 
ENDROOT
BRANCH   2   3
ATOM      3  N   LIG    1       26.248 -21.710   7.351  0.00  0.00    -0.298 NA
ATOM      4  C   LIG    1       25.618 -21.736   8.676  0.00  0.00    +0.105 C 
BRANCH   3   5
ATOM      5  C   LIG    1       27.721 -21.840   7.449  0.00  0.00    +0.119 C 
BRANCH   5   6
ATOM      6  C   LIG    1       28.515 -20.668   6.900  0.00  0.00    -0.033 A 
ATOM      7  C   LIG    1       28.003 -19.867   5.870  0.00  0.00    +0.005 A 
ATOM      8  C   LIG    1       28.734 -18.775   5.394  0.00  0.00    +0.000 A 
ATOM      9  C   LIG    1       29.985 -18.478   5.933  0.00  0.00    +0.000 A 
ATOM     10  C   LIG    1       30.511 -19.273   6.950  0.00  0.00    +0.000 A 
ATOM     11  C   LIG    1       29.780 -20.363   7.428  0.00  0.00    +0.005 A 
ENDBRANCH   5   6
ENDBRANCH   3   5
ENDBRANCH   2   3
BRANCH   2  12
ATOM     12  C   LIG    1       24.176 -22.408   6.088  0.00  0.00    +0.053 C 
BRANCH  12  13
ATOM     13  C   LIG    1       23.893 -21.108   5.358  0.00  0.00    -0.046 A 
ATOM     14  C   LIG    1       22.767 -20.336   5.662  0.00  0.00    +0.003 A 
ATOM     15  C   LIG    1       22.473 -19.185   4.926  0.00  0.00    +0.000 A 
ATOM     16  C   LIG    1       23.307 -18.791   3.877  0.00  0.00    +0.000 A 
ATOM     17  C   LIG    1       24.438 -19.541   3.575  0.00  0.00    +0.000 A 
ATOM     18  C   LIG    1       24.733 -20.691   4.311  0.00  0.00    +0.003 A 
ENDBRANCH  12  13
ENDBRANCH   2  12
TORSDOF 5
ENDMDL
MODEL 3
REMARK VINA RESULT:      -8.3      1.287      5.203
REMARK  Name = *****
REMARK                            x       y       z     vdW  Elec       q    Type
REMARK                         _______ _______ _______ _____ _____    ______ ____
ROOT
ATOM      1  C   LIG    1       28.217 -19.596   5.836  0.00  0.00    +0.024 C 
ATOM      2  C   LIG    1       26.986 -20.430   6.239  0.00  0.00    +0.058 C 
ENDROOT
BRANCH   2   3
ATOM      3  N   LIG    1       27.320 -21.659   7.028  0.00  0.00    -0.298 NA
ATOM      4  C   LIG    1       28.512 -21.496   7.867  0.00  0.00    +0.105 C 
BRANCH   3   5
ATOM      5  C   LIG    1       26.160 -22.127   7.822  0.00  0.00    +0.119 C 
BRANCH   5   6
ATOM      6  C   LIG    1       25.413 -23.315   7.243  0.00  0.00    -0.033 A 
ATOM      7  C   LIG    1       24.015 -23.310   7.140  0.00  0.00    +0.005 A 
ATOM      8  C   LIG    1       23.343 -24.401   6.580  0.00  0.00    +0.000 A 
ATOM      9  C   LIG    1       24.057 -25.508   6.126  0.00  0.00    +0.000 A 
ATOM     10  C   LIG    1       25.447 -25.531   6.232  0.00  0.00    +0.000 A 
ATOM     11  C   LIG    1       26.120 -24.442   6.790  0.00  0.00    +0.005 A 
ENDBRANCH   5   6
ENDBRANCH   3   5
ENDBRANCH   2   3
BRANCH   2  12
ATOM     12  C   LIG    1       26.133 -20.778   4.982  0.00  0.00    +0.053 C 
BRANCH  12  13
ATOM     13  C   LIG    1       24.805 -20.058   4.839  0.00  0.00    -0.046 A 
ATOM     14  C   LIG    1       23.733 -20.337   5.693  0.00  0.00    +0.003 A 
ATOM     15  C   LIG    1       22.490 -19.729   5.498  0.00  0.00    +0.000 A 
ATOM     16  C   LIG    1       22.307 -18.829   4.446  0.00  0.00    +0.000 A 
ATOM     17  C   LIG    1       23.369 -18.531   3.599  0.00  0.00    +0.000 A 
ATOM     18  C   LIG    1       24.611 -19.139   3.793  0.00  0.00    +0.003 A 
ENDBRANCH  12  13
ENDBRANCH   2  12
TORSDOF 5
ENDMDL
MODEL 4
REMARK VINA RESULT:      -8.2      2.734      7.168
REMARK  Name = *****
REMARK                            x       y       z     vdW  Elec       q    Type
REMARK                         _______ _______ _______ _____ _____    ______ ____
ROOT
ATOM      1  C   LIG    1       28.234 -20.020   6.039  0.00  0.00    +0.024 C 
ATOM      2  C   LIG    1       28.087 -20.183   7.564  0.00  0.00    +0.058 C 
ENDROOT
BRANCH   2   3
ATOM      3  N   LIG    1       29.351 -19.913   8.324  0.00  0.00    -0.298 NA
ATOM      4  C   LIG    1       30.277 -21.050   8.320  0.00  0.00    +0.105 C 
BRANCH   3   5
ATOM      5  C   LIG    1       30.013 -18.673   7.854  0.00  0.00    +0.119 C 
BRANCH   5   6
ATOM      6  C   LIG    1       30.710 -17.860   8.930  0.00  0.00    -0.033 A 
ATOM      7  C   LIG    1       32.008 -17.367   8.737  0.00  0.00    +0.005 A 
ATOM      8  C   LIG    1       32.626 -16.598   9.726  0.00  0.00    +0.000 A 
ATOM      9  C   LIG    1       31.961 -16.322  10.919  0.00  0.00    +0.000 A 
ATOM     10  C   LIG    1       30.675 -16.815  11.130  0.00  0.00    +0.000 A 
ATOM     11  C   LIG    1       30.055 -17.583  10.142  0.00  0.00    +0.005 A 
ENDBRANCH   5   6
ENDBRANCH   3   5
ENDBRANCH   2   3
BRANCH   2  12
ATOM     12  C   LIG    1       27.510 -21.590   7.906  0.00  0.00    +0.053 C 
BRANCH  12  13
ATOM     13  C   LIG    1       26.058 -21.836   7.541  0.00  0.00    -0.046 A 
ATOM     14  C   LIG    1       25.099 -20.826   7.662  0.00  0.00    +0.003 A 
ATOM     15  C   LIG    1       23.751 -21.089   7.404  0.00  0.00    +0.000 A 
ATOM     16  C   LIG    1       23.347 -22.369   7.019  0.00  0.00    +0.000 A 
ATOM     17  C   LIG    1       24.293 -23.379   6.879  0.00  0.00    +0.000 A 
ATOM     18  C   LIG    1       25.641 -23.116   7.137  0.00  0.00    +0.003 A 
ENDBRANCH  12  13
ENDBRANCH   2  12
TORSDOF 5
ENDMDL
MODEL 5
REMARK VINA RESULT:      -8.2      1.041      2.018
REMARK  Name = *****
REMARK                            x       y       z     vdW  Elec       q    Type
REMARK                         _______ _______ _______ _____ _____    ______ ____
ROOT
ATOM      1  C   LIG    1       26.185 -23.772   6.901  0.00  0.00    +0.024 C 
ATOM      2  C   LIG    1       25.036 -22.953   7.519  0.00  0.00    +0.058 C 
ENDROOT
BRANCH   2   3
ATOM      3  N   LIG    1       23.856 -22.787   6.611  0.00  0.00    -0.298 NA
ATOM      4  C   LIG    1       22.886 -23.881   6.723  0.00  0.00    +0.105 C 
BRANCH   3   5
ATOM      5  C   LIG    1       23.207 -21.468   6.799  0.00  0.00    +0.119 C 
BRANCH   5   6
ATOM      6  C   LIG    1       23.281 -20.531   5.607  0.00  0.00    -0.033 A 
ATOM      7  C   LIG    1       22.468 -19.392   5.531  0.00  0.00    +0.005 A 
ATOM      8  C   LIG    1       22.567 -18.524   4.439  0.00  0.00    +0.000 A 
ATOM      9  C   LIG    1       23.469 -18.790   3.410  0.00  0.00    +0.000 A 
ATOM     10  C   LIG    1       24.276 -19.925   3.468  0.00  0.00    +0.000 A 
ATOM     11  C   LIG    1       24.180 -20.792   4.558  0.00  0.00    +0.005 A 
ENDBRANCH   5   6
ENDBRANCH   3   5
ENDBRANCH   2   3
BRANCH   2  12
ATOM     12  C   LIG    1       25.563 -21.574   8.022  0.00  0.00    +0.053 C 
BRANCH  12  13
ATOM     13  C   LIG    1       26.899 -21.114   7.469  0.00  0.00    -0.046 A 
ATOM     14  C   LIG    1       28.093 -21.378   8.147  0.00  0.00    +0.003 A 
ATOM     15  C   LIG    1       29.308 -20.875   7.672  0.00  0.00    +0.000 A 
ATOM     16  C   LIG    1       29.340 -20.105   6.508  0.00  0.00    +0.000 A 
ATOM     17  C   LIG    1       28.162 -19.849   5.815  0.00  0.00    +0.000 A 
ATOM     18  C   LIG    1       26.948 -20.350   6.290  0.00  0.00    +0.003 A 
ENDBRANCH  12  13
ENDBRANCH   2  12
TORSDOF 5
ENDMDL
MODEL 6
REMARK VINA RESULT:      -8.1      1.356      4.683
REMARK  Name = *****
REMARK                            x       y       z     vdW  Elec       q    Type
REMARK                         _______ _______ _______ _____ _____    ______ ____
ROOT
ATOM      1  C   LIG    1       28.406 -21.296   7.969  0.00  0.00    +0.024 C 
ATOM      2  C   LIG    1       27.253 -21.564   6.982  0.00  0.00    +0.058 C 
ENDROOT
BRANCH   2   3
ATOM      3  N   LIG    1       26.902 -20.383   6.129  0.00  0.00    -0.298 NA
ATOM      4  C   LIG    1       28.070 -19.580   5.750  0.00  0.00    +0.105 C 
BRANCH   3   5
ATOM      5  C   LIG    1       26.115 -20.787   4.940  0.00  0.00    +0.119 C 
BRANCH   5   6
ATOM      6  C   LIG    1       24.772 -20.095   4.783  0.00  0.00    -0.033 A 
ATOM      7  C   LIG    1       23.722 -20.343   5.678  0.00  0.00    +0.005 A 
ATOM      8  C   LIG    1       22.501 -19.678   5.536  0.00  0.00    +0.000 A 
ATOM      9  C   LIG    1       22.313 -18.768   4.497  0.00  0.00    +0.000 A 
ATOM     10  C   LIG    1       23.345 -18.520   3.594  0.00  0.00    +0.000 A 
ATOM     11  C   LIG    1       24.566 -19.183   3.735  0.00  0.00    +0.005 A 
ENDBRANCH   5   6
ENDBRANCH   3   5
ENDBRANCH   2   3
BRANCH   2  12
ATOM     12  C   LIG    1       26.004 -22.105   7.743  0.00  0.00    +0.053 C 
BRANCH  12  13
ATOM     13  C   LIG    1       25.328 -23.329   7.154  0.00  0.00    -0.046 A 
ATOM     14  C   LIG    1       23.940 -23.380   6.986  0.00  0.00    +0.003 A 
ATOM     15  C   LIG    1       23.321 -24.544   6.523  0.00  0.00    +0.000 A 
ATOM     16  C   LIG    1       24.086 -25.671   6.219  0.00  0.00    +0.000 A 
ATOM     17  C   LIG    1       25.469 -25.629   6.366  0.00  0.00    +0.000 A 
ATOM     18  C   LIG    1       26.088 -24.466   6.830  0.00  0.00    +0.003 A 
ENDBRANCH  12  13
ENDBRANCH   2  12
TORSDOF 5
ENDMDL
MODEL 7
REMARK VINA RESULT:      -8.0      2.729      5.621
REMARK  Name = *****
REMARK                            x       y       z     vdW  Elec       q    Type
REMARK                         _______ _______ _______ _____ _____    ______ ____
ROOT
ATOM      1  C   LIG    1       22.796 -23.544   6.775  0.00  0.00    +0.024 C 
ATOM      2  C   LIG    1       24.307 -23.483   7.072  0.00  0.00    +0.058 C 
ENDROOT
BRANCH   2   3
ATOM      3  N   LIG    1       24.837 -22.090   7.225  0.00  0.00    -0.298 NA
ATOM      4  C   LIG    1       25.827 -21.967   8.299  0.00  0.00    +0.105 C 
BRANCH   3   5
ATOM      5  C   LIG    1       25.360 -21.564   5.943  0.00  0.00    +0.119 C 
BRANCH   5   6
ATOM      6  C   LIG    1       24.484 -20.531   5.257  0.00  0.00    -0.033 A 
ATOM      7  C   LIG    1       23.199 -20.240   5.736  0.00  0.00    +0.005 A 
ATOM      8  C   LIG    1       22.415 -19.267   5.109  0.00  0.00    +0.000 A 
ATOM      9  C   LIG    1       22.899 -18.584   3.996  0.00  0.00    +0.000 A 
ATOM     10  C   LIG    1       24.171 -18.871   3.502  0.00  0.00    +0.000 A 
ATOM     11  C   LIG    1       24.957 -19.841   4.128  0.00  0.00    +0.005 A 
ENDBRANCH   5   6
ENDBRANCH   3   5
ENDBRANCH   2   3
BRANCH   2  12
ATOM     12  C   LIG    1       25.103 -24.277   5.992  0.00  0.00    +0.053 C 
BRANCH  12  13
ATOM     13  C   LIG    1       25.139 -25.786   6.145  0.00  0.00    -0.046 A 
ATOM     14  C   LIG    1       24.330 -26.614   5.360  0.00  0.00    +0.003 A 
ATOM     15  C   LIG    1       24.311 -27.996   5.570  0.00  0.00    +0.000 A 
ATOM     16  C   LIG    1       25.106 -28.565   6.566  0.00  0.00    +0.000 A 
ATOM     17  C   LIG    1       25.927 -27.755   7.343  0.00  0.00    +0.000 A 
ATOM     18  C   LIG    1       25.946 -26.374   7.134  0.00  0.00    +0.003 A 
ENDBRANCH  12  13
ENDBRANCH   2  12
TORSDOF 5
ENDMDL
MODEL 8
REMARK VINA RESULT:      -8.0      1.409      4.495
REMARK  Name = *****
REMARK                            x       y       z     vdW  Elec       q    Type
REMARK                         _______ _______ _______ _____ _____    ______ ____
ROOT
ATOM      1  C   LIG    1       28.170 -21.292   8.153  0.00  0.00    +0.024 C 
ATOM      2  C   LIG    1       27.110 -21.587   7.074  0.00  0.00    +0.058 C 
ENDROOT
BRANCH   2   3
ATOM      3  N   LIG    1       26.838 -20.428   6.162  0.00  0.00    -0.298 NA
ATOM      4  C   LIG    1       28.055 -19.714   5.762  0.00  0.00    +0.105 C 
BRANCH   3   5
ATOM      5  C   LIG    1       26.040 -20.841   4.984  0.00  0.00    +0.119 C 
BRANCH   5   6
ATOM      6  C   LIG    1       24.734 -20.092   4.788  0.00  0.00    -0.033 A 
ATOM      7  C   LIG    1       24.566 -19.197   3.723  0.00  0.00    +0.005 A 
ATOM      8  C   LIG    1       23.348 -18.536   3.541  0.00  0.00    +0.000 A 
ATOM      9  C   LIG    1       22.292 -18.753   4.423  0.00  0.00    +0.000 A 
ATOM     10  C   LIG    1       22.449 -19.632   5.494  0.00  0.00    +0.000 A 
ATOM     11  C   LIG    1       23.664 -20.295   5.676  0.00  0.00    +0.005 A 
ENDBRANCH   5   6
ENDBRANCH   3   5
ENDBRANCH   2   3
BRANCH   2  12
ATOM     12  C   LIG    1       25.798 -22.110   7.733  0.00  0.00    +0.053 C 
BRANCH  12  13
ATOM     13  C   LIG    1       25.237 -23.412   7.191  0.00  0.00    -0.046 A 
ATOM     14  C   LIG    1       26.080 -24.463   6.814  0.00  0.00    +0.003 A 
ATOM     15  C   LIG    1       25.556 -25.623   6.238  0.00  0.00    +0.000 A 
ATOM     16  C   LIG    1       24.180 -25.747   6.036  0.00  0.00    +0.000 A 
ATOM     17  C   LIG    1       23.330 -24.716   6.421  0.00  0.00    +0.000 A 
ATOM     18  C   LIG    1       23.853 -23.555   6.996  0.00  0.00    +0.003 A 
ENDBRANCH  12  13
ENDBRANCH   2  12
TORSDOF 5
ENDMDL
MODEL 9
REMARK VINA RESULT:      -7.9      0.851      5.408
REMARK  Name = *****
REMARK                            x       y       z     vdW  Elec       q    Type
REMARK                         _______ _______ _______ _____ _____    ______ ____
ROOT
ATOM      1  C   LIG    1       23.682 -22.493   7.428  0.00  0.00    +0.024 C 
ATOM      2  C   LIG    1       24.986 -22.395   6.613  0.00  0.00    +0.058 C 
ENDROOT
BRANCH   2   3
ATOM      3  N   LIG    1       25.918 -21.322   7.089  0.00  0.00    -0.298 NA
ATOM      4  C   LIG    1       25.490 -20.710   8.351  0.00  0.00    +0.105 C 
BRANCH   3   5
ATOM      5  C   LIG    1       27.313 -21.813   7.171  0.00  0.00    +0.119 C 
BRANCH   5   6
ATOM      6  C   LIG    1       28.385 -20.771   6.906  0.00  0.00    -0.033 A 
ATOM      7  C   LIG    1       29.575 -20.753   7.647  0.00  0.00    +0.005 A 
ATOM      8  C   LIG    1       30.564 -19.804   7.373  0.00  0.00    +0.000 A 
ATOM      9  C   LIG    1       30.372 -18.860   6.366  0.00  0.00    +0.000 A 
ATOM     10  C   LIG    1       29.189 -18.859   5.629  0.00  0.00    +0.000 A 
ATOM     11  C   LIG    1       28.200 -19.807   5.900  0.00  0.00    +0.005 A 
ENDBRANCH   5   6
ENDBRANCH   3   5
ENDBRANCH   2   3
BRANCH   2  12
ATOM     12  C   LIG    1       24.664 -22.234   5.096  0.00  0.00    +0.053 C 
BRANCH  12  13
ATOM     13  C   LIG    1       24.107 -20.892   4.657  0.00  0.00    -0.046 A 
ATOM     14  C   LIG    1       24.875 -20.000   3.903  0.00  0.00    +0.003 A 
ATOM     15  C   LIG    1       24.380 -18.734   3.578  0.00  0.00    +0.000 A 
ATOM     16  C   LIG    1       23.107 -18.348   4.002  0.00  0.00    +0.000 A 
ATOM     17  C   LIG    1       22.326 -19.233   4.739  0.00  0.00    +0.000 A 
ATOM     18  C   LIG    1       22.820 -20.498   5.064  0.00  0.00    +0.003 A 
ENDBRANCH  12  13
ENDBRANCH   2  12
TORSDOF 5
ENDMDL
