MODEL 1
REMARK VINA RESULT:      -7.5      0.000      0.000
REMARK  Name = *****
REMARK                            x       y       z     vdW  Elec       q    Type
REMARK                         _______ _______ _______ _____ _____    ______ ____
ROOT
ATOM      1  C   LIG    1       24.542 -21.441   6.061  0.00  0.00    +0.129 C 
ATOM      2  C   LIG    1       24.230 -21.276   7.552  0.00  0.00    +0.236 C 
ATOM      3  O   LIG    1       23.103 -21.380   8.036  0.00  0.00    -0.274 OA
ATOM      4  N   LIG    1       25.299 -21.079   8.381  0.00  0.00    -0.239 N 
ATOM      5  H   LIG    1       25.082 -20.991   9.364  0.00  0.00    +0.159 HD
ATOM      6  C   LIG    1       26.482 -20.533   7.997  0.00  0.00    +0.312 C 
ATOM      7  O   LIG    1       27.256 -20.043   8.811  0.00  0.00    -0.252 OA
ATOM      8  N   LIG    1       26.723 -20.470   6.662  0.00  0.00    -0.239 N 
ATOM      9  H   LIG    1       27.536 -19.929   6.400  0.00  0.00    +0.159 HD
ATOM     10  C   LIG    1       25.764 -20.598   5.694  0.00  0.00    +0.236 C 
ATOM     11  O   LIG    1       25.963 -20.103   4.588  0.00  0.00    -0.274 OA
ENDROOT
BRANCH   1  12
ATOM     12  C   LIG    1       23.276 -21.064   5.200  0.00  0.00    +0.010 C 
ATOM     13  C   LIG    1       23.485 -21.168   3.678  0.00  0.00    +0.009 C 
BRANCH  12  14
ATOM     14  C   LIG    1       22.718 -19.661   5.569  0.00  0.00    +0.001 C 
ATOM     15  C   LIG    1       22.417 -18.785   4.359  0.00  0.00    +0.004 C 
ENDBRANCH  12  14
ENDBRANCH   1  12
BRANCH   1  16
ATOM     16  C   LIG    1       24.990 -22.928   5.877  0.00  0.00    +0.052 C 
BRANCH  16  18
ATOM     17  C   LIG    1       24.046 -25.247   6.166  0.00  0.00    +0.004 C 
ATOM     18  C   LIG    1       24.114 -23.963   6.537  0.00  0.00    -0.033 C 
ENDBRANCH  16  18
ENDBRANCH   1  16
TORSDOF 4
ENDMDL
MODEL 2
REMARK VINA RESULT:      -7.3      1.575      3.982
REMARK  Name = *****
REMARK                            x       y       z     vdW  Elec       q    Type
REMARK                         _______ _______ _______ _____ _____    ______ ____
ROOT
ATOM      1  C   LIG    1       24.484 -21.547   5.979  0.00  0.00    +0.129 C 
ATOM      2  C   LIG    1       25.045 -21.123   4.618  0.00  0.00    +0.236 C 
ATOM      3  O   LIG    1       24.577 -21.480   3.538  0.00  0.00    -0.274 OA
ATOM      4  N   LIG    1       26.080 -20.230   4.637  0.00  0.00    -0.239 N 
ATOM      5  H   LIG    1       26.429 -19.942   3.733  0.00  0.00    +0.159 HD
ATOM      6  C   LIG    1       26.951 -20.081   5.669  0.00  0.00    +0.312 C 
ATOM      7  O   LIG    1       28.049 -19.560   5.511  0.00  0.00    -0.252 OA
ATOM      8  N   LIG    1       26.587 -20.622   6.860  0.00  0.00    -0.239 N 
ATOM      9  H   LIG    1       27.312 -20.628   7.566  0.00  0.00    +0.159 HD
ATOM     10  C   LIG    1       25.606 -21.562   7.017  0.00  0.00    +0.236 C 
ATOM     11  O   LIG    1       25.639 -22.301   7.999  0.00  0.00    -0.274 OA
ENDROOT
BRANCH   1  12
ATOM     12  C   LIG    1       23.767 -22.946   5.855  0.00  0.00    +0.010 C 
ATOM     13  C   LIG    1       22.705 -23.219   6.936  0.00  0.00    +0.009 C 
BRANCH  12  14
ATOM     14  C   LIG    1       24.786 -24.118   5.796  0.00  0.00    +0.001 C 
ATOM     15  C   LIG    1       24.205 -25.456   6.241  0.00  0.00    +0.004 C 
ENDBRANCH  12  14
ENDBRANCH   1  12
BRANCH   1  16
ATOM     16  C   LIG    1       23.519 -20.400   6.424  0.00  0.00    +0.052 C 
BRANCH  16  18
ATOM     17  C   LIG    1       22.415 -18.797   4.822  0.00  0.00    +0.004 C 
ATOM     18  C   LIG    1       22.472 -19.995   5.415  0.00  0.00    -0.033 C 
ENDBRANCH  16  18
ENDBRANCH   1  16
TORSDOF 4
ENDMDL
MODEL 3
REMARK VINA RESULT:      -7.2      1.544      2.122
REMARK  Name = *****
REMARK                            x       y       z     vdW  Elec       q    Type
REMARK                         _______ _______ _______ _____ _____    ______ ____
ROOT
ATOM      1  C   LIG    1       25.528 -21.091   6.803  0.00  0.00    +0.129 C 
ATOM      2  C   LIG    1       26.340 -20.604   8.006  0.00  0.00    +0.236 C 
ATOM      3  O   LIG    1       25.884 -20.487   9.144  0.00  0.00    -0.274 OA
ATOM      4  N   LIG    1       27.669 -20.366   7.790  0.00  0.00    -0.239 N 
ATOM      5  H   LIG    1       28.199 -20.064   8.596  0.00  0.00    +0.159 HD
ATOM      6  C   LIG    1       28.207 -20.039   6.586  0.00  0.00    +0.312 C 
ATOM      7  O   LIG    1       29.299 -19.487   6.501  0.00  0.00    -0.252 OA
ATOM      8  N   LIG    1       27.440 -20.267   5.490  0.00  0.00    -0.239 N 
ATOM      9  H   LIG    1       27.801 -19.880   4.628  0.00  0.00    +0.159 HD
ATOM     10  C   LIG    1       26.088 -20.476   5.520  0.00  0.00    +0.236 C 
ATOM     11  O   LIG    1       25.425 -20.233   4.515  0.00  0.00    -0.274 OA
ENDROOT
BRANCH   1  12
ATOM     12  C   LIG    1       24.002 -20.755   7.009  0.00  0.00    +0.010 C 
ATOM     13  C   LIG    1       23.153 -21.927   7.534  0.00  0.00    +0.009 C 
BRANCH  12  14
ATOM     14  C   LIG    1       23.358 -20.161   5.724  0.00  0.00    +0.001 C 
ATOM     15  C   LIG    1       22.214 -21.002   5.169  0.00  0.00    +0.004 C 
ENDBRANCH  12  14
ENDBRANCH   1  12
BRANCH   1  16
ATOM     16  C   LIG    1       25.809 -22.626   6.686  0.00  0.00    +0.052 C 
BRANCH  16  18
ATOM     17  C   LIG    1       25.103 -24.660   5.376  0.00  0.00    +0.004 C 
ATOM     18  C   LIG    1       25.118 -23.333   5.547  0.00  0.00    -0.033 C 
ENDBRANCH  16  18
ENDBRANCH   1  16
TORSDOF 4
ENDMDL
MODEL 4
REMARK VINA RESULT:      -7.0      1.990      3.670
REMARK  Name = *****
REMARK                            x       y       z     vdW  Elec       q    Type
REMARK                         _______ _______ _______ _____ _____    ______ ____
ROOT
ATOM      1  C   LIG    1       24.047 -21.231   5.781  0.00  0.00    +0.129 C 
ATOM      2  C   LIG    1       24.350 -22.112   4.565  0.00  0.00    +0.236 C 
ATOM      3  O   LIG    1       24.110 -21.788   3.402  0.00  0.00    -0.274 OA
ATOM      4  N   LIG    1       24.996 -23.291   4.812  0.00  0.00    -0.239 N 
ATOM      5  H   LIG    1       25.208 -23.855   4.000  0.00  0.00    +0.159 HD
ATOM      6  C   LIG    1       24.945 -23.967   5.989  0.00  0.00    +0.312 C 
ATOM      7  O   LIG    1       25.218 -25.160   6.056  0.00  0.00    -0.252 OA
ATOM      8  N   LIG    1       24.488 -23.282   7.069  0.00  0.00    -0.239 N 
ATOM      9  H   LIG    1       24.321 -23.845   7.893  0.00  0.00    +0.159 HD
ATOM     10  C   LIG    1       23.782 -22.112   7.002  0.00  0.00    +0.236 C 
ATOM     11  O   LIG    1       23.047 -21.805   7.938  0.00  0.00    -0.274 OA
ENDROOT
BRANCH   1  12
ATOM     12  C   LIG    1       22.838 -20.270   5.464  0.00  0.00    +0.010 C 
ATOM     13  C   LIG    1       21.607 -20.969   4.858  0.00  0.00    +0.009 C 
BRANCH  12  14
ATOM     14  C   LIG    1       23.266 -19.071   4.573  0.00  0.00    +0.001 C 
ATOM     15  C   LIG    1       22.200 -17.988   4.452  0.00  0.00    +0.004 C 
ENDBRANCH  12  14
ENDBRANCH   1  12
BRANCH   1  16
ATOM     16  C   LIG    1       25.374 -20.465   6.099  0.00  0.00    +0.052 C 
BRANCH  16  18
ATOM     17  C   LIG    1       27.068 -20.503   7.965  0.00  0.00    +0.004 C 
ATOM     18  C   LIG    1       25.797 -20.463   7.547  0.00  0.00    -0.033 C 
ENDBRANCH  16  18
ENDBRANCH   1  16
TORSDOF 4
ENDMDL
MODEL 5
REMARK VINA RESULT:      -7.0      1.766      4.215
REMARK  Name = *****
REMARK                            x       y       z     vdW  Elec       q    Type
REMARK                         _______ _______ _______ _____ _____    ______ ____
ROOT
ATOM      1  C   LIG    1       24.890 -21.595   6.511  0.00  0.00    +0.129 C 
ATOM      2  C   LIG    1       25.377 -20.563   5.489  0.00  0.00    +0.236 C 
ATOM      3  O   LIG    1       26.559 -20.266   5.319  0.00  0.00    -0.274 OA
ATOM      4  N   LIG    1       24.425 -20.012   4.677  0.00  0.00    -0.239 N 
ATOM      5  H   LIG    1       24.761 -19.348   3.994  0.00  0.00    +0.159 HD
ATOM      6  C   LIG    1       23.110 -19.899   4.998  0.00  0.00    +0.312 C 
ATOM      7  O   LIG    1       22.379 -19.095   4.431  0.00  0.00    -0.252 OA
ATOM      8  N   LIG    1       22.667 -20.651   6.038  0.00  0.00    -0.239 N 
ATOM      9  H   LIG    1       21.728 -20.438   6.349  0.00  0.00    +0.159 HD
ATOM     10  C   LIG    1       23.477 -21.236   6.973  0.00  0.00    +0.236 C 
ATOM     11  O   LIG    1       23.016 -21.501   8.080  0.00  0.00    -0.274 OA
ENDROOT
BRANCH   1  12
ATOM     12  C   LIG    1       25.906 -21.685   7.713  0.00  0.00    +0.010 C 
ATOM     13  C   LIG    1       26.067 -20.380   8.514  0.00  0.00    +0.009 C 
BRANCH  12  14
ATOM     14  C   LIG    1       27.296 -22.213   7.262  0.00  0.00    +0.001 C 
ATOM     15  C   LIG    1       28.465 -21.394   7.799  0.00  0.00    +0.004 C 
ENDBRANCH  12  14
ENDBRANCH   1  12
BRANCH   1  16
ATOM     16  C   LIG    1       24.744 -22.941   5.728  0.00  0.00    +0.052 C 
BRANCH  16  18
ATOM     17  C   LIG    1       24.149 -25.361   6.109  0.00  0.00    +0.004 C 
ATOM     18  C   LIG    1       24.118 -24.080   6.495  0.00  0.00    -0.033 C 
ENDBRANCH  16  18
ENDBRANCH   1  16
TORSDOF 4
ENDMDL
MODEL 6
REMARK VINA RESULT:      -7.0      2.008      4.214
REMARK  Name = *****
REMARK                            x       y       z     vdW  Elec       q    Type
REMARK                         _______ _______ _______ _____ _____    ______ ____
ROOT
ATOM      1  C   LIG    1       24.552 -21.669   6.288  0.00  0.00    +0.129 C 
ATOM      2  C   LIG    1       23.462 -20.845   6.979  0.00  0.00    +0.236 C 
ATOM      3  O   LIG    1       23.148 -20.971   8.163  0.00  0.00    -0.274 OA
ATOM      4  N   LIG    1       22.873 -19.863   6.231  0.00  0.00    -0.239 N 
ATOM      5  H   LIG    1       22.169 -19.313   6.704  0.00  0.00    +0.159 HD
ATOM      6  C   LIG    1       22.787 -19.873   4.876  0.00  0.00    +0.312 C 
ATOM      7  O   LIG    1       21.958 -19.194   4.281  0.00  0.00    -0.252 OA
ATOM      8  N   LIG    1       23.598 -20.741   4.217  0.00  0.00    -0.239 N 
ATOM      9  H   LIG    1       23.410 -20.834   3.228  0.00  0.00    +0.159 HD
ATOM     10  C   LIG    1       24.229 -21.807   4.800  0.00  0.00    +0.236 C 
ATOM     11  O   LIG    1       24.558 -22.760   4.099  0.00  0.00    -0.274 OA
ENDROOT
BRANCH   1  12
ATOM     12  C   LIG    1       24.702 -23.069   6.998  0.00  0.00    +0.010 C 
ATOM     13  C   LIG    1       26.046 -23.775   6.742  0.00  0.00    +0.009 C 
BRANCH  12  14
ATOM     14  C   LIG    1       23.522 -24.023   6.657  0.00  0.00    +0.001 C 
ATOM     15  C   LIG    1       23.967 -25.414   6.221  0.00  0.00    +0.004 C 
ENDBRANCH  12  14
ENDBRANCH   1  12
BRANCH   1  16
ATOM     16  C   LIG    1       25.854 -20.805   6.354  0.00  0.00    +0.052 C 
BRANCH  16  18
ATOM     17  C   LIG    1       27.616 -20.297   8.083  0.00  0.00    +0.004 C 
ATOM     18  C   LIG    1       26.332 -20.445   7.739  0.00  0.00    -0.033 C 
ENDBRANCH  16  18
ENDBRANCH   1  16
TORSDOF 4
ENDMDL
MODEL 7
REMARK VINA RESULT:      -6.2      1.717      3.747
REMARK  Name = *****
REMARK                            x       y       z     vdW  Elec       q    Type
REMARK                         _______ _______ _______ _____ _____    ______ ____
ROOT
ATOM      1  C   LIG    1       24.872 -22.205   6.259  0.00  0.00    +0.129 C 
ATOM      2  C   LIG    1       26.008 -22.716   7.150  0.00  0.00    +0.236 C 
ATOM      3  O   LIG    1       26.535 -23.822   7.028  0.00  0.00    -0.274 OA
ATOM      4  N   LIG    1       26.497 -21.840   8.078  0.00  0.00    -0.239 N 
ATOM      5  H   LIG    1       27.260 -22.181   8.647  0.00  0.00    +0.159 HD
ATOM      6  C   LIG    1       25.791 -20.810   8.613  0.00  0.00    +0.312 C 
ATOM      7  O   LIG    1       26.119 -20.292   9.675  0.00  0.00    -0.252 OA
ATOM      8  N   LIG    1       24.655 -20.445   7.966  0.00  0.00    -0.239 N 
ATOM      9  H   LIG    1       24.075 -19.781   8.463  0.00  0.00    +0.159 HD
ATOM     10  C   LIG    1       24.005 -21.219   7.044  0.00  0.00    +0.236 C 
ATOM     11  O   LIG    1       22.807 -21.035   6.849  0.00  0.00    -0.274 OA
ENDROOT
BRANCH   1  12
ATOM     12  C   LIG    1       24.036 -23.419   5.699  0.00  0.00    +0.010 C 
ATOM     13  C   LIG    1       23.205 -24.166   6.758  0.00  0.00    +0.009 C 
BRANCH  12  14
ATOM     14  C   LIG    1       24.924 -24.421   4.910  0.00  0.00    +0.001 C 
ATOM     15  C   LIG    1       24.591 -25.882   5.188  0.00  0.00    +0.004 C 
ENDBRANCH  12  14
ENDBRANCH   1  12
BRANCH   1  16
ATOM     16  C   LIG    1       25.554 -21.357   5.135  0.00  0.00    +0.052 C 
BRANCH  16  18
ATOM     17  C   LIG    1       24.551 -19.497   3.761  0.00  0.00    +0.004 C 
ATOM     18  C   LIG    1       24.627 -20.793   4.087  0.00  0.00    -0.033 C 
ENDBRANCH  16  18
ENDBRANCH   1  16
TORSDOF 4
ENDMDL
MODEL 8
REMARK VINA RESULT:      -6.2      2.216      4.242
REMARK  Name = *****
REMARK                            x       y       z     vdW  Elec       q    Type
REMARK                         _______ _______ _______ _____ _____    ______ ____
ROOT
ATOM      1  C   LIG    1       25.003 -21.370   5.979  0.00  0.00    +0.129 C 
ATOM      2  C   LIG    1       23.557 -21.127   6.423  0.00  0.00    +0.236 C 
ATOM      3  O   LIG    1       23.100 -20.020   6.706  0.00  0.00    -0.274 OA
ATOM      4  N   LIG    1       22.728 -22.214   6.419  0.00  0.00    -0.239 N 
ATOM      5  H   LIG    1       21.771 -22.038   6.695  0.00  0.00    +0.159 HD
ATOM      6  C   LIG    1       23.142 -23.501   6.553  0.00  0.00    +0.312 C 
ATOM      7  O   LIG    1       22.374 -24.387   6.909  0.00  0.00    -0.252 OA
ATOM      8  N   LIG    1       24.465 -23.741   6.366  0.00  0.00    -0.239 N 
ATOM      9  H   LIG    1       24.769 -24.673   6.616  0.00  0.00    +0.159 HD
ATOM     10  C   LIG    1       25.438 -22.779   6.386  0.00  0.00    +0.236 C 
ATOM     11  O   LIG    1       26.592 -23.103   6.652  0.00  0.00    -0.274 OA
ENDROOT
BRANCH   1  12
ATOM     12  C   LIG    1       25.946 -20.258   6.578  0.00  0.00    +0.010 C 
ATOM     13  C   LIG    1       27.257 -20.043   5.799  0.00  0.00    +0.009 C 
BRANCH  12  14
ATOM     14  C   LIG    1       26.251 -20.503   8.082  0.00  0.00    +0.001 C 
ATOM     15  C   LIG    1       27.718 -20.307   8.448  0.00  0.00    +0.004 C 
ENDBRANCH  12  14
ENDBRANCH   1  12
BRANCH   1  16
ATOM     16  C   LIG    1       24.979 -21.378   4.415  0.00  0.00    +0.052 C 
BRANCH  16  18
ATOM     17  C   LIG    1       24.527 -19.071   3.506  0.00  0.00    +0.004 C 
ATOM     18  C   LIG    1       24.121 -20.318   3.768  0.00  0.00    -0.033 C 
ENDBRANCH  16  18
ENDBRANCH   1  16
TORSDOF 4
ENDMDL
MODEL 9
REMARK VINA RESULT:      -6.2      2.344      4.202
REMARK  Name = *****
REMARK                            x       y       z     vdW  Elec       q    Type
REMARK                         _______ _______ _______ _____ _____    ______ ____
ROOT
ATOM      1  C   LIG    1       25.176 -21.747   6.380  0.00  0.00    +0.129 C 
ATOM      2  C   LIG    1       25.813 -22.980   7.028  0.00  0.00    +0.236 C 
ATOM      3  O   LIG    1       26.559 -22.937   8.006  0.00  0.00    -0.274 OA
ATOM      4  N   LIG    1       25.451 -24.194   6.515  0.00  0.00    -0.239 N 
ATOM      5  H   LIG    1       25.863 -25.001   6.963  0.00  0.00    +0.159 HD
ATOM      6  C   LIG    1       25.018 -24.396   5.244  0.00  0.00    +0.312 C 
ATOM      7  O   LIG    1       25.057 -25.504   4.721  0.00  0.00    -0.252 OA
ATOM      8  N   LIG    1       24.627 -23.297   4.548  0.00  0.00    -0.239 N 
ATOM      9  H   LIG    1       24.451 -23.454   3.564  0.00  0.00    +0.159 HD
ATOM     10  C   LIG    1       24.940 -22.010   4.892  0.00  0.00    +0.236 C 
ATOM     11  O   LIG    1       24.944 -21.144   4.021  0.00  0.00    -0.274 OA
ENDROOT
BRANCH   1  12
ATOM     12  C   LIG    1       26.080 -20.479   6.625  0.00  0.00    +0.010 C 
ATOM     13  C   LIG    1       27.291 -20.365   5.682  0.00  0.00    +0.009 C 
BRANCH  12  14
ATOM     14  C   LIG    1       26.542 -20.372   8.105  0.00  0.00    +0.001 C 
ATOM     15  C   LIG    1       28.011 -19.996   8.262  0.00  0.00    +0.004 C 
ENDBRANCH  12  14
ENDBRANCH   1  12
BRANCH   1  16
ATOM     16  C   LIG    1       23.750 -21.617   7.011  0.00  0.00    +0.052 C 
BRANCH  16  18
ATOM     17  C   LIG    1       22.559 -19.835   5.685  0.00  0.00    +0.004 C 
ATOM     18  C   LIG    1       23.077 -20.278   6.836  0.00  0.00    -0.033 C 
ENDBRANCH  16  18
ENDBRANCH   1  16
TORSDOF 4
ENDMDL
