MODEL 1
REMARK VINA RESULT:      -4.4      0.000      0.000
REMARK  Name = *****
REMARK                            x       y       z     vdW  Elec       q    Type
REMARK                         _______ _______ _______ _____ _____    ______ ____
ROOT
ATOM      1  C   LIG    1       20.542 -26.123  14.016  0.00  0.00    +0.037 C 
ATOM      2  C   LIG    1       21.113 -27.476  13.732  0.00  0.00    -0.002 C 
ATOM      3  C   LIG    1       22.360 -27.898  13.989  0.00  0.00    +0.092 C 
ATOM      4  C   LIG    1       23.433 -26.981  14.526  0.00  0.00    +0.259 C 
ATOM      5  O   LIG    1       24.139 -27.349  15.461  0.00  0.00    -0.269 OA
ATOM      6  N   LIG    1       23.790 -26.003  13.605  0.00  0.00    -0.297 N 
ATOM      7  H   LIG    1       23.202 -25.994  12.777  0.00  0.00    +0.150 HD
ATOM      8  C   LIG    1       25.225 -25.853  13.273  0.00  0.00    +0.185 C 
ATOM      9  C   LIG    1       25.587 -27.220  12.647  0.00  0.00    +0.329 C 
ATOM     10  O   LIG    1       24.863 -27.765  11.813  0.00  0.00    -0.249 OA
ATOM     11  O   LIG    1       26.664 -27.809  13.224  0.00  0.00    -0.455 OA
ATOM     12  C   LIG    1       26.912 -29.178  12.849  0.00  0.00    +0.208 C 
ATOM     13  C   LIG    1       28.045 -29.251  11.824  0.00  0.00    +0.144 C 
ATOM     14  C   LIG    1       27.376 -29.220  10.462  0.00  0.00    +0.217 C 
ATOM     15  N   LIG    1       27.097 -30.469   9.945  0.00  0.00    -0.304 N 
ATOM     16  H   LIG    1       27.534 -31.253  10.420  0.00  0.00    +0.149 HD
ATOM     17  C   LIG    1       25.796 -30.850   9.355  0.00  0.00    +0.161 C 
ATOM     18  C   LIG    1       25.052 -31.484  10.566  0.00  0.00    +0.234 C 
ATOM     19  N   LIG    1       24.023 -30.790  11.147  0.00  0.00    -0.302 N 
ATOM     20  H   LIG    1       23.902 -29.816  10.871  0.00  0.00    +0.149 HD
ATOM     21  C   LIG    1       23.468 -31.161  12.467  0.00  0.00    +0.170 C 
ATOM     22  C   LIG    1       22.815 -32.550  12.538  0.00  0.00    +0.112 C 
ATOM     23  S   LIG    1       23.689 -33.825  13.552  0.00  0.00    -0.091 S 
ATOM     24  S   LIG    1       24.213 -32.892  15.318  0.00  0.00    -0.093 S 
ATOM     25  C   LIG    1       26.007 -33.270  15.463  0.00  0.00    +0.085 C 
ATOM     26  C   LIG    1       26.926 -32.041  15.500  0.00  0.00    +0.038 C 
ATOM     27  C   LIG    1       26.945 -31.269  14.210  0.00  0.00    -0.027 C 
ATOM     28  C   LIG    1       22.403 -30.095  12.806  0.00  0.00    +0.238 C 
ATOM     29  O   LIG    1       21.345 -30.021  12.186  0.00  0.00    -0.273 OA
ATOM     30  O   LIG    1       25.514 -32.501  11.092  0.00  0.00    -0.274 OA
ATOM     31  O   LIG    1       27.022 -28.163   9.955  0.00  0.00    -0.276 OA
ATOM     32  C   LIG    1       27.141 -29.942  14.126  0.00  0.00    +0.013 C 
ATOM     33  N   LIG    1       22.870 -29.153  13.703  0.00  0.00    -0.280 N 
ATOM     34  H   LIG    1       23.811 -29.291  14.069  0.00  0.00    +0.155 HD
ENDROOT
BRANCH   8  35
ATOM     35  C   LIG    1       26.106 -25.304  14.418  0.00  0.00    +0.014 C 
ATOM     36  C   LIG    1       27.528 -24.957  13.951  0.00  0.00    +0.009 C 
ATOM     37  C   LIG    1       25.481 -24.033  15.013  0.00  0.00    +0.009 C 
ENDBRANCH   8  35
BRANCH  17  38
ATOM     38  C   LIG    1       25.050 -29.808   8.498  0.00  0.00    +0.012 C 
ATOM     39  C   LIG    1       23.551 -30.130   8.391  0.00  0.00    +0.009 C 
ATOM     40  C   LIG    1       25.616 -29.756   7.071  0.00  0.00    +0.009 C 
ENDBRANCH  17  38
TORSDOF 2
ENDMDL
MODEL 2
REMARK VINA RESULT:      -3.4      1.156      1.243
REMARK  Name = *****
REMARK                            x       y       z     vdW  Elec       q    Type
REMARK                         _______ _______ _______ _____ _____    ______ ____
ROOT
ATOM      1  C   LIG    1       19.907 -25.783  13.181  0.00  0.00    +0.037 C 
ATOM      2  C   LIG    1       20.347 -27.184  12.899  0.00  0.00    -0.002 C 
ATOM      3  C   LIG    1       21.424 -27.810  13.398  0.00  0.00    +0.092 C 
ATOM      4  C   LIG    1       22.440 -27.108  14.267  0.00  0.00    +0.259 C 
ATOM      5  O   LIG    1       22.835 -27.645  15.298  0.00  0.00    -0.269 OA
ATOM      6  N   LIG    1       23.142 -26.134  13.566  0.00  0.00    -0.297 N 
ATOM      7  H   LIG    1       22.785 -25.977  12.628  0.00  0.00    +0.150 HD
ATOM      8  C   LIG    1       24.621 -26.183  13.600  0.00  0.00    +0.185 C 
ATOM      9  C   LIG    1       24.944 -27.542  12.937  0.00  0.00    +0.329 C 
ATOM     10  O   LIG    1       24.385 -27.910  11.903  0.00  0.00    -0.249 OA
ATOM     11  O   LIG    1       25.755 -28.330  13.686  0.00  0.00    -0.455 OA
ATOM     12  C   LIG    1       25.906 -29.690  13.239  0.00  0.00    +0.208 C 
ATOM     13  C   LIG    1       27.240 -29.865  12.509  0.00  0.00    +0.144 C 
ATOM     14  C   LIG    1       26.942 -29.636  11.039  0.00  0.00    +0.217 C 
ATOM     15  N   LIG    1       26.639 -30.787  10.341  0.00  0.00    -0.304 N 
ATOM     16  H   LIG    1       26.836 -31.661  10.820  0.00  0.00    +0.149 HD
ATOM     17  C   LIG    1       25.488 -30.921   9.423  0.00  0.00    +0.161 C 
ATOM     18  C   LIG    1       24.388 -31.517  10.349  0.00  0.00    +0.234 C 
ATOM     19  N   LIG    1       23.347 -30.715  10.741  0.00  0.00    -0.302 N 
ATOM     20  H   LIG    1       23.429 -29.718  10.548  0.00  0.00    +0.149 HD
ATOM     21  C   LIG    1       22.436 -31.089  11.845  0.00  0.00    +0.170 C 
ATOM     22  C   LIG    1       21.610 -32.362  11.612  0.00  0.00    +0.112 C 
ATOM     23  S   LIG    1       22.027 -33.825  12.663  0.00  0.00    -0.091 S 
ATOM     24  S   LIG    1       22.212 -33.110  14.592  0.00  0.00    -0.093 S 
ATOM     25  C   LIG    1       23.847 -33.768  15.116  0.00  0.00    +0.085 C 
ATOM     26  C   LIG    1       24.882 -32.701  15.499  0.00  0.00    +0.038 C 
ATOM     27  C   LIG    1       25.323 -31.852  14.340  0.00  0.00    -0.027 C 
ATOM     28  C   LIG    1       21.471 -29.898  12.033  0.00  0.00    +0.238 C 
ATOM     29  O   LIG    1       20.620 -29.619  11.192  0.00  0.00    -0.273 OA
ATOM     30  O   LIG    1       24.566 -32.627  10.859  0.00  0.00    -0.274 OA
ATOM     31  O   LIG    1       26.868 -28.504  10.577  0.00  0.00    -0.276 OA
ATOM     32  C   LIG    1       25.707 -30.569  14.445  0.00  0.00    +0.013 C 
ATOM     33  N   LIG    1       21.819 -29.104  13.110  0.00  0.00    -0.280 N 
ATOM     34  H   LIG    1       22.612 -29.411  13.670  0.00  0.00    +0.155 HD
ENDROOT
BRANCH   8  35
ATOM     35  C   LIG    1       25.252 -25.858  14.973  0.00  0.00    +0.014 C 
ATOM     36  C   LIG    1       26.785 -25.774  14.909  0.00  0.00    +0.009 C 
ATOM     37  C   LIG    1       24.727 -24.515  15.500  0.00  0.00    +0.009 C 
ENDBRANCH   8  35
BRANCH  17  38
ATOM     38  C   LIG    1       25.123 -29.720   8.529  0.00  0.00    +0.012 C 
ATOM     39  C   LIG    1       24.105 -30.108   7.445  0.00  0.00    +0.009 C 
ATOM     40  C   LIG    1       26.365 -29.159   7.820  0.00  0.00    +0.009 C 
ENDBRANCH  17  38
TORSDOF 2
ENDMDL
MODEL 3
REMARK VINA RESULT:      -2.6      2.173      3.306
REMARK  Name = *****
REMARK                            x       y       z     vdW  Elec       q    Type
REMARK                         _______ _______ _______ _____ _____    ______ ____
ROOT
ATOM      1  C   LIG    1       24.456 -25.236  13.920  0.00  0.00    +0.037 C 
ATOM      2  C   LIG    1       23.653 -26.460  13.613  0.00  0.00    -0.002 C 
ATOM      3  C   LIG    1       23.964 -27.728  13.918  0.00  0.00    +0.092 C 
ATOM      4  C   LIG    1       25.283 -28.113  14.545  0.00  0.00    +0.259 C 
ATOM      5  O   LIG    1       25.302 -28.884  15.500  0.00  0.00    -0.269 OA
ATOM      6  N   LIG    1       26.352 -27.897  13.683  0.00  0.00    -0.297 N 
ATOM      7  H   LIG    1       26.089 -27.419  12.827  0.00  0.00    +0.150 HD
ATOM      8  C   LIG    1       27.279 -29.023  13.432  0.00  0.00    +0.185 C 
ATOM      9  C   LIG    1       26.372 -30.087  12.772  0.00  0.00    +0.329 C 
ATOM     10  O   LIG    1       25.572 -29.798  11.882  0.00  0.00    -0.249 OA
ATOM     11  O   LIG    1       26.430 -31.299  13.381  0.00  0.00    -0.455 OA
ATOM     12  C   LIG    1       25.444 -32.263  12.966  0.00  0.00    +0.208 C 
ATOM     13  C   LIG    1       26.063 -33.274  11.999  0.00  0.00    +0.144 C 
ATOM     14  C   LIG    1       25.807 -32.727  10.607  0.00  0.00    +0.217 C 
ATOM     15  N   LIG    1       24.643 -33.188  10.027  0.00  0.00    -0.304 N 
ATOM     16  H   LIG    1       24.196 -33.972  10.493  0.00  0.00    +0.149 HD
ATOM     17  C   LIG    1       23.651 -32.321   9.356  0.00  0.00    +0.161 C 
ATOM     18  C   LIG    1       22.642 -32.018  10.501  0.00  0.00    +0.234 C 
ATOM     19  N   LIG    1       22.626 -30.764  11.055  0.00  0.00    -0.302 N 
ATOM     20  H   LIG    1       23.391 -30.137  10.811  0.00  0.00    +0.149 HD
ATOM     21  C   LIG    1       21.932 -30.474  12.328  0.00  0.00    +0.170 C 
ATOM     22  C   LIG    1       20.411 -30.686  12.310  0.00  0.00    +0.112 C 
ATOM     23  S   LIG    1       19.759 -32.092  13.318  0.00  0.00    -0.091 S 
ATOM     24  S   LIG    1       20.716 -31.981  15.144  0.00  0.00    -0.093 S 
ATOM     25  C   LIG    1       21.369 -33.686  15.367  0.00  0.00    +0.085 C 
ATOM     26  C   LIG    1       22.895 -33.783  15.500  0.00  0.00    +0.038 C 
ATOM     27  C   LIG    1       23.630 -33.404  14.244  0.00  0.00    -0.027 C 
ATOM     28  C   LIG    1       22.223 -28.992  12.653  0.00  0.00    +0.238 C 
ATOM     29  O   LIG    1       21.746 -28.080  11.983  0.00  0.00    -0.273 OA
ATOM     30  O   LIG    1       22.011 -32.949  11.009  0.00  0.00    -0.274 OA
ATOM     31  O   LIG    1       26.530 -31.864  10.124  0.00  0.00    -0.276 OA
ATOM     32  C   LIG    1       24.851 -32.845  14.222  0.00  0.00    +0.013 C 
ATOM     33  N   LIG    1       23.210 -28.847  13.610  0.00  0.00    -0.280 N 
ATOM     34  H   LIG    1       23.585 -29.703  14.018  0.00  0.00    +0.155 HD
ENDROOT
BRANCH   8  35
ATOM     35  C   LIG    1       28.148 -29.435  14.642  0.00  0.00    +0.014 C 
ATOM     36  C   LIG    1       29.429 -30.172  14.222  0.00  0.00    +0.009 C 
ATOM     37  C   LIG    1       28.560 -28.196  15.452  0.00  0.00    +0.009 C 
ENDBRANCH   8  35
BRANCH  17  38
ATOM     38  C   LIG    1       24.168 -31.145   8.503  0.00  0.00    +0.012 C 
ATOM     39  C   LIG    1       23.586 -29.803   8.973  0.00  0.00    +0.009 C 
ATOM     40  C   LIG    1       23.788 -31.323   7.025  0.00  0.00    +0.009 C 
ENDBRANCH  17  38
TORSDOF 2
ENDMDL
MODEL 4
REMARK VINA RESULT:      -1.8      2.551      6.468
REMARK  Name = *****
REMARK                            x       y       z     vdW  Elec       q    Type
REMARK                         _______ _______ _______ _____ _____    ______ ____
ROOT
ATOM      1  C   LIG    1       26.445 -27.405   7.623  0.00  0.00    +0.037 C 
ATOM      2  C   LIG    1       26.186 -27.829   9.034  0.00  0.00    -0.002 C 
ATOM      3  C   LIG    1       26.086 -29.084   9.495  0.00  0.00    +0.092 C 
ATOM      4  C   LIG    1       26.115 -30.289   8.585  0.00  0.00    +0.259 C 
ATOM      5  O   LIG    1       26.815 -31.255   8.873  0.00  0.00    -0.269 OA
ATOM      6  N   LIG    1       24.999 -30.342   7.756  0.00  0.00    -0.297 N 
ATOM      7  H   LIG    1       24.412 -29.516   7.818  0.00  0.00    +0.150 HD
ATOM      8  C   LIG    1       24.207 -31.592   7.739  0.00  0.00    +0.185 C 
ATOM      9  C   LIG    1       23.697 -31.707   9.194  0.00  0.00    +0.329 C 
ATOM     10  O   LIG    1       23.226 -30.741   9.797  0.00  0.00    -0.249 OA
ATOM     11  O   LIG    1       23.974 -32.903   9.770  0.00  0.00    -0.455 OA
ATOM     12  C   LIG    1       23.737 -32.992  11.188  0.00  0.00    +0.208 C 
ATOM     13  C   LIG    1       22.423 -33.728  11.462  0.00  0.00    +0.144 C 
ATOM     14  C   LIG    1       21.359 -32.651  11.564  0.00  0.00    +0.217 C 
ATOM     15  N   LIG    1       21.140 -32.198  12.849  0.00  0.00    -0.304 N 
ATOM     16  H   LIG    1       21.555 -32.753  13.592  0.00  0.00    +0.149 HD
ATOM     17  C   LIG    1       21.059 -30.769  13.222  0.00  0.00    +0.161 C 
ATOM     18  C   LIG    1       22.521 -30.451  13.649  0.00  0.00    +0.234 C 
ATOM     19  N   LIG    1       23.298 -29.680  12.824  0.00  0.00    -0.302 N 
ATOM     20  H   LIG    1       22.941 -29.492  11.888  0.00  0.00    +0.149 HD
ATOM     21  C   LIG    1       24.765 -29.581  12.989  0.00  0.00    +0.170 C 
ATOM     22  C   LIG    1       25.236 -28.964  14.314  0.00  0.00    +0.112 C 
ATOM     23  S   LIG    1       26.085 -30.100  15.500  0.00  0.00    -0.091 S 
ATOM     24  S   LIG    1       27.440 -31.187  14.383  0.00  0.00    -0.093 S 
ATOM     25  C   LIG    1       27.052 -32.924  14.848  0.00  0.00    +0.085 C 
ATOM     26  C   LIG    1       26.618 -33.825  13.684  0.00  0.00    +0.038 C 
ATOM     27  C   LIG    1       25.296 -33.434  13.086  0.00  0.00    -0.027 C 
ATOM     28  C   LIG    1       25.274 -28.703  11.824  0.00  0.00    +0.238 C 
ATOM     29  O   LIG    1       25.023 -27.501  11.765  0.00  0.00    -0.273 OA
ATOM     30  O   LIG    1       23.009 -31.043  14.617  0.00  0.00    -0.274 OA
ATOM     31  O   LIG    1       20.848 -32.168  10.561  0.00  0.00    -0.276 OA
ATOM     32  C   LIG    1       24.967 -33.614  11.795  0.00  0.00    +0.013 C 
ATOM     33  N   LIG    1       25.832 -29.452  10.805  0.00  0.00    -0.280 N 
ATOM     34  H   LIG    1       25.891 -30.459  10.953  0.00  0.00    +0.155 HD
ENDROOT
BRANCH   8  35
ATOM     35  C   LIG    1       24.919 -32.808   7.103  0.00  0.00    +0.014 C 
ATOM     36  C   LIG    1       23.930 -33.825   6.513  0.00  0.00    +0.009 C 
ATOM     37  C   LIG    1       25.855 -32.350   5.975  0.00  0.00    +0.009 C 
ENDBRANCH   8  35
BRANCH  17  38
ATOM     38  C   LIG    1       20.349 -29.801  12.254  0.00  0.00    +0.012 C 
ATOM     39  C   LIG    1       20.371 -28.357  12.779  0.00  0.00    +0.009 C 
ATOM     40  C   LIG    1       18.879 -30.199  12.052  0.00  0.00    +0.009 C 
ENDBRANCH  17  38
TORSDOF 2
ENDMDL
