MODEL 1
REMARK VINA RESULT:      -6.7      0.000      0.000
REMARK  Name = *****
REMARK                            x       y       z     vdW  Elec       q    Type
REMARK                         _______ _______ _______ _____ _____    ______ ____
ROOT
ATOM      1  C   LIG    1       25.146 -27.029   6.152  0.00  0.00    +0.030 A 
ATOM      2  C   LIG    1       25.769 -27.345   7.361  0.00  0.00    +0.027 A 
ATOM      3  C   LIG    1       25.693 -28.610   7.928  0.00  0.00    +0.047 A 
ATOM      4  C   LIG    1       24.970 -29.621   7.312  0.00  0.00    +0.121 A 
ATOM      5  C   LIG    1       24.301 -29.340   6.128  0.00  0.00    +0.047 A 
ATOM      6  C   LIG    1       24.378 -28.055   5.570  0.00  0.00    +0.027 A 
ENDROOT
BRANCH   1  10
ATOM      7  N   LIG    1       24.272 -23.304   6.915  0.00  0.00    -0.327 N 
ATOM      8  C   LIG    1       23.333 -24.320   6.358  0.00  0.00    +0.124 C 
ATOM      9  C   LIG    1       23.994 -25.050   5.162  0.00  0.00    +0.124 C 
ATOM     10  N   LIG    1       25.235 -25.750   5.605  0.00  0.00    -0.327 N 
ATOM     11  C   LIG    1       26.205 -24.802   6.200  0.00  0.00    +0.124 C 
ATOM     12  C   LIG    1       25.563 -23.922   7.308  0.00  0.00    +0.124 C 
BRANCH   7  16
ATOM     13  C   LIG    1       24.461 -19.623   4.799  0.00  0.00    +0.052 A 
ATOM     14  C   LIG    1       23.227 -20.206   5.083  0.00  0.00    +0.028 A 
ATOM     15  C   LIG    1       23.160 -21.439   5.733  0.00  0.00    +0.025 A 
ATOM     16  C   LIG    1       24.300 -22.123   6.162  0.00  0.00    +0.030 A 
ATOM     17  C   LIG    1       25.532 -21.557   5.828  0.00  0.00    +0.025 A 
ATOM     18  C   LIG    1       25.610 -20.338   5.144  0.00  0.00    +0.028 A 
BRANCH  13  22
ATOM     19  N   LIG    1       25.228 -16.440   3.322  0.00  0.00    -0.207 N 
ATOM     20  C   LIG    1       25.647 -17.737   3.669  0.00  0.00    +0.351 C 
ATOM     21  O   LIG    1       26.779 -18.165   3.550  0.00  0.00    -0.244 OA
ATOM     22  N   LIG    1       24.527 -18.339   4.220  0.00  0.00    -0.250 N 
ATOM     23  C   LIG    1       23.570 -17.388   4.198  0.00  0.00    +0.230 C 
ATOM     24  N   LIG    1       23.911 -16.253   3.670  0.00  0.00    -0.157 NA
BRANCH  19  25
ATOM     25  C   LIG    1       26.115 -15.365   2.875  0.00  0.00    +0.140 C 
BRANCH  25  27
ATOM     26  C   LIG    1       24.308 -13.576   3.301  0.00  0.00    +0.006 C 
ATOM     27  C   LIG    1       25.286 -14.193   2.305  0.00  0.00    +0.026 C 
ENDBRANCH  25  27
BRANCH  25  28
ATOM     28  C   LIG    1       27.073 -14.923   4.014  0.00  0.00    +0.136 C 
ATOM     29  C   LIG    1       27.743 -13.576   3.768  0.00  0.00    +0.040 C 
BRANCH  28  30
ATOM     30  O   LIG    1       28.094 -15.902   4.226  0.00  0.00    -0.390 OA
ATOM     31  H   LIG    1       27.650 -16.768   4.074  0.00  0.00    +0.210 HD
ENDBRANCH  28  30
ENDBRANCH  25  28
ENDBRANCH  19  25
ENDBRANCH  13  22
ENDBRANCH   7  16
ENDBRANCH   1  10
BRANCH   4  32
ATOM     32  O   LIG    1       24.865 -30.894   7.802  0.00  0.00    -0.492 OA
BRANCH  32  33
ATOM     33  C   LIG    1       23.648 -31.147   8.514  0.00  0.00    +0.235 C 
BRANCH  33  34
ATOM     34  C   LIG    1       23.710 -30.577   9.912  0.00  0.00    +0.055 C 
ATOM     35  C   LIG    1       22.354 -30.452  10.560  0.00  0.00    +0.050 C 
ATOM     36  C   LIG    1       22.683 -30.342  12.055  0.00  0.00    +0.117 C 
ATOM     37  O   LIG    1       23.934 -31.099  12.190  0.00  0.00    -0.366 OA
ATOM     38  C   LIG    1       24.438 -31.454  10.898  0.00  0.00    +0.168 C 
BRANCH  36  39
ATOM     39  C   LIG    1       22.970 -28.930  12.578  0.00  0.00    +0.021 A 
ATOM     40  C   LIG    1       21.972 -27.955  12.747  0.00  0.00    +0.132 A 
ATOM     41  F   LIG    1       20.700 -28.213  12.420  0.00  0.00    -0.205 F 
ATOM     42  C   LIG    1       22.250 -26.685  13.251  0.00  0.00    +0.077 A 
ATOM     43  C   LIG    1       23.553 -26.360  13.584  0.00  0.00    +0.126 A 
ATOM     44  F   LIG    1       23.832 -25.139  14.061  0.00  0.00    -0.205 F 
ATOM     45  C   LIG    1       24.575 -27.284  13.426  0.00  0.00    +0.039 A 
ATOM     46  C   LIG    1       24.284 -28.563  12.940  0.00  0.00    +0.012 A 
ENDBRANCH  36  39
BRANCH  36  47
ATOM     47  C   LIG    1       21.651 -31.111  12.909  0.00  0.00    +0.185 C 
BRANCH  47  48
ATOM     48  N   LIG    1       20.562 -31.733  12.199  0.00  0.00    -0.249 N 
ATOM     49  N   LIG    1       19.390 -31.083  12.059  0.00  0.00    -0.158 NA
ATOM     50  C   LIG    1       18.651 -32.001  11.434  0.00  0.00    +0.244 A 
ATOM     51  N   LIG    1       19.274 -33.192  11.203  0.00  0.00    -0.223 NA
ATOM     52  C   LIG    1       20.465 -33.004  11.724  0.00  0.00    +0.219 A 
ENDBRANCH  47  48
ENDBRANCH  36  47
ENDBRANCH  33  34
ENDBRANCH  32  33
ENDBRANCH   4  32
TORSDOF 13
ENDMDL
MODEL 2
REMARK VINA RESULT:      -5.7      2.065      2.707
REMARK  Name = *****
REMARK                            x       y       z     vdW  Elec       q    Type
REMARK                         _______ _______ _______ _____ _____    ______ ____
ROOT
ATOM      1  C   LIG    1       25.018 -27.699   6.104  0.00  0.00    +0.030 A 
ATOM      2  C   LIG    1       25.559 -28.054   7.343  0.00  0.00    +0.027 A 
ATOM      3  C   LIG    1       25.328 -29.294   7.925  0.00  0.00    +0.047 A 
ATOM      4  C   LIG    1       24.529 -30.235   7.296  0.00  0.00    +0.121 A 
ATOM      5  C   LIG    1       23.938 -29.910   6.082  0.00  0.00    +0.047 A 
ATOM      6  C   LIG    1       24.170 -28.651   5.508  0.00  0.00    +0.027 A 
ENDROOT
BRANCH   1  10
ATOM      7  N   LIG    1       24.903 -23.890   6.942  0.00  0.00    -0.327 N 
ATOM      8  C   LIG    1       23.742 -24.720   6.510  0.00  0.00    +0.124 C 
ATOM      9  C   LIG    1       24.117 -25.536   5.247  0.00  0.00    +0.124 C 
ATOM     10  N   LIG    1       25.262 -26.447   5.541  0.00  0.00    -0.327 N 
ATOM     11  C   LIG    1       26.446 -25.690   6.008  0.00  0.00    +0.124 C 
ATOM     12  C   LIG    1       26.105 -24.729   7.180  0.00  0.00    +0.124 C 
BRANCH   7  16
ATOM     13  C   LIG    1       25.234 -20.233   4.802  0.00  0.00    +0.052 A 
ATOM     14  C   LIG    1       24.526 -21.303   4.257  0.00  0.00    +0.028 A 
ATOM     15  C   LIG    1       24.456 -22.523   4.932  0.00  0.00    +0.025 A 
ATOM     16  C   LIG    1       25.045 -22.721   6.183  0.00  0.00    +0.030 A 
ATOM     17  C   LIG    1       25.794 -21.662   6.698  0.00  0.00    +0.025 A 
ATOM     18  C   LIG    1       25.901 -20.445   6.011  0.00  0.00    +0.028 A 
BRANCH  13  22
ATOM     19  N   LIG    1       25.807 -16.999   3.349  0.00  0.00    -0.207 N 
ATOM     20  C   LIG    1       26.335 -18.176   3.909  0.00  0.00    +0.351 C 
ATOM     21  O   LIG    1       27.508 -18.370   4.159  0.00  0.00    -0.244 OA
ATOM     22  N   LIG    1       25.232 -18.977   4.162  0.00  0.00    -0.250 N 
ATOM     23  C   LIG    1       24.167 -18.239   3.784  0.00  0.00    +0.230 C 
ATOM     24  N   LIG    1       24.435 -17.072   3.284  0.00  0.00    -0.157 NA
BRANCH  19  25
ATOM     25  C   LIG    1       26.572 -15.779   3.089  0.00  0.00    +0.140 C 
BRANCH  25  27
ATOM     26  C   LIG    1       24.828 -13.926   3.503  0.00  0.00    +0.006 C 
ATOM     27  C   LIG    1       25.656 -14.695   2.478  0.00  0.00    +0.026 C 
ENDBRANCH  25  27
BRANCH  25  28
ATOM     28  C   LIG    1       27.301 -15.293   4.372  0.00  0.00    +0.136 C 
ATOM     29  C   LIG    1       27.813 -13.861   4.286  0.00  0.00    +0.040 C 
BRANCH  28  30
ATOM     30  O   LIG    1       28.404 -16.149   4.682  0.00  0.00    -0.390 OA
ATOM     31  H   LIG    1       29.021 -15.588   5.206  0.00  0.00    +0.210 HD
ENDBRANCH  28  30
ENDBRANCH  25  28
ENDBRANCH  19  25
ENDBRANCH  13  22
ENDBRANCH   7  16
ENDBRANCH   1  10
BRANCH   4  32
ATOM     32  O   LIG    1       24.272 -31.481   7.802  0.00  0.00    -0.492 OA
BRANCH  32  33
ATOM     33  C   LIG    1       23.339 -31.490   8.888  0.00  0.00    +0.235 C 
BRANCH  33  34
ATOM     34  C   LIG    1       24.054 -31.395  10.216  0.00  0.00    +0.055 C 
ATOM     35  C   LIG    1       23.598 -30.225  11.051  0.00  0.00    +0.050 C 
ATOM     36  C   LIG    1       24.057 -30.598  12.468  0.00  0.00    +0.117 C 
ATOM     37  O   LIG    1       24.023 -32.066  12.466  0.00  0.00    -0.366 OA
ATOM     38  C   LIG    1       23.781 -32.553  11.142  0.00  0.00    +0.168 C 
BRANCH  36  39
ATOM     39  C   LIG    1       25.489 -30.196  12.838  0.00  0.00    +0.021 A 
ATOM     40  C   LIG    1       26.195 -29.174  12.181  0.00  0.00    +0.132 A 
ATOM     41  F   LIG    1       25.646 -28.513  11.154  0.00  0.00    -0.205 F 
ATOM     42  C   LIG    1       27.487 -28.805  12.551  0.00  0.00    +0.077 A 
ATOM     43  C   LIG    1       28.109 -29.473  13.592  0.00  0.00    +0.126 A 
ATOM     44  F   LIG    1       29.354 -29.131  13.950  0.00  0.00    -0.205 F 
ATOM     45  C   LIG    1       27.458 -30.496  14.266  0.00  0.00    +0.039 A 
ATOM     46  C   LIG    1       26.154 -30.845  13.901  0.00  0.00    +0.012 A 
ENDBRANCH  36  39
BRANCH  36  47
ATOM     47  C   LIG    1       23.011 -30.171  13.521  0.00  0.00    +0.185 C 
BRANCH  47  48
ATOM     48  N   LIG    1       22.374 -28.894  13.317  0.00  0.00    -0.249 N 
ATOM     49  N   LIG    1       23.122 -27.784  13.170  0.00  0.00    -0.158 NA
ATOM     50  C   LIG    1       22.182 -26.840  13.087  0.00  0.00    +0.244 A 
ATOM     51  N   LIG    1       20.899 -27.285  13.203  0.00  0.00    -0.223 NA
ATOM     52  C   LIG    1       21.053 -28.578  13.379  0.00  0.00    +0.219 A 
ENDBRANCH  47  48
ENDBRANCH  36  47
ENDBRANCH  33  34
ENDBRANCH  32  33
ENDBRANCH   4  32
TORSDOF 13
ENDMDL
MODEL 3
REMARK VINA RESULT:      -5.2      1.819      3.431
REMARK  Name = *****
REMARK                            x       y       z     vdW  Elec       q    Type
REMARK                         _______ _______ _______ _____ _____    ______ ____
ROOT
ATOM      1  C   LIG    1       25.216 -27.110   6.075  0.00  0.00    +0.030 A 
ATOM      2  C   LIG    1       25.847 -27.452   7.273  0.00  0.00    +0.027 A 
ATOM      3  C   LIG    1       25.762 -28.726   7.820  0.00  0.00    +0.047 A 
ATOM      4  C   LIG    1       25.024 -29.719   7.194  0.00  0.00    +0.121 A 
ATOM      5  C   LIG    1       24.347 -29.412   6.021  0.00  0.00    +0.047 A 
ATOM      6  C   LIG    1       24.432 -28.119   5.483  0.00  0.00    +0.027 A 
ENDROOT
BRANCH   1  10
ATOM      7  N   LIG    1       24.325 -23.397   6.877  0.00  0.00    -0.327 N 
ATOM      8  C   LIG    1       23.398 -24.406   6.289  0.00  0.00    +0.124 C 
ATOM      9  C   LIG    1       24.080 -25.118   5.094  0.00  0.00    +0.124 C 
ATOM     10  N   LIG    1       25.314 -25.824   5.548  0.00  0.00    -0.327 N 
ATOM     11  C   LIG    1       26.272 -24.884   6.174  0.00  0.00    +0.124 C 
ATOM     12  C   LIG    1       25.610 -24.021   7.283  0.00  0.00    +0.124 C 
BRANCH   7  16
ATOM     13  C   LIG    1       24.526 -19.681   4.825  0.00  0.00    +0.052 A 
ATOM     14  C   LIG    1       23.306 -20.337   4.969  0.00  0.00    +0.028 A 
ATOM     15  C   LIG    1       23.240 -21.582   5.597  0.00  0.00    +0.025 A 
ATOM     16  C   LIG    1       24.366 -22.206   6.141  0.00  0.00    +0.030 A 
ATOM     17  C   LIG    1       25.591 -21.565   5.949  0.00  0.00    +0.025 A 
ATOM     18  C   LIG    1       25.672 -20.333   5.287  0.00  0.00    +0.028 A 
BRANCH  13  22
ATOM     19  N   LIG    1       25.261 -16.466   3.401  0.00  0.00    -0.207 N 
ATOM     20  C   LIG    1       25.693 -17.765   3.725  0.00  0.00    +0.351 C 
ATOM     21  O   LIG    1       26.828 -18.181   3.596  0.00  0.00    -0.244 OA
ATOM     22  N   LIG    1       24.580 -18.386   4.269  0.00  0.00    -0.250 N 
ATOM     23  C   LIG    1       23.613 -17.444   4.264  0.00  0.00    +0.230 C 
ATOM     24  N   LIG    1       23.943 -16.297   3.755  0.00  0.00    -0.157 NA
BRANCH  19  25
ATOM     25  C   LIG    1       26.137 -15.376   2.970  0.00  0.00    +0.140 C 
BRANCH  25  27
ATOM     26  C   LIG    1       24.358 -13.576   3.462  0.00  0.00    +0.006 C 
ATOM     27  C   LIG    1       25.295 -14.198   2.431  0.00  0.00    +0.026 C 
ENDBRANCH  25  27
BRANCH  25  28
ATOM     28  C   LIG    1       27.101 -14.951   4.111  0.00  0.00    +0.136 C 
ATOM     29  C   LIG    1       27.807 -13.624   3.860  0.00  0.00    +0.040 C 
BRANCH  28  30
ATOM     30  O   LIG    1       28.094 -15.955   4.336  0.00  0.00    -0.390 OA
ATOM     31  H   LIG    1       27.753 -16.484   5.093  0.00  0.00    +0.210 HD
ENDBRANCH  28  30
ENDBRANCH  25  28
ENDBRANCH  19  25
ENDBRANCH  13  22
ENDBRANCH   7  16
ENDBRANCH   1  10
BRANCH   4  32
ATOM     32  O   LIG    1       24.909 -30.999   7.665  0.00  0.00    -0.492 OA
BRANCH  32  33
ATOM     33  C   LIG    1       24.913 -31.099   9.093  0.00  0.00    +0.235 C 
BRANCH  33  34
ATOM     34  C   LIG    1       23.504 -31.159   9.636  0.00  0.00    +0.055 C 
ATOM     35  C   LIG    1       23.311 -32.247  10.661  0.00  0.00    +0.050 C 
ATOM     36  C   LIG    1       22.034 -31.820  11.398  0.00  0.00    +0.117 C 
ATOM     37  O   LIG    1       22.049 -30.355  11.294  0.00  0.00    -0.366 OA
ATOM     38  C   LIG    1       23.095 -29.934  10.412  0.00  0.00    +0.168 C 
BRANCH  36  39
ATOM     39  C   LIG    1       20.712 -32.287  10.777  0.00  0.00    +0.021 A 
ATOM     40  C   LIG    1       19.478 -31.665  11.037  0.00  0.00    +0.132 A 
ATOM     41  F   LIG    1       19.397 -30.633  11.886  0.00  0.00    -0.205 F 
ATOM     42  C   LIG    1       18.292 -32.088  10.441  0.00  0.00    +0.077 A 
ATOM     43  C   LIG    1       18.318 -33.165   9.572  0.00  0.00    +0.126 A 
ATOM     44  F   LIG    1       17.181 -33.585   9.000  0.00  0.00    -0.205 F 
ATOM     45  C   LIG    1       19.508 -33.819   9.291  0.00  0.00    +0.039 A 
ATOM     46  C   LIG    1       20.698 -33.374   9.878  0.00  0.00    +0.012 A 
ENDBRANCH  36  39
BRANCH  36  47
ATOM     47  C   LIG    1       22.138 -32.119  12.909  0.00  0.00    +0.185 C 
BRANCH  47  48
ATOM     48  N   LIG    1       22.413 -30.999  13.772  0.00  0.00    -0.249 N 
ATOM     49  N   LIG    1       21.450 -30.521  14.583  0.00  0.00    -0.158 NA
ATOM     50  C   LIG    1       22.064 -29.473  15.135  0.00  0.00    +0.244 A 
ATOM     51  N   LIG    1       23.336 -29.247  14.699  0.00  0.00    -0.223 NA
ATOM     52  C   LIG    1       23.516 -30.205  13.818  0.00  0.00    +0.219 A 
ENDBRANCH  47  48
ENDBRANCH  36  47
ENDBRANCH  33  34
ENDBRANCH  32  33
ENDBRANCH   4  32
TORSDOF 13
ENDMDL
MODEL 4
REMARK VINA RESULT:      -4.8      1.900      2.586
REMARK  Name = *****
REMARK                            x       y       z     vdW  Elec       q    Type
REMARK                         _______ _______ _______ _____ _____    ______ ____
ROOT
ATOM      1  C   LIG    1       25.164 -25.053   6.435  0.00  0.00    +0.030 A 
ATOM      2  C   LIG    1       24.110 -25.903   6.095  0.00  0.00    +0.027 A 
ATOM      3  C   LIG    1       24.174 -27.278   6.283  0.00  0.00    +0.047 A 
ATOM      4  C   LIG    1       25.312 -27.869   6.810  0.00  0.00    +0.121 A 
ATOM      5  C   LIG    1       26.400 -27.066   7.125  0.00  0.00    +0.047 A 
ATOM      6  C   LIG    1       26.327 -25.679   6.922  0.00  0.00    +0.027 A 
ENDROOT
BRANCH   1  10
ATOM      7  N   LIG    1       22.805 -22.318   4.959  0.00  0.00    -0.327 N 
ATOM      8  C   LIG    1       23.761 -23.155   4.178  0.00  0.00    +0.124 C 
ATOM      9  C   LIG    1       25.157 -23.127   4.849  0.00  0.00    +0.124 C 
ATOM     10  N   LIG    1       25.077 -23.676   6.235  0.00  0.00    -0.327 N 
ATOM     11  C   LIG    1       24.117 -22.910   7.062  0.00  0.00    +0.124 C 
ATOM     12  C   LIG    1       22.732 -22.763   6.374  0.00  0.00    +0.124 C 
BRANCH   7  16
ATOM     13  C   LIG    1       23.420 -18.168   4.280  0.00  0.00    +0.052 A 
ATOM     14  C   LIG    1       22.287 -18.607   4.961  0.00  0.00    +0.028 A 
ATOM     15  C   LIG    1       22.053 -19.970   5.144  0.00  0.00    +0.025 A 
ATOM     16  C   LIG    1       22.945 -20.949   4.698  0.00  0.00    +0.030 A 
ATOM     17  C   LIG    1       24.052 -20.504   3.973  0.00  0.00    +0.025 A 
ATOM     18  C   LIG    1       24.276 -19.139   3.753  0.00  0.00    +0.028 A 
BRANCH  13  22
ATOM     19  N   LIG    1       24.701 -14.834   3.899  0.00  0.00    -0.207 N 
ATOM     20  C   LIG    1       24.883 -16.219   3.731  0.00  0.00    +0.351 C 
ATOM     21  O   LIG    1       25.904 -16.751   3.341  0.00  0.00    -0.244 OA
ATOM     22  N   LIG    1       23.699 -16.790   4.171  0.00  0.00    -0.250 N 
ATOM     23  C   LIG    1       22.941 -15.754   4.587  0.00  0.00    +0.230 C 
ATOM     24  N   LIG    1       23.464 -14.576   4.442  0.00  0.00    -0.157 NA
BRANCH  19  25
ATOM     25  C   LIG    1       25.752 -13.827   3.746  0.00  0.00    +0.140 C 
BRANCH  25  27
ATOM     26  C   LIG    1       26.994 -13.745   6.004  0.00  0.00    +0.006 C 
ATOM     27  C   LIG    1       27.002 -14.233   4.558  0.00  0.00    +0.026 C 
ENDBRANCH  25  27
BRANCH  25  28
ATOM     28  C   LIG    1       26.068 -13.576   2.246  0.00  0.00    +0.136 C 
ATOM     29  C   LIG    1       24.837 -13.575   1.347  0.00  0.00    +0.040 C 
BRANCH  28  30
ATOM     30  O   LIG    1       26.987 -14.554   1.752  0.00  0.00    -0.390 OA
ATOM     31  H   LIG    1       27.043 -14.383   0.783  0.00  0.00    +0.210 HD
ENDBRANCH  28  30
ENDBRANCH  25  28
ENDBRANCH  19  25
ENDBRANCH  13  22
ENDBRANCH   7  16
ENDBRANCH   1  10
BRANCH   4  32
ATOM     32  O   LIG    1       25.440 -29.212   7.039  0.00  0.00    -0.492 OA
BRANCH  32  33
ATOM     33  C   LIG    1       24.351 -29.787   7.770  0.00  0.00    +0.235 C 
BRANCH  33  34
ATOM     34  C   LIG    1       24.743 -30.053   9.205  0.00  0.00    +0.055 C 
ATOM     35  C   LIG    1       23.579 -29.974  10.160  0.00  0.00    +0.050 C 
ATOM     36  C   LIG    1       24.081 -30.730  11.397  0.00  0.00    +0.117 C 
ATOM     37  O   LIG    1       25.024 -31.711  10.844  0.00  0.00    -0.366 OA
ATOM     38  C   LIG    1       25.245 -31.452   9.453  0.00  0.00    +0.168 C 
BRANCH  36  39
ATOM     39  C   LIG    1       24.867 -29.900  12.419  0.00  0.00    +0.021 A 
ATOM     40  C   LIG    1       25.414 -30.444  13.594  0.00  0.00    +0.132 A 
ATOM     41  F   LIG    1       25.240 -31.736  13.896  0.00  0.00    -0.205 F 
ATOM     42  C   LIG    1       26.149 -29.677  14.497  0.00  0.00    +0.077 A 
ATOM     43  C   LIG    1       26.339 -28.330  14.242  0.00  0.00    +0.126 A 
ATOM     44  F   LIG    1       27.037 -27.582  15.108  0.00  0.00    -0.205 F 
ATOM     45  C   LIG    1       25.810 -27.744  13.102  0.00  0.00    +0.039 A 
ATOM     46  C   LIG    1       25.092 -28.526  12.191  0.00  0.00    +0.012 A 
ENDBRANCH  36  39
BRANCH  36  47
ATOM     47  C   LIG    1       22.951 -31.570  12.032  0.00  0.00    +0.185 C 
BRANCH  47  48
ATOM     48  N   LIG    1       21.880 -31.976  11.159  0.00  0.00    -0.249 N 
ATOM     49  N   LIG    1       20.696 -31.337  11.201  0.00  0.00    -0.158 NA
ATOM     50  C   LIG    1       19.980 -32.045  10.325  0.00  0.00    +0.244 A 
ATOM     51  N   LIG    1       20.630 -33.103   9.762  0.00  0.00    -0.223 NA
ATOM     52  C   LIG    1       21.814 -33.053  10.330  0.00  0.00    +0.219 A 
ENDBRANCH  47  48
ENDBRANCH  36  47
ENDBRANCH  33  34
ENDBRANCH  32  33
ENDBRANCH   4  32
TORSDOF 13
ENDMDL
MODEL 5
REMARK VINA RESULT:      -4.8      2.458      3.709
REMARK  Name = *****
REMARK                            x       y       z     vdW  Elec       q    Type
REMARK                         _______ _______ _______ _____ _____    ______ ____
ROOT
ATOM      1  C   LIG    1       24.893 -29.326   5.501  0.00  0.00    +0.030 A 
ATOM      2  C   LIG    1       23.794 -29.966   6.080  0.00  0.00    +0.027 A 
ATOM      3  C   LIG    1       23.818 -31.309   6.433  0.00  0.00    +0.047 A 
ATOM      4  C   LIG    1       24.946 -32.082   6.206  0.00  0.00    +0.121 A 
ATOM      5  C   LIG    1       26.048 -31.497   5.596  0.00  0.00    +0.047 A 
ATOM      6  C   LIG    1       26.009 -30.141   5.235  0.00  0.00    +0.027 A 
ENDROOT
BRANCH   1  10
ATOM      7  N   LIG    1       25.870 -25.787   6.823  0.00  0.00    -0.327 N 
ATOM      8  C   LIG    1       24.633 -26.539   7.183  0.00  0.00    +0.124 C 
ATOM      9  C   LIG    1       23.936 -27.057   5.900  0.00  0.00    +0.124 C 
ATOM     10  N   LIG    1       24.844 -27.977   5.154  0.00  0.00    -0.327 N 
ATOM     11  C   LIG    1       26.112 -27.304   4.789  0.00  0.00    +0.124 C 
ATOM     12  C   LIG    1       26.789 -26.623   6.010  0.00  0.00    +0.124 C 
BRANCH   7  16
ATOM     13  C   LIG    1       25.168 -21.868   5.336  0.00  0.00    +0.052 A 
ATOM     14  C   LIG    1       25.888 -22.053   6.515  0.00  0.00    +0.028 A 
ATOM     15  C   LIG    1       26.078 -23.334   7.035  0.00  0.00    +0.025 A 
ATOM     16  C   LIG    1       25.603 -24.481   6.395  0.00  0.00    +0.030 A 
ATOM     17  C   LIG    1       24.841 -24.283   5.242  0.00  0.00    +0.025 A 
ATOM     18  C   LIG    1       24.613 -22.999   4.732  0.00  0.00    +0.028 A 
BRANCH  13  22
ATOM     19  N   LIG    1       24.312 -18.597   4.124  0.00  0.00    -0.207 N 
ATOM     20  C   LIG    1       24.030 -19.672   4.988  0.00  0.00    +0.351 C 
ATOM     21  O   LIG    1       23.053 -19.759   5.704  0.00  0.00    -0.244 OA
ATOM     22  N   LIG    1       25.049 -20.585   4.765  0.00  0.00    -0.250 N 
ATOM     23  C   LIG    1       25.814 -20.031   3.801  0.00  0.00    +0.230 C 
ATOM     24  N   LIG    1       25.445 -18.857   3.390  0.00  0.00    -0.157 NA
BRANCH  19  25
ATOM     25  C   LIG    1       23.411 -17.473   3.867  0.00  0.00    +0.140 C 
BRANCH  25  27
ATOM     26  C   LIG    1       20.940 -18.179   3.652  0.00  0.00    +0.006 C 
ATOM     27  C   LIG    1       22.058 -17.701   4.576  0.00  0.00    +0.026 C 
ENDBRANCH  25  27
BRANCH  25  28
ATOM     28  C   LIG    1       24.074 -16.125   4.262  0.00  0.00    +0.136 C 
ATOM     29  C   LIG    1       23.142 -14.924   4.155  0.00  0.00    +0.040 C 
BRANCH  28  30
ATOM     30  O   LIG    1       25.228 -15.873   3.455  0.00  0.00    -0.390 OA
ATOM     31  H   LIG    1       25.335 -14.894   3.465  0.00  0.00    +0.210 HD
ENDBRANCH  28  30
ENDBRANCH  25  28
ENDBRANCH  19  25
ENDBRANCH  13  22
ENDBRANCH   7  16
ENDBRANCH   1  10
BRANCH   4  32
ATOM     32  O   LIG    1       25.047 -33.405   6.542  0.00  0.00    -0.492 OA
BRANCH  32  33
ATOM     33  C   LIG    1       26.044 -33.682   7.532  0.00  0.00    +0.235 C 
BRANCH  33  34
ATOM     34  C   LIG    1       25.547 -33.330   8.914  0.00  0.00    +0.055 C 
ATOM     35  C   LIG    1       25.393 -31.846   9.128  0.00  0.00    +0.050 C 
ATOM     36  C   LIG    1       24.454 -31.755  10.339  0.00  0.00    +0.117 C 
ATOM     37  O   LIG    1       23.639 -32.972  10.236  0.00  0.00    -0.366 OA
ATOM     38  C   LIG    1       24.153 -33.825   9.208  0.00  0.00    +0.168 C 
BRANCH  36  39
ATOM     39  C   LIG    1       25.128 -31.798  11.716  0.00  0.00    +0.021 A 
ATOM     40  C   LIG    1       25.955 -30.770  12.200  0.00  0.00    +0.132 A 
ATOM     41  F   LIG    1       26.223 -29.695  11.448  0.00  0.00    -0.205 F 
ATOM     42  C   LIG    1       26.535 -30.816  13.466  0.00  0.00    +0.077 A 
ATOM     43  C   LIG    1       26.307 -31.915  14.276  0.00  0.00    +0.126 A 
ATOM     44  F   LIG    1       26.868 -31.973  15.491  0.00  0.00    -0.205 F 
ATOM     45  C   LIG    1       25.507 -32.961  13.840  0.00  0.00    +0.039 A 
ATOM     46  C   LIG    1       24.912 -32.896  12.576  0.00  0.00    +0.012 A 
ENDBRANCH  36  39
BRANCH  36  47
ATOM     47  C   LIG    1       23.458 -30.586  10.184  0.00  0.00    +0.185 C 
BRANCH  47  48
ATOM     48  N   LIG    1       22.133 -30.793  10.711  0.00  0.00    -0.249 N 
ATOM     49  N   LIG    1       21.132 -31.166   9.891  0.00  0.00    -0.158 NA
ATOM     50  C   LIG    1       20.092 -31.172  10.727  0.00  0.00    +0.244 A 
ATOM     51  N   LIG    1       20.372 -30.797  12.007  0.00  0.00    -0.223 NA
ATOM     52  C   LIG    1       21.659 -30.533  11.959  0.00  0.00    +0.219 A 
ENDBRANCH  47  48
ENDBRANCH  36  47
ENDBRANCH  33  34
ENDBRANCH  32  33
ENDBRANCH   4  32
TORSDOF 13
ENDMDL
MODEL 6
REMARK VINA RESULT:      -4.7      2.350      3.343
REMARK  Name = *****
REMARK                            x       y       z     vdW  Elec       q    Type
REMARK                         _______ _______ _______ _____ _____    ______ ____
ROOT
ATOM      1  C   LIG    1       25.376 -26.548   5.731  0.00  0.00    +0.030 A 
ATOM      2  C   LIG    1       24.539 -26.888   6.797  0.00  0.00    +0.027 A 
ATOM      3  C   LIG    1       24.414 -28.193   7.255  0.00  0.00    +0.047 A 
ATOM      4  C   LIG    1       25.115 -29.226   6.653  0.00  0.00    +0.121 A 
ATOM      5  C   LIG    1       25.928 -28.940   5.565  0.00  0.00    +0.047 A 
ATOM      6  C   LIG    1       26.040 -27.619   5.105  0.00  0.00    +0.027 A 
ENDROOT
BRANCH   1  10
ATOM      7  N   LIG    1       23.997 -22.963   6.421  0.00  0.00    -0.327 N 
ATOM      8  C   LIG    1       23.328 -24.007   5.593  0.00  0.00    +0.124 C 
ATOM      9  C   LIG    1       24.335 -24.598   4.574  0.00  0.00    +0.124 C 
ATOM     10  N   LIG    1       25.483 -25.231   5.288  0.00  0.00    -0.327 N 
ATOM     11  C   LIG    1       26.178 -24.255   6.159  0.00  0.00    +0.124 C 
ATOM     12  C   LIG    1       25.198 -23.507   7.104  0.00  0.00    +0.124 C 
BRANCH   7  16
ATOM     13  C   LIG    1       24.424 -19.151   4.593  0.00  0.00    +0.052 A 
ATOM     14  C   LIG    1       23.159 -19.710   4.762  0.00  0.00    +0.028 A 
ATOM     15  C   LIG    1       23.015 -20.983   5.316  0.00  0.00    +0.025 A 
ATOM     16  C   LIG    1       24.106 -21.734   5.759  0.00  0.00    +0.030 A 
ATOM     17  C   LIG    1       25.372 -21.189   5.540  0.00  0.00    +0.025 A 
ATOM     18  C   LIG    1       25.529 -19.927   4.952  0.00  0.00    +0.028 A 
BRANCH  13  22
ATOM     19  N   LIG    1       25.369 -15.920   3.340  0.00  0.00    -0.207 N 
ATOM     20  C   LIG    1       25.706 -17.267   3.569  0.00  0.00    +0.351 C 
ATOM     21  O   LIG    1       26.799 -17.761   3.374  0.00  0.00    -0.244 OA
ATOM     22  N   LIG    1       24.564 -17.832   4.114  0.00  0.00    -0.250 N 
ATOM     23  C   LIG    1       23.677 -16.819   4.202  0.00  0.00    +0.230 C 
ATOM     24  N   LIG    1       24.081 -15.671   3.752  0.00  0.00    -0.157 NA
BRANCH  19  25
ATOM     25  C   LIG    1       26.316 -14.877   2.945  0.00  0.00    +0.140 C 
BRANCH  25  27
ATOM     26  C   LIG    1       24.091 -13.576   2.861  0.00  0.00    +0.006 C 
ATOM     27  C   LIG    1       25.555 -13.633   2.434  0.00  0.00    +0.026 C 
ENDBRANCH  25  27
BRANCH  25  28
ATOM     28  C   LIG    1       27.297 -14.545   4.103  0.00  0.00    +0.136 C 
ATOM     29  C   LIG    1       26.700 -13.642   5.176  0.00  0.00    +0.040 C 
BRANCH  28  30
ATOM     30  O   LIG    1       28.483 -13.925   3.600  0.00  0.00    -0.390 OA
ATOM     31  H   LIG    1       28.262 -13.669   2.675  0.00  0.00    +0.210 HD
ENDBRANCH  28  30
ENDBRANCH  25  28
ENDBRANCH  19  25
ENDBRANCH  13  22
ENDBRANCH   7  16
ENDBRANCH   1  10
BRANCH   4  32
ATOM     32  O   LIG    1       25.054 -30.531   7.061  0.00  0.00    -0.492 OA
BRANCH  32  33
ATOM     33  C   LIG    1       25.922 -30.843   8.156  0.00  0.00    +0.235 C 
BRANCH  33  34
ATOM     34  C   LIG    1       25.492 -30.120   9.411  0.00  0.00    +0.055 C 
ATOM     35  C   LIG    1       25.152 -31.053  10.545  0.00  0.00    +0.050 C 
ATOM     36  C   LIG    1       25.234 -30.152  11.785  0.00  0.00    +0.117 C 
ATOM     37  O   LIG    1       26.234 -29.143  11.414  0.00  0.00    -0.366 OA
ATOM     38  C   LIG    1       26.575 -29.273  10.030  0.00  0.00    +0.168 C 
BRANCH  36  39
ATOM     39  C   LIG    1       23.955 -29.386  12.144  0.00  0.00    +0.021 A 
ATOM     40  C   LIG    1       23.962 -28.100  12.712  0.00  0.00    +0.132 A 
ATOM     41  F   LIG    1       25.116 -27.486  13.001  0.00  0.00    -0.205 F 
ATOM     42  C   LIG    1       22.788 -27.409  13.005  0.00  0.00    +0.077 A 
ATOM     43  C   LIG    1       21.568 -28.008  12.745  0.00  0.00    +0.126 A 
ATOM     44  F   LIG    1       20.433 -27.356  13.031  0.00  0.00    -0.205 F 
ATOM     45  C   LIG    1       21.507 -29.280  12.195  0.00  0.00    +0.039 A 
ATOM     46  C   LIG    1       22.691 -29.957  11.884  0.00  0.00    +0.012 A 
ENDBRANCH  36  39
BRANCH  36  47
ATOM     47  C   LIG    1       25.848 -30.909  12.983  0.00  0.00    +0.185 C 
BRANCH  47  48
ATOM     48  N   LIG    1       26.854 -30.210  13.741  0.00  0.00    -0.249 N 
ATOM     49  N   LIG    1       28.158 -30.464  13.525  0.00  0.00    -0.158 NA
ATOM     50  C   LIG    1       28.735 -29.696  14.451  0.00  0.00    +0.244 A 
ATOM     51  N   LIG    1       27.876 -29.004  15.251  0.00  0.00    -0.223 NA
ATOM     52  C   LIG    1       26.697 -29.373  14.802  0.00  0.00    +0.219 A 
ENDBRANCH  47  48
ENDBRANCH  36  47
ENDBRANCH  33  34
ENDBRANCH  32  33
ENDBRANCH   4  32
TORSDOF 13
ENDMDL
MODEL 7
REMARK VINA RESULT:      -4.7      1.929      2.485
REMARK  Name = *****
REMARK                            x       y       z     vdW  Elec       q    Type
REMARK                         _______ _______ _______ _____ _____    ______ ____
ROOT
ATOM      1  C   LIG    1       25.092 -27.793   5.641  0.00  0.00    +0.030 A 
ATOM      2  C   LIG    1       25.626 -28.813   4.851  0.00  0.00    +0.027 A 
ATOM      3  C   LIG    1       25.476 -30.156   5.171  0.00  0.00    +0.047 A 
ATOM      4  C   LIG    1       24.791 -30.541   6.313  0.00  0.00    +0.121 A 
ATOM      5  C   LIG    1       24.278 -29.559   7.149  0.00  0.00    +0.047 A 
ATOM      6  C   LIG    1       24.443 -28.205   6.821  0.00  0.00    +0.027 A 
ENDROOT
BRANCH   1  10
ATOM      7  N   LIG    1       24.602 -24.191   7.058  0.00  0.00    -0.327 N 
ATOM      8  C   LIG    1       23.542 -25.026   6.422  0.00  0.00    +0.124 C 
ATOM      9  C   LIG    1       24.056 -25.595   5.075  0.00  0.00    +0.124 C 
ATOM     10  N   LIG    1       25.257 -26.451   5.301  0.00  0.00    -0.327 N 
ATOM     11  C   LIG    1       26.344 -25.692   5.961  0.00  0.00    +0.124 C 
ATOM     12  C   LIG    1       25.856 -24.963   7.243  0.00  0.00    +0.124 C 
BRANCH   7  16
ATOM     13  C   LIG    1       24.795 -20.382   5.182  0.00  0.00    +0.052 A 
ATOM     14  C   LIG    1       25.927 -20.924   5.788  0.00  0.00    +0.028 A 
ATOM     15  C   LIG    1       25.858 -22.151   6.449  0.00  0.00    +0.025 A 
ATOM     16  C   LIG    1       24.684 -22.907   6.504  0.00  0.00    +0.030 A 
ATOM     17  C   LIG    1       23.544 -22.334   5.939  0.00  0.00    +0.025 A 
ATOM     18  C   LIG    1       23.595 -21.086   5.305  0.00  0.00    +0.028 A 
BRANCH  13  22
ATOM     19  N   LIG    1       25.601 -17.325   3.478  0.00  0.00    -0.207 N 
ATOM     20  C   LIG    1       26.042 -18.482   4.145  0.00  0.00    +0.351 C 
ATOM     21  O   LIG    1       27.196 -18.730   4.433  0.00  0.00    -0.244 OA
ATOM     22  N   LIG    1       24.885 -19.186   4.441  0.00  0.00    -0.250 N 
ATOM     23  C   LIG    1       23.877 -18.416   3.982  0.00  0.00    +0.230 C 
ATOM     24  N   LIG    1       24.228 -17.314   3.393  0.00  0.00    -0.157 NA
BRANCH  19  25
ATOM     25  C   LIG    1       26.449 -16.183   3.134  0.00  0.00    +0.140 C 
BRANCH  25  27
ATOM     26  C   LIG    1       24.732 -14.355   3.735  0.00  0.00    +0.006 C 
ATOM     27  C   LIG    1       25.580 -15.003   2.644  0.00  0.00    +0.026 C 
ENDBRANCH  25  27
BRANCH  25  28
ATOM     28  C   LIG    1       27.371 -15.794   4.322  0.00  0.00    +0.136 C 
ATOM     29  C   LIG    1       27.880 -14.359   4.264  0.00  0.00    +0.040 C 
BRANCH  28  30
ATOM     30  O   LIG    1       28.499 -16.670   4.394  0.00  0.00    -0.390 OA
ATOM     31  H   LIG    1       29.284 -16.075   4.384  0.00  0.00    +0.210 HD
ENDBRANCH  28  30
ENDBRANCH  25  28
ENDBRANCH  19  25
ENDBRANCH  13  22
ENDBRANCH   7  16
ENDBRANCH   1  10
BRANCH   4  32
ATOM     32  O   LIG    1       24.591 -31.843   6.682  0.00  0.00    -0.492 OA
BRANCH  32  33
ATOM     33  C   LIG    1       25.746 -32.478   7.240  0.00  0.00    +0.235 C 
BRANCH  33  34
ATOM     34  C   LIG    1       25.895 -32.140   8.706  0.00  0.00    +0.055 C 
ATOM     35  C   LIG    1       24.591 -31.762   9.361  0.00  0.00    +0.050 C 
ATOM     36  C   LIG    1       24.877 -31.946  10.858  0.00  0.00    +0.117 C 
ATOM     37  O   LIG    1       25.890 -33.010  10.887  0.00  0.00    -0.366 OA
ATOM     38  C   LIG    1       26.338 -33.301   9.559  0.00  0.00    +0.168 C 
BRANCH  36  39
ATOM     39  C   LIG    1       25.492 -30.741  11.578  0.00  0.00    +0.021 A 
ATOM     40  C   LIG    1       26.006 -30.805  12.884  0.00  0.00    +0.132 A 
ATOM     41  F   LIG    1       25.951 -31.944  13.587  0.00  0.00    -0.205 F 
ATOM     42  C   LIG    1       26.586 -29.704  13.511  0.00  0.00    +0.077 A 
ATOM     43  C   LIG    1       26.649 -28.496  12.836  0.00  0.00    +0.126 A 
ATOM     44  F   LIG    1       27.196 -27.429  13.433  0.00  0.00    -0.205 F 
ATOM     45  C   LIG    1       26.145 -28.379  11.549  0.00  0.00    +0.039 A 
ATOM     46  C   LIG    1       25.584 -29.495  10.920  0.00  0.00    +0.012 A 
ENDBRANCH  36  39
BRANCH  36  47
ATOM     47  C   LIG    1       23.652 -32.535  11.590  0.00  0.00    +0.185 C 
BRANCH  47  48
ATOM     48  N   LIG    1       22.368 -31.973  11.254  0.00  0.00    -0.249 N 
ATOM     49  N   LIG    1       21.500 -32.676  10.502  0.00  0.00    -0.158 NA
ATOM     50  C   LIG    1       20.503 -31.801  10.359  0.00  0.00    +0.244 A 
ATOM     51  N   LIG    1       20.705 -30.587  10.947  0.00  0.00    -0.223 NA
ATOM     52  C   LIG    1       21.901 -30.714  11.475  0.00  0.00    +0.219 A 
ENDBRANCH  47  48
ENDBRANCH  36  47
ENDBRANCH  33  34
ENDBRANCH  32  33
ENDBRANCH   4  32
TORSDOF 13
ENDMDL
MODEL 8
REMARK VINA RESULT:      -4.5      1.793      2.214
REMARK  Name = *****
REMARK                            x       y       z     vdW  Elec       q    Type
REMARK                         _______ _______ _______ _____ _____    ______ ____
ROOT
ATOM      1  C   LIG    1       25.449 -26.055   5.954  0.00  0.00    +0.030 A 
ATOM      2  C   LIG    1       26.007 -26.446   7.173  0.00  0.00    +0.027 A 
ATOM      3  C   LIG    1       25.968 -27.760   7.620  0.00  0.00    +0.047 A 
ATOM      4  C   LIG    1       25.351 -28.747   6.868  0.00  0.00    +0.121 A 
ATOM      5  C   LIG    1       24.748 -28.396   5.667  0.00  0.00    +0.047 A 
ATOM      6  C   LIG    1       24.785 -27.063   5.230  0.00  0.00    +0.027 A 
ENDROOT
BRANCH   1  10
ATOM      7  N   LIG    1       23.619 -22.634   6.370  0.00  0.00    -0.327 N 
ATOM      8  C   LIG    1       23.213 -23.730   5.444  0.00  0.00    +0.124 C 
ATOM      9  C   LIG    1       24.436 -24.206   4.620  0.00  0.00    +0.124 C 
ATOM     10  N   LIG    1       25.499 -24.729   5.528  0.00  0.00    -0.327 N 
ATOM     11  C   LIG    1       25.931 -23.698   6.500  0.00  0.00    +0.124 C 
ATOM     12  C   LIG    1       24.731 -23.063   7.256  0.00  0.00    +0.124 C 
BRANCH   7  16
ATOM     13  C   LIG    1       24.032 -18.792   4.601  0.00  0.00    +0.052 A 
ATOM     14  C   LIG    1       22.765 -19.315   4.855  0.00  0.00    +0.028 A 
ATOM     15  C   LIG    1       22.622 -20.596   5.389  0.00  0.00    +0.025 A 
ATOM     16  C   LIG    1       23.718 -21.393   5.730  0.00  0.00    +0.030 A 
ATOM     17  C   LIG    1       24.981 -20.882   5.426  0.00  0.00    +0.025 A 
ATOM     18  C   LIG    1       25.134 -19.612   4.856  0.00  0.00    +0.028 A 
BRANCH  13  22
ATOM     19  N   LIG    1       24.978 -15.572   3.324  0.00  0.00    -0.207 N 
ATOM     20  C   LIG    1       25.270 -16.940   3.473  0.00  0.00    +0.351 C 
ATOM     21  O   LIG    1       26.303 -17.479   3.128  0.00  0.00    -0.244 OA
ATOM     22  N   LIG    1       24.178 -17.467   4.144  0.00  0.00    -0.250 N 
ATOM     23  C   LIG    1       23.362 -16.415   4.370  0.00  0.00    +0.230 C 
ATOM     24  N   LIG    1       23.766 -15.274   3.902  0.00  0.00    -0.157 NA
BRANCH  19  25
ATOM     25  C   LIG    1       25.921 -14.562   2.839  0.00  0.00    +0.140 C 
BRANCH  25  27
ATOM     26  C   LIG    1       23.683 -13.577   2.020  0.00  0.00    +0.006 C 
ATOM     27  C   LIG    1       25.203 -13.576   1.890  0.00  0.00    +0.026 C 
ENDBRANCH  25  27
BRANCH  25  28
ATOM     28  C   LIG    1       26.630 -13.848   4.022  0.00  0.00    +0.136 C 
ATOM     29  C   LIG    1       28.082 -14.268   4.215  0.00  0.00    +0.040 C 
BRANCH  28  30
ATOM     30  O   LIG    1       25.927 -14.077   5.246  0.00  0.00    -0.390 OA
ATOM     31  H   LIG    1       25.571 -14.992   5.166  0.00  0.00    +0.210 HD
ENDBRANCH  28  30
ENDBRANCH  25  28
ENDBRANCH  19  25
ENDBRANCH  13  22
ENDBRANCH   7  16
ENDBRANCH   1  10
BRANCH   4  32
ATOM     32  O   LIG    1       25.289 -30.064   7.236  0.00  0.00    -0.492 OA
BRANCH  32  33
ATOM     33  C   LIG    1       24.174 -30.383   8.077  0.00  0.00    +0.235 C 
BRANCH  33  34
ATOM     34  C   LIG    1       24.425 -29.942   9.500  0.00  0.00    +0.055 C 
ATOM     35  C   LIG    1       23.283 -30.265  10.430  0.00  0.00    +0.050 C 
ATOM     36  C   LIG    1       23.925 -30.195  11.822  0.00  0.00    +0.117 C 
ATOM     37  O   LIG    1       25.323 -30.573  11.576  0.00  0.00    -0.366 OA
ATOM     38  C   LIG    1       25.571 -30.657  10.169  0.00  0.00    +0.168 C 
BRANCH  36  39
ATOM     39  C   LIG    1       23.957 -28.811  12.479  0.00  0.00    +0.021 A 
ATOM     40  C   LIG    1       22.797 -28.092  12.814  0.00  0.00    +0.132 A 
ATOM     41  F   LIG    1       21.583 -28.583  12.538  0.00  0.00    -0.205 F 
ATOM     42  C   LIG    1       22.848 -26.846  13.436  0.00  0.00    +0.077 A 
ATOM     43  C   LIG    1       24.079 -26.282  13.724  0.00  0.00    +0.126 A 
ATOM     44  F   LIG    1       24.139 -25.081  14.314  0.00  0.00    -0.205 F 
ATOM     45  C   LIG    1       25.254 -26.947  13.403  0.00  0.00    +0.039 A 
ATOM     46  C   LIG    1       25.192 -28.207  12.798  0.00  0.00    +0.012 A 
ENDBRANCH  36  39
BRANCH  36  47
ATOM     47  C   LIG    1       23.366 -31.297  12.748  0.00  0.00    +0.185 C 
BRANCH  47  48
ATOM     48  N   LIG    1       24.322 -32.003  13.562  0.00  0.00    -0.249 N 
ATOM     49  N   LIG    1       24.061 -32.229  14.864  0.00  0.00    -0.158 NA
ATOM     50  C   LIG    1       25.190 -32.818  15.263  0.00  0.00    +0.244 A 
ATOM     51  N   LIG    1       26.150 -32.946  14.303  0.00  0.00    -0.223 NA
ATOM     52  C   LIG    1       25.587 -32.395  13.252  0.00  0.00    +0.219 A 
ENDBRANCH  47  48
ENDBRANCH  36  47
ENDBRANCH  33  34
ENDBRANCH  32  33
ENDBRANCH   4  32
TORSDOF 13
ENDMDL
MODEL 9
REMARK VINA RESULT:      -4.4      2.058      3.476
REMARK  Name = *****
REMARK                            x       y       z     vdW  Elec       q    Type
REMARK                         _______ _______ _______ _____ _____    ______ ____
ROOT
ATOM      1  C   LIG    1       25.047 -29.718   8.502  0.00  0.00    +0.030 A 
ATOM      2  C   LIG    1       26.153 -29.815   9.350  0.00  0.00    +0.027 A 
ATOM      3  C   LIG    1       26.559 -31.021   9.907  0.00  0.00    +0.047 A 
ATOM      4  C   LIG    1       25.862 -32.191   9.649  0.00  0.00    +0.121 A 
ATOM      5  C   LIG    1       24.733 -32.135   8.843  0.00  0.00    +0.047 A 
ATOM      6  C   LIG    1       24.327 -30.909   8.293  0.00  0.00    +0.027 A 
ENDROOT
BRANCH   1  10
ATOM      7  N   LIG    1       26.334 -26.845   6.197  0.00  0.00    -0.327 N 
ATOM      8  C   LIG    1       26.624 -26.987   7.653  0.00  0.00    +0.124 C 
ATOM      9  C   LIG    1       25.308 -27.238   8.432  0.00  0.00    +0.124 C 
ATOM     10  N   LIG    1       24.658 -28.495   7.958  0.00  0.00    -0.327 N 
ATOM     11  C   LIG    1       24.369 -28.437   6.507  0.00  0.00    +0.124 C 
ATOM     12  C   LIG    1       25.616 -28.035   5.673  0.00  0.00    +0.124 C 
BRANCH   7  16
ATOM     13  C   LIG    1       24.747 -22.990   5.371  0.00  0.00    +0.052 A 
ATOM     14  C   LIG    1       24.519 -24.045   4.490  0.00  0.00    +0.028 A 
ATOM     15  C   LIG    1       25.079 -25.301   4.730  0.00  0.00    +0.025 A 
ATOM     16  C   LIG    1       25.849 -25.574   5.863  0.00  0.00    +0.030 A 
ATOM     17  C   LIG    1       26.114 -24.499   6.714  0.00  0.00    +0.025 A 
ATOM     18  C   LIG    1       25.586 -23.226   6.463  0.00  0.00    +0.028 A 
BRANCH  13  22
ATOM     19  N   LIG    1       23.504 -19.762   4.403  0.00  0.00    -0.207 N 
ATOM     20  C   LIG    1       24.259 -20.905   4.084  0.00  0.00    +0.351 C 
ATOM     21  O   LIG    1       24.933 -21.045   3.082  0.00  0.00    -0.244 OA
ATOM     22  N   LIG    1       24.111 -21.747   5.175  0.00  0.00    -0.250 N 
ATOM     23  C   LIG    1       23.340 -21.062   6.046  0.00  0.00    +0.230 C 
ATOM     24  N   LIG    1       22.937 -19.895   5.649  0.00  0.00    -0.157 NA
BRANCH  19  25
ATOM     25  C   LIG    1       23.506 -18.516   3.635  0.00  0.00    +0.140 C 
BRANCH  25  27
ATOM     26  C   LIG    1       20.942 -18.342   3.842  0.00  0.00    +0.006 C 
ATOM     27  C   LIG    1       22.289 -17.648   4.024  0.00  0.00    +0.026 C 
ENDBRANCH  25  27
BRANCH  25  28
ATOM     28  C   LIG    1       24.855 -17.763   3.799  0.00  0.00    +0.136 C 
ATOM     29  C   LIG    1       24.738 -16.250   3.654  0.00  0.00    +0.040 C 
BRANCH  28  30
ATOM     30  O   LIG    1       25.816 -18.234   2.850  0.00  0.00    -0.390 OA
ATOM     31  H   LIG    1       25.550 -19.164   2.660  0.00  0.00    +0.210 HD
ENDBRANCH  28  30
ENDBRANCH  25  28
ENDBRANCH  19  25
ENDBRANCH  13  22
ENDBRANCH   7  16
ENDBRANCH   1  10
BRANCH   4  32
ATOM     32  O   LIG    1       26.213 -33.416  10.148  0.00  0.00    -0.492 OA
BRANCH  32  33
ATOM     33  C   LIG    1       25.447 -33.825  11.286  0.00  0.00    +0.235 C 
BRANCH  33  34
ATOM     34  C   LIG    1       25.230 -32.670  12.236  0.00  0.00    +0.055 C 
ATOM     35  C   LIG    1       23.786 -32.493  12.633  0.00  0.00    +0.050 C 
ATOM     36  C   LIG    1       23.868 -31.647  13.911  0.00  0.00    +0.117 C 
ATOM     37  O   LIG    1       25.161 -32.028  14.494  0.00  0.00    -0.366 OA
ATOM     38  C   LIG    1       25.892 -32.850  13.578  0.00  0.00    +0.168 C 
BRANCH  36  39
ATOM     39  C   LIG    1       23.912 -30.128  13.710  0.00  0.00    +0.021 A 
ATOM     40  C   LIG    1       23.318 -29.480  12.613  0.00  0.00    +0.132 A 
ATOM     41  F   LIG    1       22.700 -30.182  11.655  0.00  0.00    -0.205 F 
ATOM     42  C   LIG    1       23.345 -28.095  12.464  0.00  0.00    +0.077 A 
ATOM     43  C   LIG    1       23.990 -27.324  13.415  0.00  0.00    +0.126 A 
ATOM     44  F   LIG    1       24.029 -25.992  13.276  0.00  0.00    -0.205 F 
ATOM     45  C   LIG    1       24.601 -27.917  14.511  0.00  0.00    +0.039 A 
ATOM     46  C   LIG    1       24.550 -29.306  14.663  0.00  0.00    +0.012 A 
ENDBRANCH  36  39
BRANCH  36  47
ATOM     47  C   LIG    1       22.811 -32.096  14.943  0.00  0.00    +0.185 C 
BRANCH  47  48
ATOM     48  N   LIG    1       21.452 -32.190  14.475  0.00  0.00    -0.249 N 
ATOM     49  N   LIG    1       20.634 -31.123  14.561  0.00  0.00    -0.158 NA
ATOM     50  C   LIG    1       19.486 -31.631  14.111  0.00  0.00    +0.244 A 
ATOM     51  N   LIG    1       19.524 -32.953  13.780  0.00  0.00    -0.223 NA
ATOM     52  C   LIG    1       20.767 -33.286  14.050  0.00  0.00    +0.219 A 
ENDBRANCH  47  48
ENDBRANCH  36  47
ENDBRANCH  33  34
ENDBRANCH  32  33
ENDBRANCH   4  32
TORSDOF 13
ENDMDL
