MODEL 1
REMARK VINA RESULT:      -0.3      0.000      0.000
REMARK  Name = *****
REMARK                            x       y       z     vdW  Elec       q    Type
REMARK                         _______ _______ _______ _____ _____    ______ ____
ROOT
ATOM      1  C   LIG    1       27.220 -19.258   4.958  0.00  0.00    -0.024 A 
ATOM      2  C   LIG    1       28.512 -19.334   5.498  0.00  0.00    +0.044 A 
ATOM      3 CL   LIG    1       29.175 -20.809   6.106  0.00  0.00    -0.083 Cl
ATOM      4  C   LIG    1       29.324 -18.197   5.562  0.00  0.00    +0.021 A 
ATOM      5  C   LIG    1       28.862 -16.964   5.096  0.00  0.00    +0.010 A 
ATOM      6  C   LIG    1       27.576 -16.843   4.552  0.00  0.00    +0.014 A 
ATOM      7  C   LIG    1       26.775 -18.002   4.488  0.00  0.00    +0.014 A 
ENDROOT
BRANCH   6   8
ATOM      8  C   LIG    1       27.059 -15.503   4.058  0.00  0.00    +0.227 C 
ATOM      9  C   LIG    1       25.617 -15.135   4.557  0.00  0.00    +0.209 C 
ATOM     10  C   LIG    1       25.537 -13.618   4.824  0.00  0.00    +0.180 C 
ATOM     11  C   LIG    1       26.266 -12.822   3.708  0.00  0.00    +0.182 C 
ATOM     12  C   LIG    1       27.668 -13.445   3.405  0.00  0.00    +0.147 C 
ATOM     13  C   LIG    1       27.699 -14.354   2.186  0.00  0.00    +0.203 C 
ATOM     14  O   LIG    1       27.948 -14.425   4.430  0.00  0.00    -0.329 OA
ATOM     15  O   LIG    1       26.995 -15.533   2.606  0.00  0.00    -0.340 OA
BRANCH   9  16
ATOM     16  O   LIG    1       24.613 -15.482   3.576  0.00  0.00    -0.383 OA
ATOM     17  H   LIG    1       23.746 -15.349   4.014  0.00  0.00    +0.210 HD
ENDBRANCH   9  16
BRANCH  10  18
ATOM     18  O   LIG    1       26.102 -13.322   6.109  0.00  0.00    -0.386 OA
ATOM     19  H   LIG    1       26.933 -12.827   5.959  0.00  0.00    +0.210 HD
ENDBRANCH  10  18
BRANCH  11  20
ATOM     20  O   LIG    1       25.474 -12.748   2.515  0.00  0.00    -0.386 OA
ATOM     21  H   LIG    1       25.172 -11.825   2.404  0.00  0.00    +0.210 HD
ENDBRANCH  11  20
BRANCH  12  22
ATOM     22  C   LIG    1       28.778 -12.391   3.355  0.00  0.00    +0.196 C 
BRANCH  22  23
ATOM     23  O   LIG    1       29.206 -12.046   4.672  0.00  0.00    -0.392 OA
ATOM     24  H   LIG    1       30.164 -12.211   4.718  0.00  0.00    +0.209 HD
ENDBRANCH  22  23
ENDBRANCH  12  22
ENDBRANCH   6   8
BRANCH   1  25
ATOM     25  C   LIG    1       26.311 -20.467   4.813  0.00  0.00    +0.071 C 
BRANCH  25  29
ATOM     26  C   LIG    1       22.088 -19.577   4.399  0.00  0.00    +0.120 A 
ATOM     27  C   LIG    1       23.020 -18.981   3.552  0.00  0.00    +0.046 A 
ATOM     28  C   LIG    1       24.385 -19.250   3.690  0.00  0.00    +0.007 A 
ATOM     29  C   LIG    1       24.837 -20.146   4.674  0.00  0.00    -0.043 A 
ATOM     30  C   LIG    1       23.900 -20.719   5.533  0.00  0.00    +0.007 A 
ATOM     31  C   LIG    1       22.537 -20.448   5.394  0.00  0.00    +0.046 A 
BRANCH  26  32
ATOM     32  O   LIG    1       20.776 -19.280   4.149  0.00  0.00    -0.492 OA
BRANCH  32  34
ATOM     33  C   LIG    1       19.350 -18.197   2.561  0.00  0.00    +0.048 C 
ATOM     34  C   LIG    1       20.526 -18.030   3.506  0.00  0.00    +0.226 C 
ENDBRANCH  32  34
ENDBRANCH  26  32
ENDBRANCH  25  29
ENDBRANCH   1  25
TORSDOF 10
ENDMDL
MODEL 2
REMARK VINA RESULT:       2.6      2.586      4.793
REMARK  Name = *****
REMARK                            x       y       z     vdW  Elec       q    Type
REMARK                         _______ _______ _______ _____ _____    ______ ____
ROOT
ATOM      1  C   LIG    1       23.596 -18.250   3.830  0.00  0.00    -0.024 A 
ATOM      2  C   LIG    1       22.341 -18.087   4.434  0.00  0.00    +0.044 A 
ATOM      3 CL   LIG    1       21.312 -19.424   4.806  0.00  0.00    -0.083 Cl
ATOM      4  C   LIG    1       21.870 -16.812   4.763  0.00  0.00    +0.021 A 
ATOM      5  C   LIG    1       22.638 -15.677   4.492  0.00  0.00    +0.010 A 
ATOM      6  C   LIG    1       23.897 -15.795   3.887  0.00  0.00    +0.014 A 
ATOM      7  C   LIG    1       24.358 -17.090   3.570  0.00  0.00    +0.014 A 
ENDROOT
BRANCH   6   8
ATOM      8  C   LIG    1       24.731 -14.565   3.572  0.00  0.00    +0.227 C 
ATOM      9  C   LIG    1       23.898 -13.275   3.251  0.00  0.00    +0.209 C 
ATOM     10  C   LIG    1       24.622 -12.039   3.824  0.00  0.00    +0.180 C 
ATOM     11  C   LIG    1       26.152 -12.132   3.576  0.00  0.00    +0.182 C 
ATOM     12  C   LIG    1       26.693 -13.549   3.960  0.00  0.00    +0.147 C 
ATOM     13  C   LIG    1       26.876 -14.489   2.778  0.00  0.00    +0.203 C 
ATOM     14  O   LIG    1       25.638 -14.253   4.654  0.00  0.00    -0.329 OA
ATOM     15  O   LIG    1       25.537 -14.837   2.392  0.00  0.00    -0.340 OA
BRANCH   9  16
ATOM     16  O   LIG    1       23.735 -13.090   1.826  0.00  0.00    -0.383 OA
ATOM     17  H   LIG    1       22.887 -12.613   1.708  0.00  0.00    +0.210 HD
ENDBRANCH   9  16
BRANCH  10  18
ATOM     18  O   LIG    1       24.342 -11.921   5.226  0.00  0.00    -0.386 OA
ATOM     19  H   LIG    1       23.639 -11.248   5.330  0.00  0.00    +0.210 HD
ENDBRANCH  10  18
BRANCH  11  20
ATOM     20  O   LIG    1       26.483 -11.811   2.218  0.00  0.00    -0.386 OA
ATOM     21  H   LIG    1       25.834 -11.158   1.890  0.00  0.00    +0.210 HD
ENDBRANCH  11  20
BRANCH  12  22
ATOM     22  C   LIG    1       27.952 -13.479   4.828  0.00  0.00    +0.196 C 
BRANCH  22  23
ATOM     23  O   LIG    1       28.893 -12.556   4.279  0.00  0.00    -0.392 OA
ATOM     24  H   LIG    1       29.220 -12.005   5.011  0.00  0.00    +0.209 HD
ENDBRANCH  22  23
ENDBRANCH  12  22
ENDBRANCH   6   8
BRANCH   1  25
ATOM     25  C   LIG    1       24.183 -19.611   3.498  0.00  0.00    +0.071 C 
BRANCH  25  29
ATOM     26  C   LIG    1       27.260 -21.018   6.210  0.00  0.00    +0.120 A 
ATOM     27  C   LIG    1       25.982 -21.571   6.246  0.00  0.00    +0.046 A 
ATOM     28  C   LIG    1       24.980 -21.112   5.386  0.00  0.00    +0.007 A 
ATOM     29  C   LIG    1       25.254 -20.096   4.454  0.00  0.00    -0.043 A 
ATOM     30  C   LIG    1       26.529 -19.532   4.441  0.00  0.00    +0.007 A 
ATOM     31  C   LIG    1       27.528 -19.992   5.302  0.00  0.00    +0.046 A 
BRANCH  26  32
ATOM     32  O   LIG    1       28.176 -21.572   7.062  0.00  0.00    -0.492 OA
BRANCH  32  34
ATOM     33  C   LIG    1       29.321 -19.471   7.008  0.00  0.00    +0.048 C 
ATOM     34  C   LIG    1       29.475 -20.980   7.062  0.00  0.00    +0.226 C 
ENDBRANCH  32  34
ENDBRANCH  26  32
ENDBRANCH  25  29
ENDBRANCH   1  25
TORSDOF 10
ENDMDL
