MODEL 1
REMARK VINA RESULT:      -9.9      0.000      0.000
REMARK  Name = *****
REMARK                            x       y       z     vdW  Elec       q    Type
REMARK                         _______ _______ _______ _____ _____    ______ ____
ROOT
ATOM      1  C   UNK A  0       24.223 -23.205   7.142  0.00  0.00    -0.047 A 
ATOM      2  C   UNK A  0       25.542 -23.665   7.272  0.00  0.00    +0.004 A 
ATOM      3  C   UNK A  0       25.903 -24.965   6.876  0.00  0.00    +0.013 A 
ATOM      4  C   UNK A  0       24.954 -25.829   6.313  0.00  0.00    +0.037 A 
ATOM      5  C   UNK A  0       23.650 -25.351   6.123  0.00  0.00    +0.013 A 
ATOM      6  C   UNK A  0       23.281 -24.067   6.562  0.00  0.00    +0.004 A 
ENDROOT
BRANCH   4   7
ATOM      7  C   UNK A  0       25.258 -27.257   5.946  0.00  0.00    +0.245 C 
ATOM      8  N   GLU A  1       25.018 -28.211   6.911  0.00  0.00    -0.298 N 
ATOM      9  H   GLU A  1       24.630 -27.899   7.790  0.00  0.00    +0.150 HD
ATOM     10  O   UNK A  0       25.594 -27.578   4.811  0.00  0.00    -0.270 OA
BRANCH   8  11
ATOM     11  CA  GLU A  1       25.207 -29.666   6.725  0.00  0.00    +0.182 C 
BRANCH  11  12
ATOM     12  C   GLU A  1       24.012 -30.428   6.101  0.00  0.00    +0.325 C 
ATOM     13  O   GLU A  1       23.881 -31.646   6.132  0.00  0.00    -0.249 OA
BRANCH  12  14
ATOM     14  OXT GLU A  1       23.176 -29.649   5.375  0.00  0.00    -0.479 OA
ATOM     15  HXT GLU A  1       23.655 -28.998   4.812  0.00  0.00    +0.295 HD
ENDBRANCH  12  14
ENDBRANCH  11  12
BRANCH  11  16
ATOM     16  CB  GLU A  1       25.680 -30.330   8.037  0.00  0.00    +0.045 C 
BRANCH  16  17
ATOM     17  CG  GLU A  1       26.239 -29.365   9.093  0.00  0.00    +0.123 C 
BRANCH  17  18
ATOM     18  CD  GLU A  1       27.295 -29.970   9.984  0.00  0.00    +0.305 C 
ATOM     19  OE1 GLU A  1       28.089 -29.341  10.666  0.00  0.00    -0.251 OA
BRANCH  18  20
ATOM     20  OE2 GLU A  1       27.399 -31.308   9.895  0.00  0.00    -0.481 OA
ATOM     21  HE2 GLU A  1       28.353 -31.478  10.053  0.00  0.00    +0.295 HD
ENDBRANCH  18  20
ENDBRANCH  17  18
ENDBRANCH  16  17
ENDBRANCH  11  16
ENDBRANCH   8  11
ENDBRANCH   4   7
BRANCH   1  22
ATOM     22  C   UNK A  0       23.840 -21.795   7.562  0.00  0.00    +0.040 C 
BRANCH  22  23
ATOM     23  C   UNK A  0       23.862 -20.773   6.418  0.00  0.00    +0.042 C 
BRANCH  23  34
ATOM     24  C   UNK A  0       29.046 -19.989   7.407  0.00  0.00    +0.195 C 
ATOM     25  N   UNK A  0       28.074 -20.138   8.375  0.00  0.00    -0.295 N 
ATOM     26  H   UNK A  0       28.330 -20.154   9.347  0.00  0.00    +0.172 HD
ATOM     27  C   UNK A  0       26.735 -20.331   8.102  0.00  0.00    +0.262 C 
ATOM     28  O   UNK A  0       25.888 -20.463   8.996  0.00  0.00    -0.267 OA
ATOM     29  C   UNK A  0       26.434 -20.324   6.694  0.00  0.00    +0.086 C 
ATOM     30  C   UNK A  0       27.491 -20.147   5.829  0.00  0.00    +0.147 C 
ATOM     31  N   UNK A  0       27.000 -20.124   4.559  0.00  0.00    -0.345 NA
ATOM     32  H   UNK A  0       27.571 -20.016   3.733  0.00  0.00    +0.167 HD
ATOM     33  C   UNK A  0       25.630 -20.239   4.604  0.00  0.00    +0.088 C 
ATOM     34  C   UNK A  0       25.245 -20.458   5.920  0.00  0.00    -0.015 C 
ATOM     35  N   UNK A  0       28.799 -19.992   6.127  0.00  0.00    -0.198 NA
BRANCH  24  36
ATOM     36  N   UNK A  0       30.319 -19.819   7.844  0.00  0.00    -0.329 NA
ATOM     37  H   UNK A  0       30.489 -20.016   8.821  0.00  0.00    +0.145 HD
ATOM     38  H   UNK A  0       30.683 -18.913   7.564  0.00  0.00    +0.145 HD
ENDBRANCH  24  36
ENDBRANCH  23  34
ENDBRANCH  22  23
ENDBRANCH   1  22
TORSDOF 12
ENDMDL
MODEL 2
REMARK VINA RESULT:      -9.5      2.788      9.003
REMARK  Name = *****
REMARK                            x       y       z     vdW  Elec       q    Type
REMARK                         _______ _______ _______ _____ _____    ______ ____
ROOT
ATOM      1  C   UNK A  0       24.532 -24.518   6.618  0.00  0.00    -0.047 A 
ATOM      2  C   UNK A  0       23.850 -23.333   6.931  0.00  0.00    +0.004 A 
ATOM      3  C   UNK A  0       24.545 -22.160   7.277  0.00  0.00    +0.013 A 
ATOM      4  C   UNK A  0       25.947 -22.140   7.291  0.00  0.00    +0.037 A 
ATOM      5  C   UNK A  0       26.632 -23.304   6.917  0.00  0.00    +0.013 A 
ATOM      6  C   UNK A  0       25.934 -24.487   6.616  0.00  0.00    +0.004 A 
ENDROOT
BRANCH   4   7
ATOM      7  C   UNK A  0       26.747 -20.944   7.731  0.00  0.00    +0.245 C 
ATOM      8  N   GLU A  1       27.866 -20.636   6.988  0.00  0.00    -0.298 N 
ATOM      9  H   GLU A  1       28.063 -21.212   6.182  0.00  0.00    +0.150 HD
ATOM     10  O   UNK A  0       26.368 -20.207   8.635  0.00  0.00    -0.270 OA
BRANCH   8  11
ATOM     11  CA  GLU A  1       28.749 -19.476   7.233  0.00  0.00    +0.182 C 
BRANCH  11  12
ATOM     12  C   GLU A  1       29.327 -18.789   5.971  0.00  0.00    +0.325 C 
ATOM     13  O   GLU A  1       30.460 -18.327   5.896  0.00  0.00    -0.249 OA
BRANCH  12  14
ATOM     14  OXT GLU A  1       28.423 -18.598   4.980  0.00  0.00    -0.479 OA
ATOM     15  HXT GLU A  1       28.819 -18.686   4.083  0.00  0.00    +0.295 HD
ENDBRANCH  12  14
ENDBRANCH  11  12
BRANCH  11  16
ATOM     16  CB  GLU A  1       29.862 -19.836   8.241  0.00  0.00    +0.045 C 
BRANCH  16  17
ATOM     17  CG  GLU A  1       30.096 -21.340   8.445  0.00  0.00    +0.123 C 
BRANCH  17  18
ATOM     18  CD  GLU A  1       31.466 -21.685   8.974  0.00  0.00    +0.305 C 
ATOM     19  OE1 GLU A  1       32.289 -20.880   9.381  0.00  0.00    -0.251 OA
BRANCH  18  20
ATOM     20  OE2 GLU A  1       31.796 -22.983   8.859  0.00  0.00    -0.481 OA
ATOM     21  HE2 GLU A  1       31.013 -23.385   8.425  0.00  0.00    +0.295 HD
ENDBRANCH  18  20
ENDBRANCH  17  18
ENDBRANCH  16  17
ENDBRANCH  11  16
ENDBRANCH   8  11
ENDBRANCH   4   7
BRANCH   1  22
ATOM     22  C   UNK A  0       23.776 -25.780   6.233  0.00  0.00    +0.040 C 
BRANCH  22  23
ATOM     23  C   UNK A  0       24.609 -26.790   5.434  0.00  0.00    +0.042 C 
BRANCH  23  34
ATOM     24  C   UNK A  0       25.440 -30.756   8.903  0.00  0.00    +0.195 C 
ATOM     25  N   UNK A  0       26.071 -29.530   8.944  0.00  0.00    -0.295 N 
ATOM     26  H   UNK A  0       26.704 -29.315   9.695  0.00  0.00    +0.172 HD
ATOM     27  C   UNK A  0       25.851 -28.517   8.033  0.00  0.00    +0.262 C 
ATOM     28  O   UNK A  0       26.434 -27.427   8.100  0.00  0.00    -0.267 OA
ATOM     29  C   UNK A  0       24.918 -28.875   6.997  0.00  0.00    +0.086 C 
ATOM     30  C   UNK A  0       24.371 -30.138   7.058  0.00  0.00    +0.147 C 
ATOM     31  N   UNK A  0       23.558 -30.300   5.977  0.00  0.00    -0.345 NA
ATOM     32  H   UNK A  0       23.026 -31.138   5.788  0.00  0.00    +0.167 HD
ATOM     33  C   UNK A  0       23.615 -29.168   5.198  0.00  0.00    +0.088 C 
ATOM     34  C   UNK A  0       24.387 -28.217   5.850  0.00  0.00    -0.015 C 
ATOM     35  N   UNK A  0       24.582 -31.099   7.984  0.00  0.00    -0.198 NA
BRANCH  24  36
ATOM     36  N   UNK A  0       25.760 -31.639   9.883  0.00  0.00    -0.329 NA
ATOM     37  H   UNK A  0       26.159 -32.519   9.581  0.00  0.00    +0.145 HD
ATOM     38  H   UNK A  0       24.985 -31.768  10.526  0.00  0.00    +0.145 HD
ENDBRANCH  24  36
ENDBRANCH  23  34
ENDBRANCH  22  23
ENDBRANCH   1  22
TORSDOF 12
ENDMDL
MODEL 3
REMARK VINA RESULT:      -9.5      1.404      1.749
REMARK  Name = *****
REMARK                            x       y       z     vdW  Elec       q    Type
REMARK                         _______ _______ _______ _____ _____    ______ ____
ROOT
ATOM      1  C   UNK A  0       25.046 -24.257   6.527  0.00  0.00    -0.047 A 
ATOM      2  C   UNK A  0       26.233 -24.973   6.745  0.00  0.00    +0.004 A 
ATOM      3  C   UNK A  0       26.301 -26.358   6.516  0.00  0.00    +0.013 A 
ATOM      4  C   UNK A  0       25.186 -27.058   6.033  0.00  0.00    +0.037 A 
ATOM      5  C   UNK A  0       24.019 -26.335   5.754  0.00  0.00    +0.013 A 
ATOM      6  C   UNK A  0       23.939 -24.958   6.028  0.00  0.00    +0.004 A 
ENDROOT
BRANCH   4   7
ATOM      7  C   UNK A  0       25.171 -28.551   5.846  0.00  0.00    +0.245 C 
ATOM      8  N   GLU A  1       25.328 -29.321   6.978  0.00  0.00    -0.298 N 
ATOM      9  H   GLU A  1       25.416 -28.840   7.862  0.00  0.00    +0.150 HD
ATOM     10  O   UNK A  0       24.919 -29.067   4.762  0.00  0.00    -0.270 OA
BRANCH   8  11
ATOM     11  CA  GLU A  1       25.293 -30.799   7.005  0.00  0.00    +0.182 C 
BRANCH  11  12
ATOM     12  C   GLU A  1       23.891 -31.444   6.879  0.00  0.00    +0.325 C 
ATOM     13  O   GLU A  1       23.353 -32.100   7.764  0.00  0.00    -0.249 OA
BRANCH  12  14
ATOM     14  OXT GLU A  1       23.348 -31.353   5.642  0.00  0.00    -0.479 OA
ATOM     15  HXT GLU A  1       23.993 -31.045   4.965  0.00  0.00    +0.295 HD
ENDBRANCH  12  14
ENDBRANCH  11  12
BRANCH  11  16
ATOM     16  CB  GLU A  1       26.059 -31.345   8.230  0.00  0.00    +0.045 C 
BRANCH  16  17
ATOM     17  CG  GLU A  1       25.843 -30.564   9.536  0.00  0.00    +0.123 C 
BRANCH  17  18
ATOM     18  CD  GLU A  1       26.960 -29.609   9.876  0.00  0.00    +0.305 C 
ATOM     19  OE1 GLU A  1       27.056 -28.461   9.471  0.00  0.00    -0.251 OA
BRANCH  18  20
ATOM     20  OE2 GLU A  1       27.958 -30.154  10.593  0.00  0.00    -0.481 OA
ATOM     21  HE2 GLU A  1       27.497 -30.769  11.204  0.00  0.00    +0.295 HD
ENDBRANCH  18  20
ENDBRANCH  17  18
ENDBRANCH  16  17
ENDBRANCH  11  16
ENDBRANCH   8  11
ENDBRANCH   4   7
BRANCH   1  22
ATOM     22  C   UNK A  0       24.980 -22.757   6.766  0.00  0.00    +0.040 C 
BRANCH  22  23
ATOM     23  C   UNK A  0       26.167 -22.197   7.561  0.00  0.00    +0.042 C 
BRANCH  23  34
ATOM     24  C   UNK A  0       30.743 -19.568   6.785  0.00  0.00    +0.195 C 
ATOM     25  N   UNK A  0       30.503 -20.438   7.829  0.00  0.00    -0.295 N 
ATOM     26  H   UNK A  0       31.235 -20.653   8.483  0.00  0.00    +0.172 HD
ATOM     27  C   UNK A  0       29.309 -21.103   8.020  0.00  0.00    +0.262 C 
ATOM     28  O   UNK A  0       29.127 -21.879   8.968  0.00  0.00    -0.267 OA
ATOM     29  C   UNK A  0       28.309 -20.773   7.039  0.00  0.00    +0.086 C 
ATOM     30  C   UNK A  0       28.668 -19.875   6.058  0.00  0.00    +0.147 C 
ATOM     31  N   UNK A  0       27.583 -19.662   5.263  0.00  0.00    -0.345 NA
ATOM     32  H   UNK A  0       27.582 -19.049   4.459  0.00  0.00    +0.167 HD
ATOM     33  C   UNK A  0       26.517 -20.379   5.753  0.00  0.00    +0.088 C 
ATOM     34  C   UNK A  0       26.956 -21.159   6.814  0.00  0.00    -0.015 C 
ATOM     35  N   UNK A  0       29.858 -19.264   5.877  0.00  0.00    -0.198 NA
BRANCH  24  36
ATOM     36  N   UNK A  0       31.977 -19.004   6.734  0.00  0.00    -0.329 NA
ATOM     37  H   UNK A  0       32.107 -18.161   7.277  0.00  0.00    +0.145 HD
ATOM     38  H   UNK A  0       32.289 -18.896   5.773  0.00  0.00    +0.145 HD
ENDBRANCH  24  36
ENDBRANCH  23  34
ENDBRANCH  22  23
ENDBRANCH   1  22
TORSDOF 12
ENDMDL
MODEL 4
REMARK VINA RESULT:      -9.5      1.329      1.910
REMARK  Name = *****
REMARK                            x       y       z     vdW  Elec       q    Type
REMARK                         _______ _______ _______ _____ _____    ______ ____
ROOT
ATOM      1  C   UNK A  0       23.798 -22.828   6.020  0.00  0.00    -0.047 A 
ATOM      2  C   UNK A  0       24.776 -23.202   5.087  0.00  0.00    +0.004 A 
ATOM      3  C   UNK A  0       25.195 -24.538   4.963  0.00  0.00    +0.013 A 
ATOM      4  C   UNK A  0       24.620 -25.542   5.756  0.00  0.00    +0.037 A 
ATOM      5  C   UNK A  0       23.597 -25.183   6.644  0.00  0.00    +0.013 A 
ATOM      6  C   UNK A  0       23.214 -23.838   6.798  0.00  0.00    +0.004 A 
ENDROOT
BRANCH   4   7
ATOM      7  C   UNK A  0       25.081 -26.974   5.730  0.00  0.00    +0.245 C 
ATOM      8  N   GLU A  1       24.750 -27.754   6.818  0.00  0.00    -0.298 N 
ATOM      9  H   GLU A  1       24.199 -27.326   7.548  0.00  0.00    +0.150 HD
ATOM     10  O   UNK A  0       25.625 -27.463   4.745  0.00  0.00    -0.270 OA
BRANCH   8  11
ATOM     11  CA  GLU A  1       25.070 -29.191   6.955  0.00  0.00    +0.182 C 
BRANCH  11  12
ATOM     12  C   GLU A  1       24.189 -30.160   6.130  0.00  0.00    +0.325 C 
ATOM     13  O   GLU A  1       24.430 -31.353   5.981  0.00  0.00    -0.249 OA
BRANCH  12  14
ATOM     14  OXT GLU A  1       23.187 -29.555   5.447  0.00  0.00    -0.479 OA
ATOM     15  HXT GLU A  1       22.842 -28.756   5.907  0.00  0.00    +0.295 HD
ENDBRANCH  12  14
ENDBRANCH  11  12
BRANCH  11  16
ATOM     16  CB  GLU A  1       25.124 -29.602   8.442  0.00  0.00    +0.045 C 
BRANCH  16  17
ATOM     17  CG  GLU A  1       26.390 -29.165   9.195  0.00  0.00    +0.123 C 
BRANCH  17  18
ATOM     18  CD  GLU A  1       27.173 -30.305   9.798  0.00  0.00    +0.305 C 
ATOM     19  OE1 GLU A  1       26.980 -31.490   9.576  0.00  0.00    -0.251 OA
BRANCH  18  20
ATOM     20  OE2 GLU A  1       28.064 -29.934  10.734  0.00  0.00    -0.481 OA
ATOM     21  HE2 GLU A  1       27.515 -29.790  11.535  0.00  0.00    +0.295 HD
ENDBRANCH  18  20
ENDBRANCH  17  18
ENDBRANCH  16  17
ENDBRANCH  11  16
ENDBRANCH   8  11
ENDBRANCH   4   7
BRANCH   1  22
ATOM     22  C   UNK A  0       23.342 -21.383   6.142  0.00  0.00    +0.040 C 
BRANCH  22  23
ATOM     23  C   UNK A  0       24.490 -20.369   6.231  0.00  0.00    +0.042 C 
BRANCH  23  34
ATOM     24  C   UNK A  0       29.688 -20.517   7.420  0.00  0.00    +0.195 C 
ATOM     25  N   UNK A  0       29.166 -20.052   6.231  0.00  0.00    -0.295 N 
ATOM     26  H   UNK A  0       29.775 -19.661   5.533  0.00  0.00    +0.172 HD
ATOM     27  C   UNK A  0       27.818 -20.029   5.935  0.00  0.00    +0.262 C 
ATOM     28  O   UNK A  0       27.383 -19.602   4.858  0.00  0.00    -0.267 OA
ATOM     29  C   UNK A  0       26.996 -20.579   6.982  0.00  0.00    +0.086 C 
ATOM     30  C   UNK A  0       27.641 -21.028   8.113  0.00  0.00    +0.147 C 
ATOM     31  N   UNK A  0       26.705 -21.547   8.955  0.00  0.00    -0.345 NA
ATOM     32  H   UNK A  0       26.915 -21.937   9.863  0.00  0.00    +0.167 HD
ATOM     33  C   UNK A  0       25.470 -21.478   8.354  0.00  0.00    +0.088 C 
ATOM     34  C   UNK A  0       25.598 -20.795   7.153  0.00  0.00    -0.015 C 
ATOM     35  N   UNK A  0       28.963 -21.007   8.387  0.00  0.00    -0.198 NA
BRANCH  24  36
ATOM     36  N   UNK A  0       31.037 -20.460   7.557  0.00  0.00    -0.329 NA
ATOM     37  H   UNK A  0       31.419 -20.856   8.406  0.00  0.00    +0.145 HD
ATOM     38  H   UNK A  0       31.383 -19.521   7.381  0.00  0.00    +0.145 HD
ENDBRANCH  24  36
ENDBRANCH  23  34
ENDBRANCH  22  23
ENDBRANCH   1  22
TORSDOF 12
ENDMDL
MODEL 5
REMARK VINA RESULT:      -9.4      3.670     10.206
REMARK  Name = *****
REMARK                            x       y       z     vdW  Elec       q    Type
REMARK                         _______ _______ _______ _____ _____    ______ ____
ROOT
ATOM      1  C   UNK A  0       26.110 -22.436   6.779  0.00  0.00    -0.047 A 
ATOM      2  C   UNK A  0       25.978 -21.290   5.981  0.00  0.00    +0.004 A 
ATOM      3  C   UNK A  0       26.901 -20.233   6.063  0.00  0.00    +0.013 A 
ATOM      4  C   UNK A  0       28.001 -20.313   6.929  0.00  0.00    +0.037 A 
ATOM      5  C   UNK A  0       28.172 -21.483   7.681  0.00  0.00    +0.013 A 
ATOM      6  C   UNK A  0       27.221 -22.518   7.631  0.00  0.00    +0.004 A 
ENDROOT
BRANCH   4   7
ATOM      7  C   UNK A  0       28.977 -19.183   7.123  0.00  0.00    +0.245 C 
ATOM      8  N   GLU A  1       29.351 -18.900   8.419  0.00  0.00    -0.298 N 
ATOM      9  H   GLU A  1       28.972 -19.482   9.152  0.00  0.00    +0.150 HD
ATOM     10  O   UNK A  0       29.505 -18.612   6.175  0.00  0.00    -0.270 OA
BRANCH   8  11
ATOM     11  CA  GLU A  1       30.332 -17.864   8.807  0.00  0.00    +0.182 C 
BRANCH  11  12
ATOM     12  C   GLU A  1       31.819 -18.296   8.772  0.00  0.00    +0.325 C 
ATOM     13  O   GLU A  1       32.226 -19.395   9.131  0.00  0.00    -0.249 OA
BRANCH  12  14
ATOM     14  OXT GLU A  1       32.678 -17.300   8.449  0.00  0.00    -0.479 OA
ATOM     15  HXT GLU A  1       33.530 -17.359   8.938  0.00  0.00    +0.295 HD
ENDBRANCH  12  14
ENDBRANCH  11  12
BRANCH  11  16
ATOM     16  CB  GLU A  1       29.957 -17.234  10.166  0.00  0.00    +0.045 C 
BRANCH  16  17
ATOM     17  CG  GLU A  1       30.949 -17.504  11.307  0.00  0.00    +0.123 C 
BRANCH  17  18
ATOM     18  CD  GLU A  1       31.611 -16.265  11.856  0.00  0.00    +0.305 C 
ATOM     19  OE1 GLU A  1       31.368 -15.755  12.939  0.00  0.00    -0.251 OA
BRANCH  18  20
ATOM     20  OE2 GLU A  1       32.442 -15.651  10.996  0.00  0.00    -0.481 OA
ATOM     21  HE2 GLU A  1       32.988 -16.384  10.637  0.00  0.00    +0.295 HD
ENDBRANCH  18  20
ENDBRANCH  17  18
ENDBRANCH  16  17
ENDBRANCH  11  16
ENDBRANCH   8  11
ENDBRANCH   4   7
BRANCH   1  22
ATOM     22  C   UNK A  0       25.115 -23.581   6.679  0.00  0.00    +0.040 C 
BRANCH  22  23
ATOM     23  C   UNK A  0       25.659 -24.930   7.168  0.00  0.00    +0.042 C 
BRANCH  23  34
ATOM     24  C   UNK A  0       24.836 -30.190   6.843  0.00  0.00    +0.195 C 
ATOM     25  N   UNK A  0       25.636 -29.576   7.785  0.00  0.00    -0.295 N 
ATOM     26  H   UNK A  0       26.073 -30.122   8.506  0.00  0.00    +0.172 HD
ATOM     27  C   UNK A  0       25.846 -28.214   7.849  0.00  0.00    +0.262 C 
ATOM     28  O   UNK A  0       26.569 -27.694   8.709  0.00  0.00    -0.267 OA
ATOM     29  C   UNK A  0       25.175 -27.484   6.806  0.00  0.00    +0.086 C 
ATOM     30  C   UNK A  0       24.421 -28.217   5.915  0.00  0.00    +0.147 C 
ATOM     31  N   UNK A  0       23.910 -27.360   4.988  0.00  0.00    -0.345 NA
ATOM     32  H   UNK A  0       23.311 -27.642   4.225  0.00  0.00    +0.167 HD
ATOM     33  C   UNK A  0       24.368 -26.089   5.248  0.00  0.00    +0.088 C 
ATOM     34  C   UNK A  0       25.090 -26.111   6.433  0.00  0.00    -0.015 C 
ATOM     35  N   UNK A  0       24.208 -29.550   5.897  0.00  0.00    -0.198 NA
BRANCH  24  36
ATOM     36  N   UNK A  0       24.726 -31.541   6.925  0.00  0.00    -0.329 NA
ATOM     37  H   UNK A  0       24.298 -32.005   6.135  0.00  0.00    +0.145 HD
ATOM     38  H   UNK A  0       24.309 -31.820   7.808  0.00  0.00    +0.145 HD
ENDBRANCH  24  36
ENDBRANCH  23  34
ENDBRANCH  22  23
ENDBRANCH   1  22
TORSDOF 12
ENDMDL
MODEL 6
REMARK VINA RESULT:      -9.3      4.143      7.284
REMARK  Name = *****
REMARK                            x       y       z     vdW  Elec       q    Type
REMARK                         _______ _______ _______ _____ _____    ______ ____
ROOT
ATOM      1  C   UNK A  0       29.959 -19.536   6.842  0.00  0.00    -0.047 A 
ATOM      2  C   UNK A  0       29.268 -18.909   5.794  0.00  0.00    +0.004 A 
ATOM      3  C   UNK A  0       28.005 -19.367   5.376  0.00  0.00    +0.013 A 
ATOM      4  C   UNK A  0       27.391 -20.450   6.020  0.00  0.00    +0.037 A 
ATOM      5  C   UNK A  0       28.050 -21.038   7.108  0.00  0.00    +0.013 A 
ATOM      6  C   UNK A  0       29.332 -20.608   7.493  0.00  0.00    +0.004 A 
ENDROOT
BRANCH   4   7
ATOM      7  C   UNK A  0       26.081 -21.039   5.568  0.00  0.00    +0.245 C 
ATOM      8  N   GLU A  1       25.655 -22.178   6.217  0.00  0.00    -0.298 N 
ATOM      9  H   GLU A  1       26.230 -22.530   6.969  0.00  0.00    +0.150 HD
ATOM     10  O   UNK A  0       25.367 -20.477   4.745  0.00  0.00    -0.270 OA
BRANCH   8  11
ATOM     11  CA  GLU A  1       24.378 -22.873   5.950  0.00  0.00    +0.182 C 
BRANCH  11  12
ATOM     12  C   GLU A  1       23.116 -22.233   6.579  0.00  0.00    +0.325 C 
ATOM     13  O   GLU A  1       23.069 -21.776   7.716  0.00  0.00    -0.249 OA
BRANCH  12  14
ATOM     14  OXT GLU A  1       21.999 -22.346   5.820  0.00  0.00    -0.479 OA
ATOM     15  HXT GLU A  1       21.615 -23.252   5.843  0.00  0.00    +0.295 HD
ENDBRANCH  12  14
ENDBRANCH  11  12
BRANCH  11  16
ATOM     16  CB  GLU A  1       24.485 -24.373   6.300  0.00  0.00    +0.045 C 
BRANCH  16  17
ATOM     17  CG  GLU A  1       25.502 -25.167   5.466  0.00  0.00    +0.123 C 
BRANCH  17  18
ATOM     18  CD  GLU A  1       25.404 -26.663   5.635  0.00  0.00    +0.305 C 
ATOM     19  OE1 GLU A  1       24.405 -27.271   5.987  0.00  0.00    -0.251 OA
BRANCH  18  20
ATOM     20  OE2 GLU A  1       26.569 -27.318   5.481  0.00  0.00    -0.481 OA
ATOM     21  HE2 GLU A  1       27.185 -26.623   5.162  0.00  0.00    +0.295 HD
ENDBRANCH  18  20
ENDBRANCH  17  18
ENDBRANCH  16  17
ENDBRANCH  11  16
ENDBRANCH   8  11
ENDBRANCH   4   7
BRANCH   1  22
ATOM     22  C   UNK A  0       31.319 -19.030   7.296  0.00  0.00    +0.040 C 
BRANCH  22  23
ATOM     23  C   UNK A  0       31.274 -17.680   8.025  0.00  0.00    +0.042 C 
BRANCH  23  34
ATOM     24  C   UNK A  0       32.563 -15.705  12.809  0.00  0.00    +0.195 C 
ATOM     25  N   UNK A  0       32.974 -15.176  11.603  0.00  0.00    -0.295 N 
ATOM     26  H   UNK A  0       33.518 -14.331  11.584  0.00  0.00    +0.172 HD
ATOM     27  C   UNK A  0       32.639 -15.705  10.374  0.00  0.00    +0.262 C 
ATOM     28  O   UNK A  0       33.025 -15.204   9.309  0.00  0.00    -0.267 OA
ATOM     29  C   UNK A  0       31.841 -16.900  10.466  0.00  0.00    +0.086 C 
ATOM     30  C   UNK A  0       31.512 -17.337  11.730  0.00  0.00    +0.147 C 
ATOM     31  N   UNK A  0       30.802 -18.492  11.607  0.00  0.00    -0.345 NA
ATOM     32  H   UNK A  0       30.431 -19.014  12.388  0.00  0.00    +0.167 HD
ATOM     33  C   UNK A  0       30.711 -18.826  10.276  0.00  0.00    +0.088 C 
ATOM     34  C   UNK A  0       31.272 -17.804   9.522  0.00  0.00    -0.015 C 
ATOM     35  N   UNK A  0       31.829 -16.777  12.918  0.00  0.00    -0.198 NA
BRANCH  24  36
ATOM     36  N   UNK A  0       32.971 -15.057  13.930  0.00  0.00    -0.329 NA
ATOM     37  H   UNK A  0       32.431 -14.245  14.201  0.00  0.00    +0.145 HD
ATOM     38  H   UNK A  0       33.968 -14.863  13.897  0.00  0.00    +0.145 HD
ENDBRANCH  24  36
ENDBRANCH  23  34
ENDBRANCH  22  23
ENDBRANCH   1  22
TORSDOF 12
ENDMDL
MODEL 7
REMARK VINA RESULT:      -9.2      2.832      9.128
REMARK  Name = *****
REMARK                            x       y       z     vdW  Elec       q    Type
REMARK                         _______ _______ _______ _____ _____    ______ ____
ROOT
ATOM      1  C   UNK A  0       24.590 -25.570   6.415  0.00  0.00    -0.047 A 
ATOM      2  C   UNK A  0       25.959 -25.348   6.623  0.00  0.00    +0.004 A 
ATOM      3  C   UNK A  0       26.457 -24.060   6.888  0.00  0.00    +0.013 A 
ATOM      4  C   UNK A  0       25.588 -22.964   6.980  0.00  0.00    +0.037 A 
ATOM      5  C   UNK A  0       24.213 -23.193   6.836  0.00  0.00    +0.013 A 
ATOM      6  C   UNK A  0       23.723 -24.474   6.525  0.00  0.00    +0.004 A 
ENDROOT
BRANCH   4   7
ATOM      7  C   UNK A  0       26.066 -21.551   7.180  0.00  0.00    +0.245 C 
ATOM      8  N   GLU A  1       27.418 -21.325   7.034  0.00  0.00    -0.298 N 
ATOM      9  H   GLU A  1       27.997 -22.112   6.777  0.00  0.00    +0.150 HD
ATOM     10  O   UNK A  0       25.285 -20.620   7.351  0.00  0.00    -0.270 OA
BRANCH   8  11
ATOM     11  CA  GLU A  1       28.069 -20.002   7.143  0.00  0.00    +0.182 C 
BRANCH  11  12
ATOM     12  C   GLU A  1       28.487 -19.343   5.806  0.00  0.00    +0.325 C 
ATOM     13  O   GLU A  1       29.444 -18.588   5.680  0.00  0.00    -0.249 OA
BRANCH  12  14
ATOM     14  OXT GLU A  1       27.615 -19.549   4.790  0.00  0.00    -0.479 OA
ATOM     15  HXT GLU A  1       27.950 -20.195   4.127  0.00  0.00    +0.295 HD
ENDBRANCH  12  14
ENDBRANCH  11  12
BRANCH  11  16
ATOM     16  CB  GLU A  1       29.245 -20.050   8.143  0.00  0.00    +0.045 C 
BRANCH  16  17
ATOM     17  CG  GLU A  1       29.932 -21.417   8.278  0.00  0.00    +0.123 C 
BRANCH  17  18
ATOM     18  CD  GLU A  1       31.331 -21.352   8.838  0.00  0.00    +0.305 C 
ATOM     19  OE1 GLU A  1       31.866 -20.350   9.287  0.00  0.00    -0.251 OA
BRANCH  18  20
ATOM     20  OE2 GLU A  1       32.038 -22.488   8.703  0.00  0.00    -0.481 OA
ATOM     21  HE2 GLU A  1       32.971 -22.194   8.795  0.00  0.00    +0.295 HD
ENDBRANCH  18  20
ENDBRANCH  17  18
ENDBRANCH  16  17
ENDBRANCH  11  16
ENDBRANCH   8  11
ENDBRANCH   4   7
BRANCH   1  22
ATOM     22  C   UNK A  0       24.056 -26.967   6.139  0.00  0.00    +0.040 C 
BRANCH  22  23
ATOM     23  C   UNK A  0       25.144 -28.041   6.015  0.00  0.00    +0.042 C 
BRANCH  23  34
ATOM     24  C   UNK A  0       25.427 -31.085  10.386  0.00  0.00    +0.195 C 
ATOM     25  N   UNK A  0       26.112 -29.901  10.207  0.00  0.00    -0.295 N 
ATOM     26  H   UNK A  0       26.677 -29.529  10.950  0.00  0.00    +0.172 HD
ATOM     27  C   UNK A  0       26.035 -29.130   9.065  0.00  0.00    +0.262 C 
ATOM     28  O   UNK A  0       26.662 -28.070   8.937  0.00  0.00    -0.267 OA
ATOM     29  C   UNK A  0       25.192 -29.701   8.048  0.00  0.00    +0.086 C 
ATOM     30  C   UNK A  0       24.579 -30.898   8.343  0.00  0.00    +0.147 C 
ATOM     31  N   UNK A  0       23.870 -31.292   7.249  0.00  0.00    -0.345 NA
ATOM     32  H   UNK A  0       23.318 -32.137   7.206  0.00  0.00    +0.167 HD
ATOM     33  C   UNK A  0       24.060 -30.380   6.237  0.00  0.00    +0.088 C 
ATOM     34  C   UNK A  0       24.810 -29.321   6.728  0.00  0.00    -0.015 C 
ATOM     35  N   UNK A  0       24.649 -31.615   9.485  0.00  0.00    -0.198 NA
BRANCH  24  36
ATOM     36  N   UNK A  0       25.604 -31.717  11.574  0.00  0.00    -0.329 NA
ATOM     37  H   UNK A  0       24.889 -31.565  12.274  0.00  0.00    +0.145 HD
ATOM     38  H   UNK A  0       26.539 -31.557  11.938  0.00  0.00    +0.145 HD
ENDBRANCH  24  36
ENDBRANCH  23  34
ENDBRANCH  22  23
ENDBRANCH   1  22
TORSDOF 12
ENDMDL
MODEL 8
REMARK VINA RESULT:      -9.0      4.026      6.963
REMARK  Name = *****
REMARK                            x       y       z     vdW  Elec       q    Type
REMARK                         _______ _______ _______ _____ _____    ______ ____
ROOT
ATOM      1  C   UNK A  0       29.372 -19.246   6.811  0.00  0.00    -0.047 A 
ATOM      2  C   UNK A  0       28.962 -20.328   7.604  0.00  0.00    +0.004 A 
ATOM      3  C   UNK A  0       27.821 -21.082   7.276  0.00  0.00    +0.013 A 
ATOM      4  C   UNK A  0       27.078 -20.786   6.125  0.00  0.00    +0.037 A 
ATOM      5  C   UNK A  0       27.521 -19.746   5.296  0.00  0.00    +0.013 A 
ATOM      6  C   UNK A  0       28.635 -18.965   5.652  0.00  0.00    +0.004 A 
ENDROOT
BRANCH   4   7
ATOM      7  C   UNK A  0       25.803 -21.501   5.763  0.00  0.00    +0.245 C 
ATOM      8  N   GLU A  1       25.586 -22.724   6.360  0.00  0.00    -0.298 N 
ATOM      9  H   GLU A  1       26.278 -23.051   7.019  0.00  0.00    +0.150 HD
ATOM     10  O   UNK A  0       24.942 -20.979   5.064  0.00  0.00    -0.270 OA
BRANCH   8  11
ATOM     11  CA  GLU A  1       24.377 -23.553   6.170  0.00  0.00    +0.182 C 
BRANCH  11  12
ATOM     12  C   GLU A  1       23.083 -23.021   6.832  0.00  0.00    +0.325 C 
ATOM     13  O   GLU A  1       23.053 -22.109   7.652  0.00  0.00    -0.249 OA
BRANCH  12  14
ATOM     14  OXT GLU A  1       21.974 -23.745   6.547  0.00  0.00    -0.479 OA
ATOM     15  HXT GLU A  1       22.061 -24.691   6.807  0.00  0.00    +0.295 HD
ENDBRANCH  12  14
ENDBRANCH  11  12
BRANCH  11  16
ATOM     16  CB  GLU A  1       24.650 -25.022   6.562  0.00  0.00    +0.045 C 
BRANCH  16  17
ATOM     17  CG  GLU A  1       26.042 -25.550   6.183  0.00  0.00    +0.123 C 
BRANCH  17  18
ATOM     18  CD  GLU A  1       26.019 -26.745   5.262  0.00  0.00    +0.305 C 
ATOM     19  OE1 GLU A  1       25.016 -27.341   4.904  0.00  0.00    -0.251 OA
BRANCH  18  20
ATOM     20  OE2 GLU A  1       27.234 -27.216   4.933  0.00  0.00    -0.481 OA
ATOM     21  HE2 GLU A  1       27.434 -27.863   5.644  0.00  0.00    +0.295 HD
ENDBRANCH  18  20
ENDBRANCH  17  18
ENDBRANCH  16  17
ENDBRANCH  11  16
ENDBRANCH   8  11
ENDBRANCH   4   7
BRANCH   1  22
ATOM     22  C   UNK A  0       30.612 -18.441   7.165  0.00  0.00    +0.040 C 
BRANCH  22  23
ATOM     23  C   UNK A  0       31.142 -18.696   8.582  0.00  0.00    +0.042 C 
BRANCH  23  34
ATOM     24  C   UNK A  0       32.486 -15.933  12.943  0.00  0.00    +0.195 C 
ATOM     25  N   UNK A  0       31.673 -17.047  12.938  0.00  0.00    -0.295 N 
ATOM     26  H   UNK A  0       31.330 -17.423  13.804  0.00  0.00    +0.172 HD
ATOM     27  C   UNK A  0       31.327 -17.746  11.799  0.00  0.00    +0.262 C 
ATOM     28  O   UNK A  0       30.596 -18.745  11.830  0.00  0.00    -0.267 OA
ATOM     29  C   UNK A  0       31.869 -17.174  10.593  0.00  0.00    +0.086 C 
ATOM     30  C   UNK A  0       32.650 -16.048  10.732  0.00  0.00    +0.147 C 
ATOM     31  N   UNK A  0       33.025 -15.638   9.488  0.00  0.00    -0.345 NA
ATOM     32  H   UNK A  0       33.613 -14.836   9.310  0.00  0.00    +0.167 HD
ATOM     33  C   UNK A  0       32.452 -16.464   8.549  0.00  0.00    +0.088 C 
ATOM     34  C   UNK A  0       31.793 -17.494   9.207  0.00  0.00    -0.015 C 
ATOM     35  N   UNK A  0       32.998 -15.405  11.867  0.00  0.00    -0.198 NA
BRANCH  24  36
ATOM     36  N   UNK A  0       32.738 -15.368  14.151  0.00  0.00    -0.329 NA
ATOM     37  H   UNK A  0       33.684 -15.457  14.499  0.00  0.00    +0.145 HD
ATOM     38  H   UNK A  0       32.047 -15.653  14.839  0.00  0.00    +0.145 HD
ENDBRANCH  24  36
ENDBRANCH  23  34
ENDBRANCH  22  23
ENDBRANCH   1  22
TORSDOF 12
ENDMDL
MODEL 9
REMARK VINA RESULT:      -8.9      1.503      3.272
REMARK  Name = *****
REMARK                            x       y       z     vdW  Elec       q    Type
REMARK                         _______ _______ _______ _____ _____    ______ ____
ROOT
ATOM      1  C   UNK A  0       24.921 -24.753   5.960  0.00  0.00    -0.047 A 
ATOM      2  C   UNK A  0       25.896 -25.277   6.822  0.00  0.00    +0.004 A 
ATOM      3  C   UNK A  0       25.928 -26.646   7.141  0.00  0.00    +0.013 A 
ATOM      4  C   UNK A  0       24.997 -27.531   6.579  0.00  0.00    +0.037 A 
ATOM      5  C   UNK A  0       24.062 -27.022   5.667  0.00  0.00    +0.013 A 
ATOM      6  C   UNK A  0       24.004 -25.646   5.386  0.00  0.00    +0.004 A 
ENDROOT
BRANCH   4   7
ATOM      7  C   UNK A  0       24.927 -28.990   6.943  0.00  0.00    +0.245 C 
ATOM      8  N   GLU A  1       25.969 -29.495   7.691  0.00  0.00    -0.298 N 
ATOM      9  H   GLU A  1       26.697 -28.853   7.969  0.00  0.00    +0.150 HD
ATOM     10  O   UNK A  0       23.943 -29.675   6.689  0.00  0.00    -0.270 OA
BRANCH   8  11
ATOM     11  CA  GLU A  1       26.057 -30.885   8.185  0.00  0.00    +0.182 C 
BRANCH  11  12
ATOM     12  C   GLU A  1       26.972 -31.108   9.414  0.00  0.00    +0.325 C 
ATOM     13  O   GLU A  1       27.536 -30.207  10.026  0.00  0.00    -0.249 OA
BRANCH  12  14
ATOM     14  OXT GLU A  1       27.231 -32.410   9.684  0.00  0.00    -0.479 OA
ATOM     15  HXT GLU A  1       28.164 -32.660   9.495  0.00  0.00    +0.295 HD
ENDBRANCH  12  14
ENDBRANCH  11  12
BRANCH  11  16
ATOM     16  CB  GLU A  1       26.406 -31.856   7.036  0.00  0.00    +0.045 C 
BRANCH  16  17
ATOM     17  CG  GLU A  1       25.289 -32.836   6.648  0.00  0.00    +0.123 C 
BRANCH  17  18
ATOM     18  CD  GLU A  1       24.927 -32.811   5.183  0.00  0.00    +0.305 C 
ATOM     19  OE1 GLU A  1       24.689 -33.793   4.497  0.00  0.00    -0.251 OA
BRANCH  18  20
ATOM     20  OE2 GLU A  1       24.997 -31.595   4.614  0.00  0.00    -0.481 OA
ATOM     21  HE2 GLU A  1       24.334 -31.067   5.111  0.00  0.00    +0.295 HD
ENDBRANCH  18  20
ENDBRANCH  17  18
ENDBRANCH  16  17
ENDBRANCH  11  16
ENDBRANCH   8  11
ENDBRANCH   4   7
BRANCH   1  22
ATOM     22  C   UNK A  0       24.898 -23.273   5.610  0.00  0.00    +0.040 C 
BRANCH  22  23
ATOM     23  C   UNK A  0       25.501 -22.365   6.688  0.00  0.00    +0.042 C 
BRANCH  23  34
ATOM     24  C   UNK A  0       29.750 -19.148   6.934  0.00  0.00    +0.195 C 
ATOM     25  N   UNK A  0       29.407 -20.073   7.898  0.00  0.00    -0.295 N 
ATOM     26  H   UNK A  0       30.003 -20.213   8.695  0.00  0.00    +0.172 HD
ATOM     27  C   UNK A  0       28.299 -20.892   7.824  0.00  0.00    +0.262 C 
ATOM     28  O   UNK A  0       28.021 -21.714   8.707  0.00  0.00    -0.267 OA
ATOM     29  C   UNK A  0       27.499 -20.663   6.649  0.00  0.00    +0.086 C 
ATOM     30  C   UNK A  0       27.939 -19.696   5.771  0.00  0.00    +0.147 C 
ATOM     31  N   UNK A  0       27.033 -19.599   4.759  0.00  0.00    -0.345 NA
ATOM     32  H   UNK A  0       27.124 -18.967   3.976  0.00  0.00    +0.167 HD
ATOM     33  C   UNK A  0       25.990 -20.462   5.004  0.00  0.00    +0.088 C 
ATOM     34  C   UNK A  0       26.289 -21.212   6.133  0.00  0.00    -0.015 C 
ATOM     35  N   UNK A  0       29.049 -18.932   5.856  0.00  0.00    -0.198 NA
BRANCH  24  36
ATOM     36  N   UNK A  0       30.880 -18.429   7.153  0.00  0.00    -0.329 NA
ATOM     37  H   UNK A  0       31.095 -17.712   6.473  0.00  0.00    +0.145 HD
ATOM     38  H   UNK A  0       31.672 -19.039   7.334  0.00  0.00    +0.145 HD
ENDBRANCH  24  36
ENDBRANCH  23  34
ENDBRANCH  22  23
ENDBRANCH   1  22
TORSDOF 12
ENDMDL
