MODEL 1
REMARK VINA RESULT:      -1.1      0.000      0.000
REMARK  Name = *****
REMARK                            x       y       z     vdW  Elec       q    Type
REMARK                         _______ _______ _______ _____ _____    ______ ____
ROOT
ATOM      1  C   LIG    1       27.451 -16.940   4.146  0.00  0.00    -0.000 C 
ATOM      2  C   LIG    1       27.902 -18.060   4.783  0.00  0.00    -0.066 C 
ATOM      3  C   LIG    1       27.427 -19.483   4.478  0.00  0.00    +0.021 C 
ATOM      4  C   LIG    1       26.149 -19.682   3.644  0.00  0.00    +0.009 C 
ATOM      5  C   LIG    1       25.576 -21.019   4.096  0.00  0.00    +0.005 C 
ATOM      6  C   LIG    1       25.809 -21.054   5.615  0.00  0.00    +0.002 C 
ATOM      7  C   LIG    1       27.245 -20.409   5.745  0.00  0.00    -0.022 C 
ATOM      8  C   LIG    1       28.284 -21.571   5.642  0.00  0.00    +0.012 C 
ATOM      9  C   LIG    1       27.520 -19.659   7.062  0.00  0.00    +0.008 C 
ATOM     10  C   LIG    1       28.812 -18.860   7.058  0.00  0.00    +0.005 C 
ATOM     11  C   LIG    1       29.034 -18.024   5.793  0.00  0.00    +0.031 C 
ENDROOT
BRANCH   1  19
ATOM     12  C   LIG    1       24.761 -14.462   4.440  0.00  0.00    +0.015 C 
ATOM     13  C   LIG    1       25.878 -14.231   3.711  0.00  0.00    -0.023 C 
ATOM     14  C   LIG    1       25.915 -13.495   2.383  0.00  0.00    +0.147 C 
ATOM     15  C   LIG    1       26.500 -12.095   2.600  0.00  0.00    +0.067 C 
ATOM     16  C   LIG    1       27.843 -12.141   3.337  0.00  0.00    +0.122 C 
ATOM     17  C   LIG    1       27.852 -13.076   4.568  0.00  0.00    +0.067 C 
ATOM     18  C   LIG    1       27.205 -14.418   4.262  0.00  0.00    -0.040 C 
ATOM     19  C   LIG    1       27.878 -15.582   4.442  0.00  0.00    +0.004 C 
BRANCH  14  20
ATOM     20  O   LIG    1       24.604 -13.345   1.819  0.00  0.00    -0.387 OA
ATOM     21  H   LIG    1       24.556 -13.980   1.082  0.00  0.00    +0.210 HD
ENDBRANCH  14  20
BRANCH  16  22
ATOM     22  O   LIG    1       28.880 -12.520   2.429  0.00  0.00    -0.391 OA
ATOM     23  H   LIG    1       29.187 -13.410   2.673  0.00  0.00    +0.210 HD
ENDBRANCH  16  22
ENDBRANCH   1  19
BRANCH   6  24
ATOM     24  C   LIG    1       24.588 -20.484   6.430  0.00  0.00    +0.012 C 
ATOM     25  C   LIG    1       23.642 -21.537   7.015  0.00  0.00    +0.012 C 
BRANCH  24  26
ATOM     26  C   LIG    1       23.845 -19.425   5.642  0.00  0.00    -0.027 C 
ATOM     27  C   LIG    1       22.748 -19.582   4.879  0.00  0.00    -0.027 C 
BRANCH  27  28
ATOM     28  C   LIG    1       22.096 -18.493   4.031  0.00  0.00    +0.011 C 
ATOM     29  C   LIG    1       21.935 -17.163   4.793  0.00  0.00    +0.012 C 
BRANCH  28  30
ATOM     30  C   LIG    1       20.771 -19.003   3.398  0.00  0.00    -0.011 C 
ATOM     31  C   LIG    1       19.710 -17.898   3.290  0.00  0.00    +0.008 C 
ATOM     32  C   LIG    1       20.193 -20.214   4.135  0.00  0.00    +0.008 C 
ENDBRANCH  28  30
ENDBRANCH  27  28
ENDBRANCH  24  26
ENDBRANCH   6  24
TORSDOF 7
ENDMDL
MODEL 2
REMARK VINA RESULT:       1.6      2.795      7.847
REMARK  Name = *****
REMARK                            x       y       z     vdW  Elec       q    Type
REMARK                         _______ _______ _______ _____ _____    ______ ____
ROOT
ATOM      1  C   LIG    1       23.522 -16.476   3.829  0.00  0.00    -0.000 C 
ATOM      2  C   LIG    1       23.546 -15.133   4.073  0.00  0.00    -0.066 C 
ATOM      3  C   LIG    1       24.278 -14.105   3.206  0.00  0.00    +0.021 C 
ATOM      4  C   LIG    1       25.316 -14.596   2.181  0.00  0.00    +0.009 C 
ATOM      5  C   LIG    1       26.306 -13.449   2.027  0.00  0.00    +0.005 C 
ATOM      6  C   LIG    1       26.475 -12.882   3.446  0.00  0.00    +0.002 C 
ATOM      7  C   LIG    1       25.000 -12.952   4.009  0.00  0.00    -0.022 C 
ATOM      8  C   LIG    1       24.303 -11.604   3.642  0.00  0.00    +0.012 C 
ATOM      9  C   LIG    1       24.880 -13.136   5.533  0.00  0.00    +0.008 C 
ATOM     10  C   LIG    1       23.467 -13.432   6.008  0.00  0.00    +0.005 C 
ATOM     11  C   LIG    1       22.731 -14.491   5.180  0.00  0.00    +0.031 C 
ENDROOT
BRANCH   1  19
ATOM     12  C   LIG    1       25.405 -19.561   4.461  0.00  0.00    +0.015 C 
ATOM     13  C   LIG    1       24.105 -19.574   4.083  0.00  0.00    -0.023 C 
ATOM     14  C   LIG    1       23.484 -20.580   3.131  0.00  0.00    +0.147 C 
ATOM     15  C   LIG    1       22.632 -21.572   3.931  0.00  0.00    +0.067 C 
ATOM     16  C   LIG    1       21.627 -20.860   4.843  0.00  0.00    +0.122 C 
ATOM     17  C   LIG    1       22.231 -19.685   5.646  0.00  0.00    +0.067 C 
ATOM     18  C   LIG    1       23.099 -18.791   4.773  0.00  0.00    -0.040 C 
ATOM     19  C   LIG    1       22.850 -17.463   4.657  0.00  0.00    +0.004 C 
BRANCH  14  20
ATOM     20  O   LIG    1       24.481 -21.328   2.419  0.00  0.00    -0.387 OA
ATOM     21  H   LIG    1       24.944 -20.685   1.852  0.00  0.00    +0.210 HD
ENDBRANCH  14  20
BRANCH  16  22
ATOM     22  O   LIG    1       20.514 -20.402   4.072  0.00  0.00    -0.391 OA
ATOM     23  H   LIG    1       20.718 -20.543   3.131  0.00  0.00    +0.210 HD
ENDBRANCH  16  22
ENDBRANCH   1  19
BRANCH   6  24
ATOM     24  C   LIG    1       27.672 -13.545   4.226  0.00  0.00    +0.012 C 
ATOM     25  C   LIG    1       29.043 -12.903   3.988  0.00  0.00    +0.012 C 
BRANCH  24  26
ATOM     26  C   LIG    1       27.701 -15.044   4.021  0.00  0.00    -0.027 C 
ATOM     27  C   LIG    1       28.260 -15.976   4.816  0.00  0.00    -0.027 C 
BRANCH  27  28
ATOM     28  C   LIG    1       28.339 -17.469   4.511  0.00  0.00    +0.011 C 
ATOM     29  C   LIG    1       27.199 -17.949   3.591  0.00  0.00    +0.012 C 
BRANCH  28  30
ATOM     30  C   LIG    1       28.462 -18.297   5.820  0.00  0.00    -0.011 C 
ATOM     31  C   LIG    1       29.475 -17.692   6.803  0.00  0.00    +0.008 C 
ATOM     32  C   LIG    1       28.800 -19.767   5.560  0.00  0.00    +0.008 C 
ENDBRANCH  28  30
ENDBRANCH  27  28
ENDBRANCH  24  26
ENDBRANCH   6  24
TORSDOF 7
ENDMDL
