MODEL 1
REMARK VINA RESULT:      -5.6      0.000      0.000
REMARK  Name = *****
REMARK                            x       y       z     vdW  Elec       q    Type
REMARK                         _______ _______ _______ _____ _____    ______ ____
ROOT
ATOM      1  C   LIG    1       31.113 -19.096   7.864  0.00  0.00    +0.161 A 
ATOM      2  C   LIG    1       31.140 -20.355   8.477  0.00  0.00    +0.158 A 
ATOM      3  C   LIG    1       30.101 -21.270   8.261  0.00  0.00    +0.049 A 
ATOM      4  C   LIG    1       29.028 -20.935   7.436  0.00  0.00    +0.004 A 
ATOM      5  C   LIG    1       28.989 -19.686   6.824  0.00  0.00    +0.004 A 
ATOM      6  C   LIG    1       30.026 -18.777   7.040  0.00  0.00    +0.049 A 
ENDROOT
BRANCH   1   8
ATOM      7  C   LIG    1       31.976 -17.229   9.087  0.00  0.00    +0.277 C 
ATOM      8  O   LIG    1       32.027 -18.082   7.953  0.00  0.00    -0.491 OA
ENDBRANCH   1   8
BRANCH   2   9
ATOM      9  O   LIG    1       32.169 -20.731   9.296  0.00  0.00    -0.503 OA
ATOM     10  H   LIG    1       32.679 -19.945   9.545  0.00  0.00    +0.292 HD
ENDBRANCH   2   9
TORSDOF 2
ENDMDL
MODEL 2
REMARK VINA RESULT:      -5.5      6.905      8.080
REMARK  Name = *****
REMARK                            x       y       z     vdW  Elec       q    Type
REMARK                         _______ _______ _______ _____ _____    ______ ____
ROOT
ATOM      1  C   LIG    1       23.907 -22.559   7.219  0.00  0.00    +0.161 A 
ATOM      2  C   LIG    1       23.264 -23.705   6.735  0.00  0.00    +0.158 A 
ATOM      3  C   LIG    1       24.001 -24.858   6.435  0.00  0.00    +0.049 A 
ATOM      4  C   LIG    1       25.385 -24.876   6.614  0.00  0.00    +0.004 A 
ATOM      5  C   LIG    1       26.034 -23.743   7.093  0.00  0.00    +0.004 A 
ATOM      6  C   LIG    1       25.298 -22.596   7.391  0.00  0.00    +0.049 A 
ENDROOT
BRANCH   1   8
ATOM      7  C   LIG    1       23.176 -20.383   6.545  0.00  0.00    +0.277 C 
ATOM      8  O   LIG    1       23.361 -21.353   7.564  0.00  0.00    -0.491 OA
ENDBRANCH   1   8
BRANCH   2   9
ATOM      9  O   LIG    1       21.910 -23.738   6.540  0.00  0.00    -0.503 OA
ATOM     10  H   LIG    1       21.517 -24.377   7.154  0.00  0.00    +0.292 HD
ENDBRANCH   2   9
TORSDOF 2
ENDMDL
MODEL 3
REMARK VINA RESULT:      -5.5      5.888      7.251
REMARK  Name = *****
REMARK                            x       y       z     vdW  Elec       q    Type
REMARK                         _______ _______ _______ _____ _____    ______ ____
ROOT
ATOM      1  C   LIG    1       24.530 -20.602   5.807  0.00  0.00    +0.161 A 
ATOM      2  C   LIG    1       25.174 -20.105   4.666  0.00  0.00    +0.158 A 
ATOM      3  C   LIG    1       24.473 -19.316   3.745  0.00  0.00    +0.049 A 
ATOM      4  C   LIG    1       23.126 -19.019   3.953  0.00  0.00    +0.004 A 
ATOM      5  C   LIG    1       22.476 -19.508   5.081  0.00  0.00    +0.004 A 
ATOM      6  C   LIG    1       23.176 -20.294   5.997  0.00  0.00    +0.049 A 
ENDROOT
BRANCH   1   8
ATOM      7  C   LIG    1       25.643 -20.734   7.921  0.00  0.00    +0.277 C 
ATOM      8  O   LIG    1       25.044 -21.380   6.808  0.00  0.00    -0.491 OA
ENDBRANCH   1   8
BRANCH   2   9
ATOM      9  O   LIG    1       26.492 -20.370   4.416  0.00  0.00    -0.503 OA
ATOM     10  H   LIG    1       26.660 -21.313   4.567  0.00  0.00    +0.292 HD
ENDBRANCH   2   9
TORSDOF 2
ENDMDL
MODEL 4
REMARK VINA RESULT:      -5.5      7.408      8.851
REMARK  Name = *****
REMARK                            x       y       z     vdW  Elec       q    Type
REMARK                         _______ _______ _______ _____ _____    ______ ____
ROOT
ATOM      1  C   LIG    1       24.120 -24.739   6.479  0.00  0.00    +0.161 A 
ATOM      2  C   LIG    1       23.297 -23.638   6.750  0.00  0.00    +0.158 A 
ATOM      3  C   LIG    1       23.850 -22.440   7.219  0.00  0.00    +0.049 A 
ATOM      4  C   LIG    1       25.226 -22.330   7.422  0.00  0.00    +0.004 A 
ATOM      5  C   LIG    1       26.053 -23.417   7.158  0.00  0.00    +0.004 A 
ATOM      6  C   LIG    1       25.500 -24.610   6.690  0.00  0.00    +0.049 A 
ENDROOT
BRANCH   1   8
ATOM      7  C   LIG    1       24.772 -26.978   5.941  0.00  0.00    +0.277 C 
ATOM      8  O   LIG    1       23.767 -25.978   6.020  0.00  0.00    -0.491 OA
ENDBRANCH   1   8
BRANCH   2   9
ATOM      9  O   LIG    1       21.943 -23.695   6.570  0.00  0.00    -0.503 OA
ATOM     10  H   LIG    1       21.753 -23.787   5.623  0.00  0.00    +0.292 HD
ENDBRANCH   2   9
TORSDOF 2
ENDMDL
MODEL 5
REMARK VINA RESULT:      -5.2      5.217      6.607
REMARK  Name = *****
REMARK                            x       y       z     vdW  Elec       q    Type
REMARK                         _______ _______ _______ _____ _____    ______ ____
ROOT
ATOM      1  C   LIG    1       24.818 -20.779   6.215  0.00  0.00    +0.161 A 
ATOM      2  C   LIG    1       26.064 -20.480   5.649  0.00  0.00    +0.158 A 
ATOM      3  C   LIG    1       27.189 -20.311   6.466  0.00  0.00    +0.049 A 
ATOM      4  C   LIG    1       27.080 -20.435   7.851  0.00  0.00    +0.004 A 
ATOM      5  C   LIG    1       25.848 -20.730   8.424  0.00  0.00    +0.004 A 
ATOM      6  C   LIG    1       24.728 -20.899   7.608  0.00  0.00    +0.049 A 
ENDROOT
BRANCH   1   8
ATOM      7  C   LIG    1       22.737 -19.875   5.455  0.00  0.00    +0.277 C 
ATOM      8  O   LIG    1       23.620 -20.979   5.586  0.00  0.00    -0.491 OA
ENDBRANCH   1   8
BRANCH   2   9
ATOM      9  O   LIG    1       26.224 -20.346   4.298  0.00  0.00    -0.503 OA
ATOM     10  H   LIG    1       26.126 -19.411   4.059  0.00  0.00    +0.292 HD
ENDBRANCH   2   9
TORSDOF 2
ENDMDL
MODEL 6
REMARK VINA RESULT:      -5.2      3.766      4.758
REMARK  Name = *****
REMARK                            x       y       z     vdW  Elec       q    Type
REMARK                         _______ _______ _______ _____ _____    ______ ____
ROOT
ATOM      1  C   LIG    1       27.074 -20.385   7.541  0.00  0.00    +0.161 A 
ATOM      2  C   LIG    1       25.868 -20.682   8.188  0.00  0.00    +0.158 A 
ATOM      3  C   LIG    1       24.689 -20.843   7.450  0.00  0.00    +0.049 A 
ATOM      4  C   LIG    1       24.703 -20.707   6.061  0.00  0.00    +0.004 A 
ATOM      5  C   LIG    1       25.894 -20.410   5.408  0.00  0.00    +0.004 A 
ATOM      6  C   LIG    1       27.068 -20.250   6.146  0.00  0.00    +0.049 A 
ENDROOT
BRANCH   1   8
ATOM      7  C   LIG    1       29.314 -21.171   7.841  0.00  0.00    +0.277 C 
ATOM      8  O   LIG    1       28.314 -20.194   8.087  0.00  0.00    -0.491 OA
ENDBRANCH   1   8
BRANCH   2   9
ATOM      9  O   LIG    1       25.801 -20.823   9.547  0.00  0.00    -0.503 OA
ATOM     10  H   LIG    1       24.883 -20.700   9.833  0.00  0.00    +0.292 HD
ENDBRANCH   2   9
TORSDOF 2
ENDMDL
MODEL 7
REMARK VINA RESULT:      -5.2      5.182      6.444
REMARK  Name = *****
REMARK                            x       y       z     vdW  Elec       q    Type
REMARK                         _______ _______ _______ _____ _____    ______ ____
ROOT
ATOM      1  C   LIG    1       25.649 -20.855   6.285  0.00  0.00    +0.161 A 
ATOM      2  C   LIG    1       25.253 -20.382   5.028  0.00  0.00    +0.158 A 
ATOM      3  C   LIG    1       23.910 -20.070   4.780  0.00  0.00    +0.049 A 
ATOM      4  C   LIG    1       22.953 -20.230   5.783  0.00  0.00    +0.004 A 
ATOM      5  C   LIG    1       23.334 -20.701   7.034  0.00  0.00    +0.004 A 
ATOM      6  C   LIG    1       24.673 -21.010   7.279  0.00  0.00    +0.049 A 
ENDROOT
BRANCH   1   8
ATOM      7  C   LIG    1       27.596 -20.313   7.566  0.00  0.00    +0.277 C 
ATOM      8  O   LIG    1       26.901 -21.207   6.711  0.00  0.00    -0.491 OA
ENDBRANCH   1   8
BRANCH   2   9
ATOM      9  O   LIG    1       26.151 -20.210   4.012  0.00  0.00    -0.503 OA
ATOM     10  H   LIG    1       26.593 -19.354   4.121  0.00  0.00    +0.292 HD
ENDBRANCH   2   9
TORSDOF 2
ENDMDL
MODEL 8
REMARK VINA RESULT:      -5.2      6.133      7.463
REMARK  Name = *****
REMARK                            x       y       z     vdW  Elec       q    Type
REMARK                         _______ _______ _______ _____ _____    ______ ____
ROOT
ATOM      1  C   LIG    1       23.930 -20.138   5.112  0.00  0.00    +0.161 A 
ATOM      2  C   LIG    1       25.293 -20.442   5.214  0.00  0.00    +0.158 A 
ATOM      3  C   LIG    1       25.806 -21.007   6.389  0.00  0.00    +0.049 A 
ATOM      4  C   LIG    1       24.964 -21.269   7.470  0.00  0.00    +0.004 A 
ATOM      5  C   LIG    1       23.609 -20.969   7.381  0.00  0.00    +0.004 A 
ATOM      6  C   LIG    1       23.101 -20.407   6.209  0.00  0.00    +0.049 A 
ENDROOT
BRANCH   1   8
ATOM      7  C   LIG    1       22.290 -18.582   4.326  0.00  0.00    +0.277 C 
ATOM      8  O   LIG    1       23.253 -19.590   4.057  0.00  0.00    -0.491 OA
ENDBRANCH   1   8
BRANCH   2   9
ATOM      9  O   LIG    1       26.160 -20.203   4.184  0.00  0.00    -0.503 OA
ATOM     10  H   LIG    1       25.667 -19.834   3.435  0.00  0.00    +0.292 HD
ENDBRANCH   2   9
TORSDOF 2
ENDMDL
MODEL 9
REMARK VINA RESULT:      -5.2      4.814      6.171
REMARK  Name = *****
REMARK                            x       y       z     vdW  Elec       q    Type
REMARK                         _______ _______ _______ _____ _____    ______ ____
ROOT
ATOM      1  C   LIG    1       24.964 -20.771   7.332  0.00  0.00    +0.161 A 
ATOM      2  C   LIG    1       26.040 -20.632   8.217  0.00  0.00    +0.158 A 
ATOM      3  C   LIG    1       27.322 -20.340   7.734  0.00  0.00    +0.049 A 
ATOM      4  C   LIG    1       27.540 -20.185   6.364  0.00  0.00    +0.004 A 
ATOM      5  C   LIG    1       26.479 -20.323   5.475  0.00  0.00    +0.004 A 
ATOM      6  C   LIG    1       25.203 -20.613   5.960  0.00  0.00    +0.049 A 
ENDROOT
BRANCH   1   8
ATOM      7  C   LIG    1       23.103 -22.260   7.113  0.00  0.00    +0.277 C 
ATOM      8  O   LIG    1       23.655 -21.051   7.614  0.00  0.00    -0.491 OA
ENDBRANCH   1   8
BRANCH   2   9
ATOM      9  O   LIG    1       25.879 -20.776   9.568  0.00  0.00    -0.503 OA
ATOM     10  H   LIG    1       25.530 -19.949   9.935  0.00  0.00    +0.292 HD
ENDBRANCH   2   9
TORSDOF 2
ENDMDL
