MODEL 1
REMARK VINA RESULT:      -3.5      0.000      0.000
REMARK  Name = *****
REMARK                            x       y       z     vdW  Elec       q    Type
REMARK                         _______ _______ _______ _____ _____    ______ ____
ROOT
ATOM      1  O   LIG    1       21.825 -21.465   5.172  0.00  0.00    -0.271 OA
ATOM      2  C   LIG    1       22.743 -20.793   4.692  0.00  0.00    +0.269 C 
ATOM      3  C   LIG    1       23.856 -21.408   3.805  0.00  0.00    +0.320 C 
ATOM      4  N   LIG    1       25.143 -21.272   4.473  0.00  0.00    -0.243 NA
ATOM      5  C   LIG    1       25.650 -20.102   4.664  0.00  0.00    +0.078 C 
ATOM      6  C   LIG    1       25.040 -18.811   4.221  0.00  0.00    +0.023 A 
ATOM      7  C   LIG    1       23.685 -18.513   4.431  0.00  0.00    +0.043 A 
ATOM      8  C   LIG    1       23.224 -17.209   4.195  0.00  0.00    +0.025 A 
ATOM      9  C   LIG    1       24.080 -16.236   3.675  0.00  0.00    +0.022 A 
ATOM     10  C   LIG    1       25.404 -16.558   3.399  0.00  0.00    +0.042 A 
ATOM     11 CL   LIG    1       26.457 -15.365   2.746  0.00  0.00    -0.084 Cl
ATOM     12  C   LIG    1       25.890 -17.835   3.671  0.00  0.00    +0.032 A 
ATOM     13  N   LIG    1       22.734 -19.434   4.885  0.00  0.00    -0.281 N 
ATOM     14  H   LIG    1       21.852 -19.102   5.255  0.00  0.00    +0.155 HD
ENDROOT
BRANCH   5  15
ATOM     15  C   LIG    1       26.957 -20.053   5.400  0.00  0.00    +0.001 A 
ATOM     16  C   LIG    1       27.883 -19.028   5.162  0.00  0.00    +0.010 A 
ATOM     17  C   LIG    1       29.091 -19.006   5.863  0.00  0.00    +0.001 A 
ATOM     18  C   LIG    1       29.371 -19.993   6.808  0.00  0.00    +0.000 A 
ATOM     19  C   LIG    1       28.441 -21.002   7.062  0.00  0.00    +0.001 A 
ATOM     20  C   LIG    1       27.233 -21.030   6.363  0.00  0.00    +0.010 A 
ENDBRANCH   5  15
BRANCH   3  21
ATOM     21  O   LIG    1       23.848 -20.951   2.467  0.00  0.00    -0.364 OA
ATOM     22  H   LIG    1       22.939 -21.130   2.175  0.00  0.00    +0.212 HD
ENDBRANCH   3  21
TORSDOF 2
ENDMDL
MODEL 2
REMARK VINA RESULT:      -2.9      2.673      4.952
REMARK  Name = *****
REMARK                            x       y       z     vdW  Elec       q    Type
REMARK                         _______ _______ _______ _____ _____    ______ ____
ROOT
ATOM      1  O   LIG    1       26.885 -20.740   5.808  0.00  0.00    -0.271 OA
ATOM      2  C   LIG    1       26.002 -20.235   5.109  0.00  0.00    +0.269 C 
ATOM      3  C   LIG    1       26.269 -19.711   3.674  0.00  0.00    +0.320 C 
ATOM      4  N   LIG    1       26.047 -18.272   3.631  0.00  0.00    -0.243 NA
ATOM      5  C   LIG    1       24.862 -17.796   3.811  0.00  0.00    +0.078 C 
ATOM      6  C   LIG    1       23.628 -18.609   4.037  0.00  0.00    +0.023 A 
ATOM      7  C   LIG    1       23.591 -19.674   4.950  0.00  0.00    +0.043 A 
ATOM      8  C   LIG    1       22.356 -20.253   5.280  0.00  0.00    +0.025 A 
ATOM      9  C   LIG    1       21.184 -19.836   4.647  0.00  0.00    +0.022 A 
ATOM     10  C   LIG    1       21.238 -18.830   3.688  0.00  0.00    +0.042 A 
ATOM     11 CL   LIG    1       19.798 -18.324   2.896  0.00  0.00    -0.084 Cl
ATOM     12  C   LIG    1       22.448 -18.213   3.382  0.00  0.00    +0.032 A 
ATOM     13  N   LIG    1       24.717 -20.209   5.588  0.00  0.00    -0.281 N 
ATOM     14  H   LIG    1       24.598 -20.789   6.410  0.00  0.00    +0.155 HD
ENDROOT
BRANCH   5  15
ATOM     15  C   LIG    1       24.733 -16.301   3.795  0.00  0.00    +0.001 A 
ATOM     16  C   LIG    1       23.609 -15.666   4.339  0.00  0.00    +0.010 A 
ATOM     17  C   LIG    1       23.517 -14.272   4.314  0.00  0.00    +0.001 A 
ATOM     18  C   LIG    1       24.547 -13.513   3.759  0.00  0.00    +0.000 A 
ATOM     19  C   LIG    1       25.678 -14.142   3.237  0.00  0.00    +0.001 A 
ATOM     20  C   LIG    1       25.774 -15.534   3.259  0.00  0.00    +0.010 A 
ENDBRANCH   5  15
BRANCH   3  21
ATOM     21  O   LIG    1       25.593 -20.429   2.660  0.00  0.00    -0.364 OA
ATOM     22  H   LIG    1       25.489 -19.772   1.952  0.00  0.00    +0.212 HD
ENDBRANCH   3  21
TORSDOF 2
ENDMDL
MODEL 3
REMARK VINA RESULT:      -1.7      0.823      1.388
REMARK  Name = *****
REMARK                            x       y       z     vdW  Elec       q    Type
REMARK                         _______ _______ _______ _____ _____    ______ ____
ROOT
ATOM      1  O   LIG    1       21.741 -20.288   4.827  0.00  0.00    -0.271 OA
ATOM      2  C   LIG    1       22.748 -19.728   4.385  0.00  0.00    +0.269 C 
ATOM      3  C   LIG    1       23.821 -20.472   3.549  0.00  0.00    +0.320 C 
ATOM      4  N   LIG    1       25.086 -20.475   4.271  0.00  0.00    -0.243 NA
ATOM      5  C   LIG    1       25.713 -19.367   4.479  0.00  0.00    +0.078 C 
ATOM      6  C   LIG    1       25.271 -18.020   4.004  0.00  0.00    +0.023 A 
ATOM      7  C   LIG    1       23.951 -17.570   4.154  0.00  0.00    +0.043 A 
ATOM      8  C   LIG    1       23.650 -16.225   3.893  0.00  0.00    +0.025 A 
ATOM      9  C   LIG    1       24.631 -15.359   3.406  0.00  0.00    +0.022 A 
ATOM     10  C   LIG    1       25.921 -15.830   3.189  0.00  0.00    +0.042 A 
ATOM     11 CL   LIG    1       27.128 -14.769   2.576  0.00  0.00    -0.084 Cl
ATOM     12  C   LIG    1       26.248 -17.151   3.487  0.00  0.00    +0.032 A 
ATOM     13  N   LIG    1       22.883 -18.375   4.571  0.00  0.00    -0.281 N 
ATOM     14  H   LIG    1       22.030 -17.941   4.901  0.00  0.00    +0.155 HD
ENDROOT
BRANCH   5  15
ATOM     15  C   LIG    1       26.985 -19.458   5.270  0.00  0.00    +0.001 A 
ATOM     16  C   LIG    1       27.187 -20.486   6.200  0.00  0.00    +0.010 A 
ATOM     17  C   LIG    1       28.382 -20.548   6.920  0.00  0.00    +0.001 A 
ATOM     18  C   LIG    1       29.379 -19.597   6.706  0.00  0.00    +0.000 A 
ATOM     19  C   LIG    1       29.189 -18.584   5.765  0.00  0.00    +0.001 A 
ATOM     20  C   LIG    1       27.996 -18.517   5.043  0.00  0.00    +0.010 A 
ENDBRANCH   5  15
BRANCH   3  21
ATOM     21  O   LIG    1       23.922 -20.029   2.210  0.00  0.00    -0.364 OA
ATOM     22  H   LIG    1       23.944 -20.856   1.702  0.00  0.00    +0.212 HD
ENDBRANCH   3  21
TORSDOF 2
ENDMDL
