MODEL 1
REMARK VINA RESULT:      -7.3      0.000      0.000
REMARK  Name = *****
REMARK                            x       y       z     vdW  Elec       q    Type
REMARK                         _______ _______ _______ _____ _____    ______ ____
ROOT
ATOM      1  N   LIG    1       25.027 -21.614   6.874  0.00  0.00    -0.346 NA
ATOM      2  C   LIG    1       26.069 -20.803   6.361  0.00  0.00    +0.055 C 
ATOM      3  C   LIG    1       25.804 -19.958   5.263  0.00  0.00    +0.049 C 
ATOM      4  C   LIG    1       26.795 -19.152   4.699  0.00  0.00    +0.054 C 
ATOM      5  C   LIG    1       28.077 -19.169   5.232  0.00  0.00    +0.145 C 
ATOM      6  C   LIG    1       28.408 -19.973   6.335  0.00  0.00    +0.067 C 
ATOM      7  F   LIG    1       28.981 -18.358   4.662  0.00  0.00    -0.203 F 
ATOM      8  C   LIG    1       24.444 -19.911   4.676  0.00  0.00    +0.203 C 
ATOM      9  O   LIG    1       24.175 -19.177   3.727  0.00  0.00    -0.286 OA
ATOM     10  C   LIG    1       23.398 -20.769   5.262  0.00  0.00    +0.122 C 
ATOM     11  C   LIG    1       27.379 -20.775   6.880  0.00  0.00    +0.052 C 
ATOM     12  C   LIG    1       23.767 -21.549   6.289  0.00  0.00    +0.105 C 
ENDROOT
BRANCH   6  13
ATOM     13  N   LIG    1       29.688 -20.040   6.934  0.00  0.00    -0.325 NA
ATOM     14  C   LIG    1       29.680 -20.831   8.190  0.00  0.00    +0.120 C 
ATOM     15  C   LIG    1       31.111 -20.976   8.773  0.00  0.00    +0.103 C 
ATOM     16  N   LIG    1       31.878 -19.719   8.923  0.00  0.00    -0.302 NA
ATOM     17  C   LIG    1       31.369 -18.904  10.026  0.00  0.00    +0.105 C 
ATOM     18  C   LIG    1       31.838 -18.986   7.637  0.00  0.00    +0.103 C 
ATOM     19  C   LIG    1       30.418 -18.758   7.065  0.00  0.00    +0.120 C 
ENDBRANCH   6  13
BRANCH   1  21
ATOM     20  C   LIG    1       25.687 -23.948   7.342  0.00  0.00    +0.027 C 
ATOM     21  C   LIG    1       25.305 -22.599   7.936  0.00  0.00    +0.118 C 
ENDBRANCH   1  21
BRANCH  10  22
ATOM     22  C   LIG    1       22.005 -20.811   4.775  0.00  0.00    +0.342 C 
ATOM     23  O   LIG    1       21.306 -21.814   4.822  0.00  0.00    -0.245 OA
BRANCH  22  24
ATOM     24  O   LIG    1       21.552 -19.642   4.279  0.00  0.00    -0.477 OA
ATOM     25  H   LIG    1       22.072 -19.295   3.515  0.00  0.00    +0.295 HD
ENDBRANCH  22  24
ENDBRANCH  10  22
TORSDOF 4
ENDMDL
MODEL 2
REMARK VINA RESULT:      -7.1      1.758      3.027
REMARK  Name = *****
REMARK                            x       y       z     vdW  Elec       q    Type
REMARK                         _______ _______ _______ _____ _____    ______ ____
ROOT
ATOM      1  N   LIG    1       25.343 -19.448   4.244  0.00  0.00    -0.346 NA
ATOM      2  C   LIG    1       25.921 -20.072   5.377  0.00  0.00    +0.055 C 
ATOM      3  C   LIG    1       25.093 -20.789   6.265  0.00  0.00    +0.049 C 
ATOM      4  C   LIG    1       25.602 -21.407   7.409  0.00  0.00    +0.054 C 
ATOM      5  C   LIG    1       26.960 -21.326   7.685  0.00  0.00    +0.145 C 
ATOM      6  C   LIG    1       27.847 -20.644   6.836  0.00  0.00    +0.067 C 
ATOM      7  F   LIG    1       27.393 -21.957   8.785  0.00  0.00    -0.203 F 
ATOM      8  C   LIG    1       23.640 -20.901   5.995  0.00  0.00    +0.203 C 
ATOM      9  O   LIG    1       22.891 -21.528   6.741  0.00  0.00    -0.286 OA
ATOM     10  C   LIG    1       23.098 -20.239   4.794  0.00  0.00    +0.122 C 
ATOM     11  C   LIG    1       27.297 -20.031   5.686  0.00  0.00    +0.052 C 
ATOM     12  C   LIG    1       23.974 -19.567   4.032  0.00  0.00    +0.105 C 
ENDROOT
BRANCH   6  13
ATOM     13  N   LIG    1       29.240 -20.523   7.048  0.00  0.00    -0.325 NA
ATOM     14  C   LIG    1       29.655 -21.045   8.374  0.00  0.00    +0.120 C 
ATOM     15  C   LIG    1       31.197 -20.994   8.542  0.00  0.00    +0.103 C 
ATOM     16  N   LIG    1       31.838 -19.695   8.241  0.00  0.00    -0.302 NA
ATOM     17  C   LIG    1       31.561 -18.702   9.279  0.00  0.00    +0.105 C 
ATOM     18  C   LIG    1       31.375 -19.239   6.910  0.00  0.00    +0.103 C 
ATOM     19  C   LIG    1       29.838 -19.204   6.734  0.00  0.00    +0.120 C 
ENDBRANCH   6  13
BRANCH   1  21
ATOM     20  C   LIG    1       25.629 -17.160   3.359  0.00  0.00    +0.027 C 
ATOM     21  C   LIG    1       26.160 -18.587   3.369  0.00  0.00    +0.118 C 
ENDBRANCH   1  21
BRANCH  10  22
ATOM     22  C   LIG    1       21.673 -20.280   4.409  0.00  0.00    +0.342 C 
ATOM     23  O   LIG    1       21.066 -19.311   3.975  0.00  0.00    -0.245 OA
BRANCH  22  24
ATOM     24  O   LIG    1       21.088 -21.485   4.564  0.00  0.00    -0.477 OA
ATOM     25  H   LIG    1       20.158 -21.447   4.891  0.00  0.00    +0.295 HD
ENDBRANCH  22  24
ENDBRANCH  10  22
TORSDOF 4
ENDMDL
MODEL 3
REMARK VINA RESULT:      -6.8      3.878      7.610
REMARK  Name = *****
REMARK                            x       y       z     vdW  Elec       q    Type
REMARK                         _______ _______ _______ _____ _____    ______ ____
ROOT
ATOM      1  N   LIG    1       29.211 -19.545   6.268  0.00  0.00    -0.346 NA
ATOM      2  C   LIG    1       28.042 -20.290   6.559  0.00  0.00    +0.055 C 
ATOM      3  C   LIG    1       28.054 -21.190   7.645  0.00  0.00    +0.049 C 
ATOM      4  C   LIG    1       26.940 -21.968   7.968  0.00  0.00    +0.054 C 
ATOM      5  C   LIG    1       25.782 -21.854   7.210  0.00  0.00    +0.145 C 
ATOM      6  C   LIG    1       25.693 -20.965   6.126  0.00  0.00    +0.067 C 
ATOM      7  F   LIG    1       24.738 -22.610   7.581  0.00  0.00    -0.203 F 
ATOM      8  C   LIG    1       29.271 -21.330   8.478  0.00  0.00    +0.203 C 
ATOM      9  O   LIG    1       29.313 -22.096   9.439  0.00  0.00    -0.286 OA
ATOM     10  C   LIG    1       30.453 -20.519   8.133  0.00  0.00    +0.122 C 
ATOM     11  C   LIG    1       26.840 -20.194   5.829  0.00  0.00    +0.052 C 
ATOM     12  C   LIG    1       30.337 -19.712   7.067  0.00  0.00    +0.105 C 
ENDROOT
BRANCH   6  13
ATOM     13  N   LIG    1       24.549 -20.791   5.313  0.00  0.00    -0.325 NA
ATOM     14  C   LIG    1       24.777 -19.810   4.223  0.00  0.00    +0.120 C 
ATOM     15  C   LIG    1       23.544 -19.711   3.286  0.00  0.00    +0.103 C 
ATOM     16  N   LIG    1       22.241 -19.495   3.952  0.00  0.00    -0.302 NA
ATOM     17  C   LIG    1       22.119 -18.132   4.472  0.00  0.00    +0.105 C 
ATOM     18  C   LIG    1       22.087 -20.505   5.024  0.00  0.00    +0.103 C 
ATOM     19  C   LIG    1       23.267 -20.576   6.023  0.00  0.00    +0.120 C 
ENDBRANCH   6  13
BRANCH   1  21
ATOM     20  C   LIG    1       28.721 -17.303   5.353  0.00  0.00    +0.027 C 
ATOM     21  C   LIG    1       29.271 -18.693   5.066  0.00  0.00    +0.118 C 
ENDBRANCH   1  21
BRANCH  10  22
ATOM     22  C   LIG    1       31.723 -20.560   8.885  0.00  0.00    +0.342 C 
ATOM     23  O   LIG    1       32.334 -19.556   9.227  0.00  0.00    -0.245 OA
BRANCH  22  24
ATOM     24  O   LIG    1       32.157 -21.801   9.179  0.00  0.00    -0.477 OA
ATOM     25  H   LIG    1       31.747 -22.196   9.985  0.00  0.00    +0.295 HD
ENDBRANCH  22  24
ENDBRANCH  10  22
TORSDOF 4
ENDMDL
MODEL 4
REMARK VINA RESULT:      -6.3      6.623      9.393
REMARK  Name = *****
REMARK                            x       y       z     vdW  Elec       q    Type
REMARK                         _______ _______ _______ _____ _____    ______ ____
ROOT
ATOM      1  N   LIG    1       25.488 -29.837   8.335  0.00  0.00    -0.346 NA
ATOM      2  C   LIG    1       25.393 -28.876   7.299  0.00  0.00    +0.055 C 
ATOM      3  C   LIG    1       25.461 -29.304   5.957  0.00  0.00    +0.049 C 
ATOM      4  C   LIG    1       25.396 -28.403   4.893  0.00  0.00    +0.054 C 
ATOM      5  C   LIG    1       25.252 -27.046   5.152  0.00  0.00    +0.145 C 
ATOM      6  C   LIG    1       25.160 -26.550   6.463  0.00  0.00    +0.067 C 
ATOM      7  F   LIG    1       25.173 -26.232   4.090  0.00  0.00    -0.203 F 
ATOM      8  C   LIG    1       25.607 -30.746   5.646  0.00  0.00    +0.203 C 
ATOM      9  O   LIG    1       25.657 -31.156   4.488  0.00  0.00    -0.286 OA
ATOM     10  C   LIG    1       25.688 -31.699   6.768  0.00  0.00    +0.122 C 
ATOM     11  C   LIG    1       25.230 -27.492   7.515  0.00  0.00    +0.052 C 
ATOM     12  C   LIG    1       25.635 -31.179   8.003  0.00  0.00    +0.105 C 
ENDROOT
BRANCH   6  13
ATOM     13  N   LIG    1       25.008 -25.186   6.804  0.00  0.00    -0.325 NA
ATOM     14  C   LIG    1       23.684 -24.649   6.402  0.00  0.00    +0.120 C 
ATOM     15  C   LIG    1       23.503 -23.183   6.877  0.00  0.00    +0.103 C 
ATOM     16  N   LIG    1       24.599 -22.251   6.530  0.00  0.00    -0.302 NA
ATOM     17  C   LIG    1       24.602 -21.927   5.104  0.00  0.00    +0.105 C 
ATOM     18  C   LIG    1       25.882 -22.854   6.957  0.00  0.00    +0.103 C 
ATOM     19  C   LIG    1       26.129 -24.290   6.437  0.00  0.00    +0.120 C 
ENDBRANCH   6  13
BRANCH   1  21
ATOM     20  C   LIG    1       26.989 -29.355  10.237  0.00  0.00    +0.027 C 
ATOM     21  C   LIG    1       25.549 -29.408   9.745  0.00  0.00    +0.118 C 
ENDBRANCH   1  21
BRANCH  10  22
ATOM     22  C   LIG    1       25.828 -33.159   6.594  0.00  0.00    +0.342 C 
ATOM     23  O   LIG    1       26.682 -33.825   7.162  0.00  0.00    -0.245 OA
BRANCH  22  24
ATOM     24  O   LIG    1       24.924 -33.710   5.760  0.00  0.00    -0.477 OA
ATOM     25  H   LIG    1       25.316 -34.182   4.987  0.00  0.00    +0.295 HD
ENDBRANCH  22  24
ENDBRANCH  10  22
TORSDOF 4
ENDMDL
MODEL 5
REMARK VINA RESULT:      -5.8     10.153     12.959
REMARK  Name = *****
REMARK                            x       y       z     vdW  Elec       q    Type
REMARK                         _______ _______ _______ _____ _____    ______ ____
ROOT
ATOM      1  N   LIG    1       25.536 -28.701  12.967  0.00  0.00    -0.346 NA
ATOM      2  C   LIG    1       24.200 -28.232  12.947  0.00  0.00    +0.055 C 
ATOM      3  C   LIG    1       23.932 -26.906  13.346  0.00  0.00    +0.049 C 
ATOM      4  C   LIG    1       22.633 -26.393  13.369  0.00  0.00    +0.054 C 
ATOM      5  C   LIG    1       21.571 -27.200  12.983  0.00  0.00    +0.145 C 
ATOM      6  C   LIG    1       21.766 -28.524  12.558  0.00  0.00    +0.067 C 
ATOM      7  F   LIG    1       20.350 -26.646  13.005  0.00  0.00    -0.203 F 
ATOM      8  C   LIG    1       25.043 -26.016  13.757  0.00  0.00    +0.203 C 
ATOM      9  O   LIG    1       24.847 -24.852  14.099  0.00  0.00    -0.286 OA
ATOM     10  C   LIG    1       26.415 -26.559  13.745  0.00  0.00    +0.122 C 
ATOM     11  C   LIG    1       23.094 -29.009  12.547  0.00  0.00    +0.052 C 
ATOM     12  C   LIG    1       26.551 -27.839  13.368  0.00  0.00    +0.105 C 
ENDROOT
BRANCH   6  13
ATOM     13  N   LIG    1       20.737 -29.403  12.146  0.00  0.00    -0.325 NA
ATOM     14  C   LIG    1       20.077 -30.073  13.295  0.00  0.00    +0.120 C 
ATOM     15  C   LIG    1       18.887 -30.953  12.826  0.00  0.00    +0.103 C 
ATOM     16  N   LIG    1       19.179 -31.905  11.731  0.00  0.00    -0.302 NA
ATOM     17  C   LIG    1       19.996 -33.026  12.194  0.00  0.00    +0.105 C 
ATOM     18  C   LIG    1       19.836 -31.167  10.628  0.00  0.00    +0.103 C 
ATOM     19  C   LIG    1       21.074 -30.339  11.049  0.00  0.00    +0.120 C 
ENDBRANCH   6  13
BRANCH   1  21
ATOM     20  C   LIG    1       26.380 -30.283  11.268  0.00  0.00    +0.027 C 
ATOM     21  C   LIG    1       25.833 -30.117  12.679  0.00  0.00    +0.118 C 
ENDBRANCH   1  21
BRANCH  10  22
ATOM     22  C   LIG    1       27.608 -25.776  14.124  0.00  0.00    +0.342 C 
ATOM     23  O   LIG    1       28.317 -26.054  15.081  0.00  0.00    -0.245 OA
BRANCH  22  24
ATOM     24  O   LIG    1       27.866 -24.726  13.319  0.00  0.00    -0.477 OA
ATOM     25  H   LIG    1       27.219 -24.609  12.582  0.00  0.00    +0.295 HD
ENDBRANCH  22  24
ENDBRANCH  10  22
TORSDOF 4
ENDMDL
MODEL 6
REMARK VINA RESULT:      -5.7      5.018      7.236
REMARK  Name = *****
REMARK                            x       y       z     vdW  Elec       q    Type
REMARK                         _______ _______ _______ _____ _____    ______ ____
ROOT
ATOM      1  N   LIG    1       25.846 -27.955   7.830  0.00  0.00    -0.346 NA
ATOM      2  C   LIG    1       25.584 -26.832   7.008  0.00  0.00    +0.055 C 
ATOM      3  C   LIG    1       25.028 -27.032   5.727  0.00  0.00    +0.049 C 
ATOM      4  C   LIG    1       24.768 -25.967   4.863  0.00  0.00    +0.054 C 
ATOM      5  C   LIG    1       25.053 -24.670   5.269  0.00  0.00    +0.145 C 
ATOM      6  C   LIG    1       25.592 -24.394   6.537  0.00  0.00    +0.067 C 
ATOM      7  F   LIG    1       24.762 -23.687   4.406  0.00  0.00    -0.203 F 
ATOM      8  C   LIG    1       24.704 -28.403   5.266  0.00  0.00    +0.203 C 
ATOM      9  O   LIG    1       24.208 -28.613   4.162  0.00  0.00    -0.286 OA
ATOM     10  C   LIG    1       24.989 -29.532   6.172  0.00  0.00    +0.122 C 
ATOM     11  C   LIG    1       25.842 -25.498   7.385  0.00  0.00    +0.052 C 
ATOM     12  C   LIG    1       25.538 -29.226   7.357  0.00  0.00    +0.105 C 
ENDROOT
BRANCH   6  13
ATOM     13  N   LIG    1       25.904 -23.103   7.021  0.00  0.00    -0.325 NA
ATOM     14  C   LIG    1       25.092 -22.046   6.369  0.00  0.00    +0.120 C 
ATOM     15  C   LIG    1       25.380 -20.652   6.988  0.00  0.00    +0.103 C 
ATOM     16  N   LIG    1       26.805 -20.267   7.079  0.00  0.00    -0.302 NA
ATOM     17  C   LIG    1       27.363 -19.945   5.766  0.00  0.00    +0.105 C 
ATOM     18  C   LIG    1       27.549 -21.367   7.735  0.00  0.00    +0.103 C 
ATOM     19  C   LIG    1       27.344 -22.761   7.094  0.00  0.00    +0.120 C 
ENDBRANCH   6  13
BRANCH   1  21
ATOM     20  C   LIG    1       26.844 -29.139   9.754  0.00  0.00    +0.027 C 
ATOM     21  C   LIG    1       26.544 -27.789   9.118  0.00  0.00    +0.118 C 
ENDBRANCH   1  21
BRANCH  10  22
ATOM     22  C   LIG    1       24.708 -30.942   5.837  0.00  0.00    +0.342 C 
ATOM     23  O   LIG    1       25.577 -31.800   5.759  0.00  0.00    -0.245 OA
BRANCH  22  24
ATOM     24  O   LIG    1       23.405 -31.217   5.631  0.00  0.00    -0.477 OA
ATOM     25  H   LIG    1       23.171 -32.172   5.720  0.00  0.00    +0.295 HD
ENDBRANCH  22  24
ENDBRANCH  10  22
TORSDOF 4
ENDMDL
MODEL 7
REMARK VINA RESULT:      -5.4      2.453      3.574
REMARK  Name = *****
REMARK                            x       y       z     vdW  Elec       q    Type
REMARK                         _______ _______ _______ _____ _____    ______ ____
ROOT
ATOM      1  N   LIG    1       25.500 -20.987   5.638  0.00  0.00    -0.346 NA
ATOM      2  C   LIG    1       26.611 -21.095   6.509  0.00  0.00    +0.055 C 
ATOM      3  C   LIG    1       26.766 -22.262   7.285  0.00  0.00    +0.049 C 
ATOM      4  C   LIG    1       27.828 -22.416   8.178  0.00  0.00    +0.054 C 
ATOM      5  C   LIG    1       28.768 -21.402   8.307  0.00  0.00    +0.145 C 
ATOM      6  C   LIG    1       28.687 -20.220   7.554  0.00  0.00    +0.067 C 
ATOM      7  F   LIG    1       29.777 -21.616   9.163  0.00  0.00    -0.203 F 
ATOM      8  C   LIG    1       25.785 -23.366   7.166  0.00  0.00    +0.203 C 
ATOM      9  O   LIG    1       25.896 -24.403   7.817  0.00  0.00    -0.286 OA
ATOM     10  C   LIG    1       24.655 -23.201   6.232  0.00  0.00    +0.122 C 
ATOM     11  C   LIG    1       27.598 -20.098   6.660  0.00  0.00    +0.052 C 
ATOM     12  C   LIG    1       24.595 -22.041   5.562  0.00  0.00    +0.105 C 
ENDROOT
BRANCH   6  13
ATOM     13  N   LIG    1       29.605 -19.147   7.627  0.00  0.00    -0.325 NA
ATOM     14  C   LIG    1       31.014 -19.605   7.532  0.00  0.00    +0.120 C 
ATOM     15  C   LIG    1       31.997 -18.405   7.513  0.00  0.00    +0.103 C 
ATOM     16  N   LIG    1       31.819 -17.406   8.590  0.00  0.00    -0.302 NA
ATOM     17  C   LIG    1       32.267 -17.921   9.884  0.00  0.00    +0.105 C 
ATOM     18  C   LIG    1       30.395 -17.001   8.625  0.00  0.00    +0.103 C 
ATOM     19  C   LIG    1       29.389 -18.173   8.722  0.00  0.00    +0.120 C 
ENDBRANCH   6  13
BRANCH   1  21
ATOM     20  C   LIG    1       24.563 -20.002   3.576  0.00  0.00    +0.027 C 
ATOM     21  C   LIG    1       25.241 -19.730   4.911  0.00  0.00    +0.118 C 
ENDBRANCH   1  21
BRANCH  10  22
ATOM     22  C   LIG    1       23.615 -24.227   6.016  0.00  0.00    +0.342 C 
ATOM     23  O   LIG    1       22.504 -24.175   6.525  0.00  0.00    -0.245 OA
BRANCH  22  24
ATOM     24  O   LIG    1       23.984 -25.231   5.196  0.00  0.00    -0.477 OA
ATOM     25  H   LIG    1       24.708 -24.998   4.566  0.00  0.00    +0.295 HD
ENDBRANCH  22  24
ENDBRANCH  10  22
TORSDOF 4
ENDMDL
MODEL 8
REMARK VINA RESULT:      -5.2      9.659     11.832
REMARK  Name = *****
REMARK                            x       y       z     vdW  Elec       q    Type
REMARK                         _______ _______ _______ _____ _____    ______ ____
ROOT
ATOM      1  N   LIG    1       25.109 -29.944   6.076  0.00  0.00    -0.346 NA
ATOM      2  C   LIG    1       25.268 -30.412   7.403  0.00  0.00    +0.055 C 
ATOM      3  C   LIG    1       25.778 -31.709   7.618  0.00  0.00    +0.049 C 
ATOM      4  C   LIG    1       25.937 -32.234   8.902  0.00  0.00    +0.054 C 
ATOM      5  C   LIG    1       25.595 -31.462  10.005  0.00  0.00    +0.145 C 
ATOM      6  C   LIG    1       25.098 -30.156   9.867  0.00  0.00    +0.067 C 
ATOM      7  F   LIG    1       25.790 -32.011  11.212  0.00  0.00    -0.203 F 
ATOM      8  C   LIG    1       26.160 -32.556   6.463  0.00  0.00    +0.203 C 
ATOM      9  O   LIG    1       26.618 -33.687   6.614  0.00  0.00    -0.286 OA
ATOM     10  C   LIG    1       25.982 -32.009   5.105  0.00  0.00    +0.122 C 
ATOM     11  C   LIG    1       24.951 -29.658   8.551  0.00  0.00    +0.052 C 
ATOM     12  C   LIG    1       25.469 -30.773   5.018  0.00  0.00    +0.105 C 
ENDROOT
BRANCH   6  13
ATOM     13  N   LIG    1       24.733 -29.310  10.939  0.00  0.00    -0.325 NA
ATOM     14  C   LIG    1       25.906 -28.879  11.740  0.00  0.00    +0.120 C 
ATOM     15  C   LIG    1       25.494 -27.873  12.848  0.00  0.00    +0.103 C 
ATOM     16  N   LIG    1       24.366 -28.288  13.710  0.00  0.00    -0.302 NA
ATOM     17  C   LIG    1       24.757 -29.349  14.638  0.00  0.00    +0.105 C 
ATOM     18  C   LIG    1       23.239 -28.705  12.844  0.00  0.00    +0.103 C 
ATOM     19  C   LIG    1       23.600 -29.766  11.777  0.00  0.00    +0.120 C 
ENDBRANCH   6  13
BRANCH   1  21
ATOM     20  C   LIG    1       25.481 -27.606   5.373  0.00  0.00    +0.027 C 
ATOM     21  C   LIG    1       24.461 -28.645   5.816  0.00  0.00    +0.118 C 
ENDBRANCH   1  21
BRANCH  10  22
ATOM     22  C   LIG    1       26.329 -32.747   3.873  0.00  0.00    +0.342 C 
ATOM     23  O   LIG    1       25.647 -32.717   2.858  0.00  0.00    -0.245 OA
BRANCH  22  24
ATOM     24  O   LIG    1       27.473 -33.454   3.951  0.00  0.00    -0.477 OA
ATOM     25  H   LIG    1       27.676 -33.803   4.851  0.00  0.00    +0.295 HD
ENDBRANCH  22  24
ENDBRANCH  10  22
TORSDOF 4
ENDMDL
MODEL 9
REMARK VINA RESULT:      -5.1     10.054     12.687
REMARK  Name = *****
REMARK                            x       y       z     vdW  Elec       q    Type
REMARK                         _______ _______ _______ _____ _____    ______ ____
ROOT
ATOM      1  N   LIG    1       26.426 -28.353  12.994  0.00  0.00    -0.346 NA
ATOM      2  C   LIG    1       25.013 -28.369  12.909  0.00  0.00    +0.055 C 
ATOM      3  C   LIG    1       24.287 -27.229  13.313  0.00  0.00    +0.049 C 
ATOM      4  C   LIG    1       22.892 -27.193  13.272  0.00  0.00    +0.054 C 
ATOM      5  C   LIG    1       22.191 -28.301  12.815  0.00  0.00    +0.145 C 
ATOM      6  C   LIG    1       22.848 -29.463  12.380  0.00  0.00    +0.067 C 
ATOM      7  F   LIG    1       20.854 -28.199  12.779  0.00  0.00    -0.203 F 
ATOM      8  C   LIG    1       25.006 -26.027  13.799  0.00  0.00    +0.203 C 
ATOM      9  O   LIG    1       24.406 -25.013  14.148  0.00  0.00    -0.286 OA
ATOM     10  C   LIG    1       26.479 -26.067  13.854  0.00  0.00    +0.122 C 
ATOM     11  C   LIG    1       24.261 -29.464  12.435  0.00  0.00    +0.052 C 
ATOM     12  C   LIG    1       27.063 -27.210  13.465  0.00  0.00    +0.105 C 
ENDROOT
BRANCH   6  13
ATOM     13  N   LIG    1       22.204 -30.626  11.899  0.00  0.00    -0.325 NA
ATOM     14  C   LIG    1       23.077 -31.825  11.972  0.00  0.00    +0.120 C 
ATOM     15  C   LIG    1       22.316 -33.104  11.535  0.00  0.00    +0.103 C 
ATOM     16  N   LIG    1       21.606 -33.023  10.238  0.00  0.00    -0.302 NA
ATOM     17  C   LIG    1       22.539 -33.034   9.111  0.00  0.00    +0.105 C 
ATOM     18  C   LIG    1       20.762 -31.807  10.239  0.00  0.00    +0.103 C 
ATOM     19  C   LIG    1       21.508 -30.499  10.597  0.00  0.00    +0.120 C 
ENDBRANCH   6  13
BRANCH   1  21
ATOM     20  C   LIG    1       28.198 -29.325  11.574  0.00  0.00    +0.027 C 
ATOM     21  C   LIG    1       27.205 -29.571  12.701  0.00  0.00    +0.118 C 
ENDBRANCH   1  21
BRANCH  10  22
ATOM     22  C   LIG    1       27.312 -24.937  14.311  0.00  0.00    +0.342 C 
ATOM     23  O   LIG    1       28.456 -25.069  14.723  0.00  0.00    -0.245 OA
BRANCH  22  24
ATOM     24  O   LIG    1       26.712 -23.732  14.227  0.00  0.00    -0.477 OA
ATOM     25  H   LIG    1       26.595 -23.274  15.093  0.00  0.00    +0.295 HD
ENDBRANCH  22  24
ENDBRANCH  10  22
TORSDOF 4
ENDMDL
