MODEL 1
REMARK VINA RESULT:       4.6      0.000      0.000
REMARK  Name = *****
REMARK                            x       y       z     vdW  Elec       q    Type
REMARK                         _______ _______ _______ _____ _____    ______ ____
ROOT
ATOM      1  C   LIG    1       23.020 -19.591   3.709  0.00  0.00    +0.065 C 
ATOM      2  C   LIG    1       24.437 -19.023   3.780  0.00  0.00    +0.096 C 
ATOM      3  C   LIG    1       24.467 -17.497   3.823  0.00  0.00    +0.065 C 
ATOM      4  C   LIG    1       23.347 -16.805   4.173  0.00  0.00    +0.016 C 
ATOM      5  C   LIG    1       23.240 -15.298   4.212  0.00  0.00    +0.061 C 
ATOM      6  N   LIG    1       22.175 -17.501   4.454  0.00  0.00    -0.321 N 
ATOM      7  H   LIG    1       21.336 -16.935   4.580  0.00  0.00    +0.152 HD
ATOM      8  C   LIG    1       21.965 -18.825   4.083  0.00  0.00    +0.016 C 
ATOM      9  C   LIG    1       20.529 -19.286   4.080  0.00  0.00    +0.061 C 
ENDROOT
BRANCH   2  10
ATOM     10  C   LIG    1       25.252 -19.647   4.929  0.00  0.00    -0.029 A 
ATOM     11  C   LIG    1       26.651 -19.519   4.955  0.00  0.00    +0.088 A 
ATOM     12  C   LIG    1       27.382 -20.073   6.016  0.00  0.00    +0.273 A 
ATOM     13  C   LIG    1       26.765 -20.759   7.061  0.00  0.00    +0.084 A 
ATOM     14  C   LIG    1       25.379 -20.898   7.036  0.00  0.00    +0.007 A 
ATOM     15  C   LIG    1       24.632 -20.348   5.984  0.00  0.00    +0.005 A 
BRANCH  12  16
ATOM     16  N   LIG    1       28.826 -19.936   6.025  0.00  0.00    +0.080 N 
ATOM     17  O   LIG    1       29.302 -18.953   5.441  0.00  0.00    -0.576 OA
ATOM     18  O   LIG    1       29.472 -20.807   6.621  0.00  0.00    +0.041 OA
ENDBRANCH  12  16
ENDBRANCH   2  10
BRANCH   1  19
ATOM     19  C   LIG    1       22.847 -20.948   3.119  0.00  0.00    +0.337 C 
ATOM     20  O   LIG    1       23.573 -21.445   2.270  0.00  0.00    -0.245 OA
BRANCH  19  22
ATOM     21  C   LIG    1       21.741 -21.566   5.130  0.00  0.00    +0.280 C 
ATOM     22  O   LIG    1       21.790 -21.570   3.700  0.00  0.00    -0.465 OA
ENDBRANCH  19  22
ENDBRANCH   1  19
BRANCH   3  23
ATOM     23  C   LIG    1       25.726 -16.829   3.404  0.00  0.00    +0.338 C 
ATOM     24  O   LIG    1       26.501 -17.283   2.569  0.00  0.00    -0.245 OA
BRANCH  23  25
ATOM     25  O   LIG    1       25.919 -15.674   4.092  0.00  0.00    -0.457 OA
BRANCH  25  26
ATOM     26  C   LIG    1       27.213 -15.469   4.694  0.00  0.00    +0.192 C 
ATOM     27  C   LIG    1       27.237 -14.133   5.450  0.00  0.00    +0.129 C 
ATOM     28  N   LIG    1       28.056 -13.185   4.670  0.00  0.00    -0.294 NA
ATOM     29  C   LIG    1       28.331 -13.807   3.372  0.00  0.00    +0.088 C 
ATOM     30  C   LIG    1       28.264 -15.304   3.610  0.00  0.00    +0.061 C 
BRANCH  28  31
ATOM     31  C   LIG    1       27.431 -11.858   4.538  0.00  0.00    +0.119 C 
BRANCH  31  32
ATOM     32  C   LIG    1       26.044 -11.885   3.921  0.00  0.00    -0.033 A 
ATOM     33  C   LIG    1       25.887 -11.831   2.526  0.00  0.00    +0.005 A 
ATOM     34  C   LIG    1       24.617 -11.836   1.944  0.00  0.00    +0.000 A 
ATOM     35  C   LIG    1       23.484 -11.899   2.749  0.00  0.00    +0.000 A 
ATOM     36  C   LIG    1       23.620 -11.961   4.135  0.00  0.00    +0.000 A 
ATOM     37  C   LIG    1       24.892 -11.953   4.719  0.00  0.00    +0.005 A 
ENDBRANCH  31  32
ENDBRANCH  28  31
ENDBRANCH  25  26
ENDBRANCH  23  25
ENDBRANCH   3  23
TORSDOF 9
ENDMDL
MODEL 2
REMARK VINA RESULT:       6.9      2.231      7.051
REMARK  Name = *****
REMARK                            x       y       z     vdW  Elec       q    Type
REMARK                         _______ _______ _______ _____ _____    ______ ____
ROOT
ATOM      1  C   LIG    1       27.033 -13.613   3.648  0.00  0.00    +0.065 C 
ATOM      2  C   LIG    1       26.037 -14.602   4.254  0.00  0.00    +0.096 C 
ATOM      3  C   LIG    1       24.601 -14.360   3.795  0.00  0.00    +0.065 C 
ATOM      4  C   LIG    1       24.361 -13.621   2.676  0.00  0.00    +0.016 C 
ATOM      5  C   LIG    1       22.987 -13.280   2.146  0.00  0.00    +0.061 C 
ATOM      6  N   LIG    1       25.431 -13.065   1.982  0.00  0.00    -0.321 N 
ATOM      7  H   LIG    1       25.193 -12.415   1.234  0.00  0.00    +0.152 HD
ATOM      8  C   LIG    1       26.704 -12.924   2.527  0.00  0.00    +0.016 C 
ATOM      9  C   LIG    1       27.612 -11.944   1.827  0.00  0.00    +0.061 C 
ENDROOT
BRANCH   2  10
ATOM     10  C   LIG    1       26.471 -16.064   4.038  0.00  0.00    -0.029 A 
ATOM     11  C   LIG    1       27.496 -16.621   4.822  0.00  0.00    +0.088 A 
ATOM     12  C   LIG    1       27.870 -17.959   4.630  0.00  0.00    +0.273 A 
ATOM     13  C   LIG    1       27.257 -18.770   3.676  0.00  0.00    +0.084 A 
ATOM     14  C   LIG    1       26.248 -18.221   2.890  0.00  0.00    +0.007 A 
ATOM     15  C   LIG    1       25.859 -16.884   3.069  0.00  0.00    +0.005 A 
BRANCH  12  16
ATOM     16  N   LIG    1       28.933 -18.517   5.444  0.00  0.00    +0.080 N 
ATOM     17  O   LIG    1       29.474 -17.760   6.261  0.00  0.00    -0.576 OA
ATOM     18  O   LIG    1       29.215 -19.709   5.266  0.00  0.00    +0.041 OA
ENDBRANCH  12  16
ENDBRANCH   2  10
BRANCH   1  19
ATOM     19  C   LIG    1       28.300 -13.365   4.390  0.00  0.00    +0.337 C 
ATOM     20  O   LIG    1       29.416 -13.690   4.009  0.00  0.00    -0.245 OA
BRANCH  19  22
ATOM     21  C   LIG    1       27.165 -13.302   6.477  0.00  0.00    +0.280 C 
ATOM     22  O   LIG    1       28.038 -12.678   5.530  0.00  0.00    -0.465 OA
ENDBRANCH  19  22
ENDBRANCH   1  19
BRANCH   3  23
ATOM     23  C   LIG    1       23.513 -14.897   4.652  0.00  0.00    +0.338 C 
ATOM     24  O   LIG    1       23.042 -14.307   5.618  0.00  0.00    -0.245 OA
BRANCH  23  25
ATOM     25  O   LIG    1       23.137 -16.137   4.245  0.00  0.00    -0.457 OA
BRANCH  25  26
ATOM     26  C   LIG    1       21.973 -16.716   4.870  0.00  0.00    +0.192 C 
ATOM     27  C   LIG    1       22.264 -18.166   5.284  0.00  0.00    +0.129 C 
ATOM     28  N   LIG    1       21.537 -19.057   4.359  0.00  0.00    -0.294 NA
ATOM     29  C   LIG    1       21.015 -18.227   3.270  0.00  0.00    +0.088 C 
ATOM     30  C   LIG    1       20.851 -16.836   3.853  0.00  0.00    +0.061 C 
BRANCH  28  31
ATOM     31  C   LIG    1       22.361 -20.175   3.871  0.00  0.00    +0.119 C 
BRANCH  31  32
ATOM     32  C   LIG    1       23.488 -20.571   4.810  0.00  0.00    -0.033 A 
ATOM     33  C   LIG    1       24.737 -20.958   4.295  0.00  0.00    +0.005 A 
ATOM     34  C   LIG    1       25.777 -21.341   5.145  0.00  0.00    +0.000 A 
ATOM     35  C   LIG    1       25.585 -21.340   6.523  0.00  0.00    +0.000 A 
ATOM     36  C   LIG    1       24.356 -20.950   7.052  0.00  0.00    +0.000 A 
ATOM     37  C   LIG    1       23.312 -20.569   6.201  0.00  0.00    +0.005 A 
ENDBRANCH  31  32
ENDBRANCH  28  31
ENDBRANCH  25  26
ENDBRANCH  23  25
ENDBRANCH   3  23
TORSDOF 9
ENDMDL
