MODEL 1
REMARK VINA RESULT:      65.3      0.000      0.000
REMARK  Name = *****
REMARK                            x       y       z     vdW  Elec       q    Type
REMARK                         _______ _______ _______ _____ _____    ______ ____
ROOT
ATOM      1  C   LIG    1       23.793 -16.772   5.898  0.00  0.00    +0.178 C 
ATOM      2  C   LIG    1       22.611 -15.916   6.365  0.00  0.00    +0.151 C 
ATOM      3  C   LIG    1       21.621 -15.815   5.219  0.00  0.00    +0.095 C 
ATOM      4  C   LIG    1       21.326 -17.198   4.630  0.00  0.00    +0.253 C 
ATOM      5  O   LIG    1       21.782 -18.222   5.530  0.00  0.00    -0.346 OA
ATOM      6  C   LIG    1       23.220 -18.211   5.752  0.00  0.00    +0.150 C 
ATOM      7  C   LIG    1       23.449 -18.977   7.060  0.00  0.00    +0.040 C 
ENDROOT
BRANCH   2   8
ATOM      8  O   LIG    1       23.020 -14.627   6.809  0.00  0.00    -0.389 OA
ATOM      9  H   LIG    1       23.991 -14.645   6.871  0.00  0.00    +0.210 HD
ENDBRANCH   2   8
BRANCH   1  10
ATOM     10  O   LIG    1       24.310 -16.343   4.616  0.00  0.00    -0.343 OA
BRANCH  10  14
ATOM     11  C   LIG    1       23.340 -12.702   2.741  0.00  0.00    +0.178 C 
ATOM     12  C   LIG    1       24.614 -13.462   2.326  0.00  0.00    +0.151 C 
ATOM     13  C   LIG    1       25.125 -14.309   3.485  0.00  0.00    +0.095 C 
ATOM     14  C   LIG    1       23.970 -15.006   4.212  0.00  0.00    +0.254 C 
ATOM     15  O   LIG    1       22.828 -15.075   3.343  0.00  0.00    -0.346 OA
ATOM     16  C   LIG    1       22.264 -13.780   3.041  0.00  0.00    +0.150 C 
ATOM     17  C   LIG    1       21.355 -13.961   1.828  0.00  0.00    +0.040 C 
BRANCH  12  18
ATOM     18  O   LIG    1       25.642 -12.594   1.856  0.00  0.00    -0.389 OA
ATOM     19  H   LIG    1       26.492 -13.042   2.017  0.00  0.00    +0.210 HD
ENDBRANCH  12  18
BRANCH  11  20
ATOM     20  O   LIG    1       23.641 -11.861   3.886  0.00  0.00    -0.343 OA
BRANCH  20  26
ATOM     21  C   LIG    1       26.565 -13.215   5.429  0.00  0.00    +0.212 C 
ATOM     22  C   LIG    1       27.739 -12.724   4.558  0.00  0.00    +0.184 C 
ATOM     23  C   LIG    1       27.221 -12.016   3.290  0.00  0.00    +0.150 C 
ATOM     24  C   LIG    1       27.970 -12.441   2.036  0.00  0.00    +0.040 C 
ATOM     25  O   LIG    1       25.828 -12.287   3.089  0.00  0.00    -0.346 OA
ATOM     26  C   LIG    1       25.047 -11.671   4.108  0.00  0.00    +0.255 C 
ATOM     27  C   LIG    1       25.444 -12.176   5.495  0.00  0.00    +0.108 C 
BRANCH  22  28
ATOM     28  O   LIG    1       28.556 -11.788   5.278  0.00  0.00    -0.386 OA
ATOM     29  H   LIG    1       27.965 -11.067   5.562  0.00  0.00    +0.210 HD
ENDBRANCH  22  28
BRANCH  21  30
ATOM     30  O   LIG    1       27.016 -13.456   6.781  0.00  0.00    -0.459 OA
BRANCH  30  32
ATOM     31  C   LIG    1       29.353 -13.158   6.803  0.00  0.00    +0.136 C 
ATOM     32  C   LIG    1       28.205 -14.118   6.868  0.00  0.00    +0.304 C 
ATOM     33  O   LIG    1       28.331 -15.322   7.045  0.00  0.00    -0.251 OA
ENDBRANCH  30  32
ENDBRANCH  21  30
ENDBRANCH  20  26
ENDBRANCH  11  20
ENDBRANCH  10  14
ENDBRANCH   1  10
BRANCH   4  34
ATOM     34  O   LIG    1       19.908 -17.332   4.414  0.00  0.00    -0.348 OA
BRANCH  34  35
ATOM     35  C   LIG    1       19.504 -18.343   3.468  0.00  0.00    +0.122 C 
ATOM     36  C   LIG    1       19.855 -19.739   4.026  0.00  0.00    +0.035 C 
ATOM     37  C   LIG    1       21.370 -19.919   4.178  0.00  0.00    -0.002 C 
ATOM     38  C   LIG    1       21.790 -21.326   4.688  0.00  0.00    +0.004 C 
ATOM     39  C   LIG    1       23.336 -21.524   4.718  0.00  0.00    +0.007 C 
ATOM     40  C   LIG    1       24.023 -20.158   4.729  0.00  0.00    +0.025 C 
ATOM     41  C   LIG    1       25.504 -19.985   5.114  0.00  0.00    +0.075 C 
ATOM     42  C   LIG    1       26.526 -20.119   3.957  0.00  0.00    +0.004 C 
ATOM     43  C   LIG    1       26.620 -21.572   3.397  0.00  0.00    +0.014 C 
ATOM     44  C   LIG    1       27.888 -19.804   4.694  0.00  0.00    +0.027 C 
ATOM     45  C   LIG    1       27.666 -20.524   6.071  0.00  0.00    +0.011 C 
ATOM     46  C   LIG    1       26.137 -19.226   2.772  0.00  0.00    +0.010 C 
ATOM     47  C   LIG    1       24.717 -19.473   2.289  0.00  0.00    +0.005 C 
ATOM     48  C   LIG    1       26.144 -20.809   6.228  0.00  0.00    +0.036 C 
ATOM     49  C   LIG    1       23.682 -19.337   3.425  0.00  0.00    +0.001 C 
ATOM     50  C   LIG    1       22.204 -19.538   2.921  0.00  0.00    -0.026 C 
ATOM     51  C   LIG    1       22.081 -20.624   1.817  0.00  0.00    +0.012 C 
ATOM     52  C   LIG    1       21.704 -18.209   2.286  0.00  0.00    +0.009 C 
ATOM     53  C   LIG    1       20.188 -18.173   2.113  0.00  0.00    +0.032 C 
BRANCH  44  54
ATOM     54  C   LIG    1       28.381 -18.365   4.843  0.00  0.00    -0.022 C 
ATOM     55  C   LIG    1       29.057 -17.871   6.078  0.00  0.00    +0.264 C 
ATOM     56  O   LIG    1       29.443 -16.523   5.806  0.00  0.00    -0.457 OA
ATOM     57  C   LIG    1       28.988 -16.183   4.559  0.00  0.00    +0.332 C 
ATOM     58  O   LIG    1       29.128 -15.110   4.003  0.00  0.00    -0.246 OA
ATOM     59  C   LIG    1       28.333 -17.321   4.000  0.00  0.00    +0.094 C 
ENDBRANCH  44  54
BRANCH  41  60
ATOM     60  O   LIG    1       25.553 -18.621   5.611  0.00  0.00    -0.388 OA
ATOM     61  H   LIG    1       25.157 -18.040   4.937  0.00  0.00    +0.210 HD
ENDBRANCH  41  60
ENDBRANCH  34  35
ENDBRANCH   4  34
TORSDOF 13
ENDMDL
