MODEL 1
REMARK VINA RESULT:      -3.0      0.000      0.000
REMARK  Name = *****
REMARK                            x       y       z     vdW  Elec       q    Type
REMARK                         _______ _______ _______ _____ _____    ______ ____
ROOT
ATOM      1  C   LIG    1       27.334 -17.209   3.909  0.00  0.00    +0.033 A 
ATOM      2  C   LIG    1       28.509 -17.223   4.668  0.00  0.00    +0.023 A 
ATOM      3  C   LIG    1       28.806 -18.323   5.494  0.00  0.00    +0.005 A 
ATOM      4  C   LIG    1       27.921 -19.406   5.585  0.00  0.00    -0.046 A 
ATOM      5  C   LIG    1       26.798 -19.419   4.761  0.00  0.00    +0.005 A 
ATOM      6  C   LIG    1       26.541 -18.356   3.899  0.00  0.00    +0.023 A 
ENDROOT
BRANCH   1   8
ATOM      7  C   LIG    1       27.391 -14.737   3.590  0.00  0.00    +0.223 C 
ATOM      8  N   LIG    1       26.915 -16.003   3.294  0.00  0.00    -0.285 N 
ATOM      9  H   LIG    1       26.319 -16.095   2.474  0.00  0.00    +0.155 HD
ATOM     10  O   LIG    1       28.101 -14.434   4.564  0.00  0.00    -0.275 OA
BRANCH   7  11
ATOM     11  C   LIG    1       27.078 -13.666   2.585  0.00  0.00    +0.152 C 
BRANCH  11  15
ATOM     12  C   LIG    1       24.299 -12.239   4.340  0.00  0.00    +0.156 A 
ATOM     13  S   LIG    1       23.692 -11.553   2.890  0.00  0.00    -0.061 S 
ATOM     14  C   LIG    1       25.014 -12.229   2.030  0.00  0.00    +0.072 A 
ATOM     15  C   LIG    1       25.861 -12.879   2.908  0.00  0.00    +0.059 A 
ATOM     16  N   LIG    1       25.455 -12.842   4.233  0.00  0.00    -0.230 NA
BRANCH  12  17
ATOM     17  N   LIG    1       23.630 -12.168   5.497  0.00  0.00    -0.338 N 
ATOM     18  H   LIG    1       22.660 -12.445   5.550  0.00  0.00    +0.144 HD
ATOM     19  H   LIG    1       23.943 -11.484   6.173  0.00  0.00    +0.144 HD
ENDBRANCH  12  17
ENDBRANCH  11  15
ENDBRANCH   7  11
ENDBRANCH   1   8
BRANCH   4  20
ATOM     20  C   LIG    1       28.148 -20.550   6.541  0.00  0.00    +0.050 C 
BRANCH  20  21
ATOM     21  C   LIG    1       26.862 -21.310   6.926  0.00  0.00    +0.085 C 
BRANCH  21  22
ATOM     22  N   LIG    1       25.661 -20.451   7.037  0.00  0.00    -0.313 NA
ATOM     23  H   LIG    1       25.670 -19.777   6.269  0.00  0.00    +0.122 HD
BRANCH  22  24
ATOM     24  C   LIG    1       24.411 -21.239   6.987  0.00  0.00    +0.117 C 
BRANCH  24  25
ATOM     25  C   LIG    1       23.947 -21.551   5.538  0.00  0.00    +0.158 C 
BRANCH  25  26
ATOM     26  C   LIG    1       22.956 -20.527   5.023  0.00  0.00    -0.018 A 
ATOM     27  C   LIG    1       21.697 -20.921   4.548  0.00  0.00    +0.006 A 
ATOM     28  C   LIG    1       20.802 -19.978   4.035  0.00  0.00    +0.000 A 
ATOM     29  C   LIG    1       21.154 -18.630   3.993  0.00  0.00    +0.000 A 
ATOM     30  C   LIG    1       22.394 -18.221   4.476  0.00  0.00    +0.000 A 
ATOM     31  C   LIG    1       23.287 -19.162   4.990  0.00  0.00    +0.006 A 
ENDBRANCH  25  26
BRANCH  25  32
ATOM     32  O   LIG    1       25.066 -21.572   4.650  0.00  0.00    -0.386 OA
ATOM     33  H   LIG    1       25.853 -21.483   5.218  0.00  0.00    +0.210 HD
ENDBRANCH  25  32
ENDBRANCH  24  25
ENDBRANCH  22  24
ENDBRANCH  21  22
ENDBRANCH  20  21
ENDBRANCH   4  20
TORSDOF 11
ENDMDL
MODEL 2
REMARK VINA RESULT:      -2.8      2.101      4.467
REMARK  Name = *****
REMARK                            x       y       z     vdW  Elec       q    Type
REMARK                         _______ _______ _______ _____ _____    ______ ____
ROOT
ATOM      1  C   LIG    1       22.436 -17.258   4.215  0.00  0.00    +0.033 A 
ATOM      2  C   LIG    1       21.957 -18.255   3.360  0.00  0.00    +0.023 A 
ATOM      3  C   LIG    1       21.898 -19.592   3.793  0.00  0.00    +0.005 A 
ATOM      4  C   LIG    1       22.340 -19.947   5.076  0.00  0.00    -0.046 A 
ATOM      5  C   LIG    1       22.734 -18.935   5.947  0.00  0.00    +0.005 A 
ATOM      6  C   LIG    1       22.731 -17.605   5.535  0.00  0.00    +0.023 A 
ENDROOT
BRANCH   1   8
ATOM      7  C   LIG    1       23.068 -14.857   4.439  0.00  0.00    +0.223 C 
ATOM      8  N   LIG    1       22.738 -15.976   3.693  0.00  0.00    -0.285 N 
ATOM      9  H   LIG    1       22.857 -15.913   2.684  0.00  0.00    +0.155 HD
ATOM     10  O   LIG    1       22.959 -14.744   5.671  0.00  0.00    -0.275 OA
BRANCH   7  11
ATOM     11  C   LIG    1       23.692 -13.722   3.679  0.00  0.00    +0.152 C 
BRANCH  11  15
ATOM     12  C   LIG    1       27.050 -13.403   4.888  0.00  0.00    +0.156 A 
ATOM     13  S   LIG    1       27.674 -13.575   3.300  0.00  0.00    -0.061 S 
ATOM     14  C   LIG    1       26.075 -13.727   2.700  0.00  0.00    +0.072 A 
ATOM     15  C   LIG    1       25.176 -13.700   3.750  0.00  0.00    +0.059 A 
ATOM     16  N   LIG    1       25.755 -13.551   5.001  0.00  0.00    -0.230 NA
BRANCH  12  17
ATOM     17  N   LIG    1       27.835 -13.129   5.937  0.00  0.00    -0.338 N 
ATOM     18  H   LIG    1       28.091 -12.177   6.155  0.00  0.00    +0.144 HD
ATOM     19  H   LIG    1       28.478 -13.851   6.238  0.00  0.00    +0.144 HD
ENDBRANCH  12  17
ENDBRANCH  11  15
ENDBRANCH   7  11
ENDBRANCH   1   8
BRANCH   4  20
ATOM     20  C   LIG    1       22.398 -21.382   5.537  0.00  0.00    +0.050 C 
BRANCH  20  21
ATOM     21  C   LIG    1       22.950 -21.560   6.966  0.00  0.00    +0.085 C 
BRANCH  21  22
ATOM     22  N   LIG    1       24.424 -21.456   7.062  0.00  0.00    -0.313 NA
ATOM     23  H   LIG    1       24.765 -22.200   7.674  0.00  0.00    +0.122 HD
BRANCH  22  24
ATOM     24  C   LIG    1       25.074 -21.571   5.738  0.00  0.00    +0.117 C 
BRANCH  24  25
ATOM     25  C   LIG    1       26.533 -21.041   5.729  0.00  0.00    +0.158 C 
BRANCH  25  26
ATOM     26  C   LIG    1       26.666 -19.753   4.941  0.00  0.00    -0.018 A 
ATOM     27  C   LIG    1       27.777 -18.915   5.116  0.00  0.00    +0.006 A 
ATOM     28  C   LIG    1       27.875 -17.708   4.419  0.00  0.00    +0.000 A 
ATOM     29  C   LIG    1       26.866 -17.324   3.538  0.00  0.00    +0.000 A 
ATOM     30  C   LIG    1       25.765 -18.153   3.341  0.00  0.00    +0.000 A 
ATOM     31  C   LIG    1       25.667 -19.360   4.036  0.00  0.00    +0.006 A 
ENDBRANCH  25  26
BRANCH  25  32
ATOM     32  O   LIG    1       26.982 -20.795   7.062  0.00  0.00    -0.386 OA
ATOM     33  H   LIG    1       27.139 -21.674   7.452  0.00  0.00    +0.210 HD
ENDBRANCH  25  32
ENDBRANCH  24  25
ENDBRANCH  22  24
ENDBRANCH  21  22
ENDBRANCH  20  21
ENDBRANCH   4  20
TORSDOF 11
ENDMDL
MODEL 3
REMARK VINA RESULT:      -2.4      2.259      4.948
REMARK  Name = *****
REMARK                            x       y       z     vdW  Elec       q    Type
REMARK                         _______ _______ _______ _____ _____    ______ ____
ROOT
ATOM      1  C   LIG    1       23.379 -15.862   4.292  0.00  0.00    +0.033 A 
ATOM      2  C   LIG    1       23.644 -16.905   3.401  0.00  0.00    +0.023 A 
ATOM      3  C   LIG    1       22.990 -18.143   3.542  0.00  0.00    +0.005 A 
ATOM      4  C   LIG    1       22.083 -18.354   4.590  0.00  0.00    -0.046 A 
ATOM      5  C   LIG    1       21.764 -17.282   5.420  0.00  0.00    +0.005 A 
ATOM      6  C   LIG    1       22.367 -16.041   5.236  0.00  0.00    +0.023 A 
ENDROOT
BRANCH   1   8
ATOM      7  C   LIG    1       24.124 -13.635   3.457  0.00  0.00    +0.223 C 
ATOM      8  N   LIG    1       24.222 -14.723   4.306  0.00  0.00    -0.285 N 
ATOM      9  H   LIG    1       24.861 -14.642   5.095  0.00  0.00    +0.155 HD
ATOM     10  O   LIG    1       23.423 -13.569   2.434  0.00  0.00    -0.275 OA
BRANCH   7  11
ATOM     11  C   LIG    1       24.876 -12.404   3.877  0.00  0.00    +0.152 C 
BRANCH  11  15
ATOM     12  C   LIG    1       28.279 -12.292   4.993  0.00  0.00    +0.156 A 
ATOM     13  S   LIG    1       28.817 -13.015   3.534  0.00  0.00    -0.061 S 
ATOM     14  C   LIG    1       27.194 -13.076   2.979  0.00  0.00    +0.072 A 
ATOM     15  C   LIG    1       26.346 -12.601   3.962  0.00  0.00    +0.059 A 
ATOM     16  N   LIG    1       26.981 -12.191   5.123  0.00  0.00    -0.230 NA
BRANCH  12  17
ATOM     17  N   LIG    1       29.131 -11.855   5.929  0.00  0.00    -0.338 N 
ATOM     18  H   LIG    1       28.938 -11.999   6.909  0.00  0.00    +0.144 HD
ATOM     19  H   LIG    1       29.713 -11.062   5.693  0.00  0.00    +0.144 HD
ENDBRANCH  12  17
ENDBRANCH  11  15
ENDBRANCH   7  11
ENDBRANCH   1   8
BRANCH   4  20
ATOM     20  C   LIG    1       21.448 -19.699   4.843  0.00  0.00    +0.050 C 
BRANCH  20  21
ATOM     21  C   LIG    1       22.413 -20.890   4.677  0.00  0.00    +0.085 C 
BRANCH  21  22
ATOM     22  N   LIG    1       23.825 -20.499   4.463  0.00  0.00    -0.313 NA
ATOM     23  H   LIG    1       24.018 -19.658   5.011  0.00  0.00    +0.122 HD
BRANCH  22  24
ATOM     24  C   LIG    1       24.763 -21.571   4.864  0.00  0.00    +0.117 C 
BRANCH  24  25
ATOM     25  C   LIG    1       25.298 -21.401   6.311  0.00  0.00    +0.158 C 
BRANCH  25  26
ATOM     26  C   LIG    1       26.721 -20.882   6.334  0.00  0.00    -0.018 A 
ATOM     27  C   LIG    1       27.079 -19.734   5.611  0.00  0.00    +0.006 A 
ATOM     28  C   LIG    1       28.402 -19.283   5.602  0.00  0.00    +0.000 A 
ATOM     29  C   LIG    1       29.383 -19.971   6.315  0.00  0.00    +0.000 A 
ATOM     30  C   LIG    1       29.039 -21.102   7.051  0.00  0.00    +0.000 A 
ATOM     31  C   LIG    1       27.719 -21.553   7.062  0.00  0.00    +0.006 A 
ENDBRANCH  25  26
BRANCH  25  32
ATOM     32  O   LIG    1       24.480 -20.487   7.042  0.00  0.00    -0.386 OA
ATOM     33  H   LIG    1       25.005 -20.229   7.821  0.00  0.00    +0.210 HD
ENDBRANCH  25  32
ENDBRANCH  24  25
ENDBRANCH  22  24
ENDBRANCH  21  22
ENDBRANCH  20  21
ENDBRANCH   4  20
TORSDOF 11
ENDMDL
MODEL 4
REMARK VINA RESULT:      -2.2      1.397      4.141
REMARK  Name = *****
REMARK                            x       y       z     vdW  Elec       q    Type
REMARK                         _______ _______ _______ _____ _____    ______ ____
ROOT
ATOM      1  C   LIG    1       24.269 -16.817   3.788  0.00  0.00    +0.033 A 
ATOM      2  C   LIG    1       24.865 -18.010   3.369  0.00  0.00    +0.023 A 
ATOM      3  C   LIG    1       24.253 -19.245   3.647  0.00  0.00    +0.005 A 
ATOM      4  C   LIG    1       23.051 -19.299   4.368  0.00  0.00    -0.046 A 
ATOM      5  C   LIG    1       22.424 -18.102   4.706  0.00  0.00    +0.005 A 
ATOM      6  C   LIG    1       23.003 -16.881   4.371  0.00  0.00    +0.023 A 
ENDROOT
BRANCH   1   8
ATOM      7  C   LIG    1       26.195 -15.418   3.048  0.00  0.00    +0.223 C 
ATOM      8  N   LIG    1       25.010 -15.610   3.738  0.00  0.00    -0.285 N 
ATOM      9  H   LIG    1       24.560 -14.785   4.128  0.00  0.00    +0.155 HD
ATOM     10  O   LIG    1       26.893 -16.308   2.535  0.00  0.00    -0.275 OA
BRANCH   7  11
ATOM     11  C   LIG    1       26.609 -13.989   2.840  0.00  0.00    +0.152 C 
BRANCH  11  15
ATOM     12  C   LIG    1       24.084 -11.915   4.311  0.00  0.00    +0.156 A 
ATOM     13  S   LIG    1       23.496 -11.474   2.762  0.00  0.00    -0.061 S 
ATOM     14  C   LIG    1       24.696 -12.463   2.037  0.00  0.00    +0.072 A 
ATOM     15  C   LIG    1       25.502 -13.014   3.015  0.00  0.00    +0.059 A 
ATOM     16  N   LIG    1       25.160 -12.659   4.311  0.00  0.00    -0.230 NA
BRANCH  12  17
ATOM     17  N   LIG    1       23.478 -11.530   5.441  0.00  0.00    -0.338 N 
ATOM     18  H   LIG    1       23.581 -10.587   5.786  0.00  0.00    +0.144 HD
ATOM     19  H   LIG    1       23.280 -12.245   6.129  0.00  0.00    +0.144 HD
ENDBRANCH  12  17
ENDBRANCH  11  15
ENDBRANCH   7  11
ENDBRANCH   1   8
BRANCH   4  20
ATOM     20  C   LIG    1       22.422 -20.605   4.784  0.00  0.00    +0.050 C 
BRANCH  20  21
ATOM     21  C   LIG    1       22.681 -20.986   6.256  0.00  0.00    +0.085 C 
BRANCH  21  22
ATOM     22  N   LIG    1       24.095 -21.308   6.557  0.00  0.00    -0.313 NA
ATOM     23  H   LIG    1       24.310 -22.228   6.166  0.00  0.00    +0.122 HD
BRANCH  22  24
ATOM     24  C   LIG    1       25.023 -20.304   5.993  0.00  0.00    +0.117 C 
BRANCH  24  25
ATOM     25  C   LIG    1       26.487 -20.815   5.898  0.00  0.00    +0.158 C 
BRANCH  25  26
ATOM     26  C   LIG    1       27.480 -19.678   5.768  0.00  0.00    -0.018 A 
ATOM     27  C   LIG    1       27.435 -18.807   4.669  0.00  0.00    +0.006 A 
ATOM     28  C   LIG    1       28.380 -17.786   4.531  0.00  0.00    +0.000 A 
ATOM     29  C   LIG    1       29.377 -17.621   5.490  0.00  0.00    +0.000 A 
ATOM     30  C   LIG    1       29.424 -18.467   6.595  0.00  0.00    +0.000 A 
ATOM     31  C   LIG    1       28.481 -19.486   6.734  0.00  0.00    +0.006 A 
ENDBRANCH  25  26
BRANCH  25  32
ATOM     32  O   LIG    1       26.827 -21.571   7.060  0.00  0.00    -0.386 OA
ATOM     33  H   LIG    1       27.589 -21.111   7.459  0.00  0.00    +0.210 HD
ENDBRANCH  25  32
ENDBRANCH  24  25
ENDBRANCH  22  24
ENDBRANCH  21  22
ENDBRANCH  20  21
ENDBRANCH   4  20
TORSDOF 11
ENDMDL
MODEL 5
REMARK VINA RESULT:      -1.7      2.956      7.988
REMARK  Name = *****
REMARK                            x       y       z     vdW  Elec       q    Type
REMARK                         _______ _______ _______ _____ _____    ______ ____
ROOT
ATOM      1  C   LIG    1       22.470 -16.660   4.979  0.00  0.00    +0.033 A 
ATOM      2  C   LIG    1       22.195 -15.772   6.023  0.00  0.00    +0.023 A 
ATOM      3  C   LIG    1       22.599 -14.428   5.936  0.00  0.00    +0.005 A 
ATOM      4  C   LIG    1       23.303 -13.965   4.815  0.00  0.00    -0.046 A 
ATOM      5  C   LIG    1       23.496 -14.837   3.746  0.00  0.00    +0.005 A 
ATOM      6  C   LIG    1       23.038 -16.149   3.810  0.00  0.00    +0.023 A 
ENDROOT
BRANCH   1   8
ATOM      7  C   LIG    1       21.597 -18.909   4.351  0.00  0.00    +0.223 C 
ATOM      8  N   LIG    1       22.299 -18.052   5.181  0.00  0.00    -0.285 N 
ATOM      9  H   LIG    1       22.854 -18.474   5.923  0.00  0.00    +0.155 HD
ATOM     10  O   LIG    1       20.849 -18.571   3.419  0.00  0.00    -0.275 OA
BRANCH   7  11
ATOM     11  C   LIG    1       21.846 -20.376   4.559  0.00  0.00    +0.152 C 
BRANCH  11  15
ATOM     12  C   LIG    1       25.346 -20.654   5.274  0.00  0.00    +0.156 A 
ATOM     13  S   LIG    1       25.019 -21.572   6.685  0.00  0.00    -0.061 S 
ATOM     14  C   LIG    1       23.339 -21.453   6.360  0.00  0.00    +0.072 A 
ATOM     15  C   LIG    1       23.134 -20.673   5.238  0.00  0.00    +0.059 A 
ATOM     16  N   LIG    1       24.293 -20.192   4.650  0.00  0.00    -0.230 NA
BRANCH  12  17
ATOM     17  N   LIG    1       26.592 -20.433   4.840  0.00  0.00    -0.338 N 
ATOM     18  H   LIG    1       27.197 -19.779   5.316  0.00  0.00    +0.144 HD
ATOM     19  H   LIG    1       26.776 -20.585   3.856  0.00  0.00    +0.144 HD
ENDBRANCH  12  17
ENDBRANCH  11  15
ENDBRANCH   7  11
ENDBRANCH   1   8
BRANCH   4  20
ATOM     20  C   LIG    1       23.851 -12.563   4.733  0.00  0.00    +0.050 C 
BRANCH  20  21
ATOM     21  C   LIG    1       23.844 -11.969   3.310  0.00  0.00    +0.085 C 
BRANCH  21  22
ATOM     22  N   LIG    1       24.207 -12.937   2.249  0.00  0.00    -0.313 NA
ATOM     23  H   LIG    1       23.636 -12.746   1.424  0.00  0.00    +0.122 HD
BRANCH  22  24
ATOM     24  C   LIG    1       25.639 -12.849   1.888  0.00  0.00    +0.117 C 
BRANCH  24  25
ATOM     25  C   LIG    1       26.584 -12.983   3.113  0.00  0.00    +0.158 C 
BRANCH  25  26
ATOM     26  C   LIG    1       26.918 -14.429   3.419  0.00  0.00    -0.018 A 
ATOM     27  C   LIG    1       26.188 -15.475   2.836  0.00  0.00    +0.006 A 
ATOM     28  C   LIG    1       26.473 -16.806   3.154  0.00  0.00    +0.000 A 
ATOM     29  C   LIG    1       27.491 -17.108   4.056  0.00  0.00    +0.000 A 
ATOM     30  C   LIG    1       28.235 -16.081   4.631  0.00  0.00    +0.000 A 
ATOM     31  C   LIG    1       27.952 -14.752   4.313  0.00  0.00    +0.006 A 
ENDBRANCH  25  26
BRANCH  25  32
ATOM     32  O   LIG    1       27.807 -12.284   2.878  0.00  0.00    -0.386 OA
ATOM     33  H   LIG    1       27.596 -11.340   2.993  0.00  0.00    +0.210 HD
ENDBRANCH  25  32
ENDBRANCH  24  25
ENDBRANCH  22  24
ENDBRANCH  21  22
ENDBRANCH  20  21
ENDBRANCH   4  20
TORSDOF 11
ENDMDL
MODEL 6
REMARK VINA RESULT:      -1.4      2.880      6.894
REMARK  Name = *****
REMARK                            x       y       z     vdW  Elec       q    Type
REMARK                         _______ _______ _______ _____ _____    ______ ____
ROOT
ATOM      1  C   LIG    1       27.372 -18.515   4.601  0.00  0.00    +0.033 A 
ATOM      2  C   LIG    1       26.525 -17.847   3.712  0.00  0.00    +0.023 A 
ATOM      3  C   LIG    1       26.761 -16.499   3.385  0.00  0.00    +0.005 A 
ATOM      4  C   LIG    1       27.831 -15.802   3.962  0.00  0.00    -0.046 A 
ATOM      5  C   LIG    1       28.717 -16.501   4.779  0.00  0.00    +0.005 A 
ATOM      6  C   LIG    1       28.515 -17.852   5.050  0.00  0.00    +0.023 A 
ENDROOT
BRANCH   1   8
ATOM      7  C   LIG    1       27.465 -20.348   6.289  0.00  0.00    +0.223 C 
ATOM      8  N   LIG    1       26.983 -19.773   5.125  0.00  0.00    -0.285 N 
ATOM      9  H   LIG    1       26.184 -20.222   4.681  0.00  0.00    +0.155 HD
ATOM     10  O   LIG    1       28.444 -19.955   6.944  0.00  0.00    -0.275 OA
BRANCH   7  11
ATOM     11  C   LIG    1       26.664 -21.495   6.835  0.00  0.00    +0.152 C 
BRANCH  11  15
ATOM     12  C   LIG    1       23.819 -21.448   4.658  0.00  0.00    +0.156 A 
ATOM     13  S   LIG    1       22.750 -21.497   5.998  0.00  0.00    -0.061 S 
ATOM     14  C   LIG    1       24.099 -21.518   7.059  0.00  0.00    +0.072 A 
ATOM     15  C   LIG    1       25.270 -21.548   6.325  0.00  0.00    +0.059 A 
ATOM     16  N   LIG    1       25.090 -21.546   4.951  0.00  0.00    -0.230 NA
BRANCH  12  17
ATOM     17  N   LIG    1       23.381 -21.310   3.401  0.00  0.00    -0.338 N 
ATOM     18  H   LIG    1       24.022 -21.358   2.622  0.00  0.00    +0.144 HD
ATOM     19  H   LIG    1       22.536 -20.771   3.260  0.00  0.00    +0.144 HD
ENDBRANCH  12  17
ENDBRANCH  11  15
ENDBRANCH   7  11
ENDBRANCH   1   8
BRANCH   4  20
ATOM     20  C   LIG    1       28.052 -14.329   3.725  0.00  0.00    +0.050 C 
BRANCH  20  21
ATOM     21  C   LIG    1       26.987 -13.423   4.377  0.00  0.00    +0.085 C 
BRANCH  21  22
ATOM     22  N   LIG    1       26.215 -12.607   3.412  0.00  0.00    -0.313 NA
ATOM     23  H   LIG    1       26.828 -12.352   2.636  0.00  0.00    +0.122 HD
BRANCH  22  24
ATOM     24  C   LIG    1       25.037 -13.334   2.891  0.00  0.00    +0.117 C 
BRANCH  24  25
ATOM     25  C   LIG    1       23.782 -13.184   3.794  0.00  0.00    +0.158 C 
BRANCH  25  26
ATOM     26  C   LIG    1       23.295 -14.519   4.318  0.00  0.00    -0.018 A 
ATOM     27  C   LIG    1       23.566 -15.707   3.623  0.00  0.00    +0.006 A 
ATOM     28  C   LIG    1       23.078 -16.931   4.088  0.00  0.00    +0.000 A 
ATOM     29  C   LIG    1       22.316 -16.984   5.254  0.00  0.00    +0.000 A 
ATOM     30  C   LIG    1       22.052 -15.815   5.964  0.00  0.00    +0.000 A 
ATOM     31  C   LIG    1       22.540 -14.593   5.501  0.00  0.00    +0.006 A 
ENDBRANCH  25  26
BRANCH  25  32
ATOM     32  O   LIG    1       24.071 -12.345   4.913  0.00  0.00    -0.386 OA
ATOM     33  H   LIG    1       24.878 -12.713   5.315  0.00  0.00    +0.210 HD
ENDBRANCH  25  32
ENDBRANCH  24  25
ENDBRANCH  22  24
ENDBRANCH  21  22
ENDBRANCH  20  21
ENDBRANCH   4  20
TORSDOF 11
ENDMDL
MODEL 7
REMARK VINA RESULT:      -1.4      2.979      6.879
REMARK  Name = *****
REMARK                            x       y       z     vdW  Elec       q    Type
REMARK                         _______ _______ _______ _____ _____    ______ ____
ROOT
ATOM      1  C   LIG    1       27.297 -16.660   4.021  0.00  0.00    +0.033 A 
ATOM      2  C   LIG    1       28.002 -15.636   4.662  0.00  0.00    +0.023 A 
ATOM      3  C   LIG    1       27.873 -14.305   4.224  0.00  0.00    +0.005 A 
ATOM      4  C   LIG    1       27.057 -13.990   3.128  0.00  0.00    -0.046 A 
ATOM      5  C   LIG    1       26.296 -15.005   2.553  0.00  0.00    +0.005 A 
ATOM      6  C   LIG    1       26.379 -16.310   3.031  0.00  0.00    +0.023 A 
ENDROOT
BRANCH   1   8
ATOM      7  C   LIG    1       28.587 -18.443   5.192  0.00  0.00    +0.223 C 
ATOM      8  N   LIG    1       27.630 -18.011   4.291  0.00  0.00    -0.285 N 
ATOM      9  H   LIG    1       27.017 -18.718   3.889  0.00  0.00    +0.155 HD
ATOM     10  O   LIG    1       29.434 -17.728   5.754  0.00  0.00    -0.275 OA
BRANCH   7  11
ATOM     11  C   LIG    1       28.521 -19.893   5.576  0.00  0.00    +0.152 C 
BRANCH  11  15
ATOM     12  C   LIG    1       25.007 -20.549   5.335  0.00  0.00    +0.156 A 
ATOM     13  S   LIG    1       24.984 -21.193   6.924  0.00  0.00    -0.061 S 
ATOM     14  C   LIG    1       26.666 -20.885   7.062  0.00  0.00    +0.072 A 
ATOM     15  C   LIG    1       27.146 -20.372   5.872  0.00  0.00    +0.059 A 
ATOM     16  N   LIG    1       26.189 -20.221   4.881  0.00  0.00    -0.230 NA
BRANCH  12  17
ATOM     17  N   LIG    1       23.890 -20.388   4.615  0.00  0.00    -0.338 N 
ATOM     18  H   LIG    1       23.869 -19.750   3.832  0.00  0.00    +0.144 HD
ATOM     19  H   LIG    1       23.008 -20.565   5.078  0.00  0.00    +0.144 HD
ENDBRANCH  12  17
ENDBRANCH  11  15
ENDBRANCH   7  11
ENDBRANCH   1   8
BRANCH   4  20
ATOM     20  C   LIG    1       26.979 -12.596   2.559  0.00  0.00    +0.050 C 
BRANCH  20  21
ATOM     21  C   LIG    1       25.627 -12.263   1.897  0.00  0.00    +0.085 C 
BRANCH  21  22
ATOM     22  N   LIG    1       24.455 -12.853   2.585  0.00  0.00    -0.313 NA
ATOM     23  H   LIG    1       24.746 -13.721   3.039  0.00  0.00    +0.122 HD
BRANCH  22  24
ATOM     24  C   LIG    1       23.888 -11.934   3.596  0.00  0.00    +0.117 C 
BRANCH  24  25
ATOM     25  C   LIG    1       23.890 -12.532   5.029  0.00  0.00    +0.158 C 
BRANCH  25  26
ATOM     26  C   LIG    1       23.330 -13.939   5.060  0.00  0.00    -0.018 A 
ATOM     27  C   LIG    1       23.625 -14.853   4.037  0.00  0.00    +0.006 A 
ATOM     28  C   LIG    1       23.071 -16.136   4.048  0.00  0.00    +0.000 A 
ATOM     29  C   LIG    1       22.219 -16.523   5.080  0.00  0.00    +0.000 A 
ATOM     30  C   LIG    1       21.929 -15.633   6.111  0.00  0.00    +0.000 A 
ATOM     31  C   LIG    1       22.482 -14.352   6.102  0.00  0.00    +0.006 A 
ENDBRANCH  25  26
BRANCH  25  32
ATOM     32  O   LIG    1       25.219 -12.572   5.551  0.00  0.00    -0.386 OA
ATOM     33  H   LIG    1       25.730 -11.938   5.016  0.00  0.00    +0.210 HD
ENDBRANCH  25  32
ENDBRANCH  24  25
ENDBRANCH  22  24
ENDBRANCH  21  22
ENDBRANCH  20  21
ENDBRANCH   4  20
TORSDOF 11
ENDMDL
MODEL 8
REMARK VINA RESULT:      -0.6      2.662      6.586
REMARK  Name = *****
REMARK                            x       y       z     vdW  Elec       q    Type
REMARK                         _______ _______ _______ _____ _____    ______ ____
ROOT
ATOM      1  C   LIG    1       24.939 -20.444   5.070  0.00  0.00    +0.033 A 
ATOM      2  C   LIG    1       25.558 -20.953   6.215  0.00  0.00    +0.023 A 
ATOM      3  C   LIG    1       26.900 -20.638   6.496  0.00  0.00    +0.005 A 
ATOM      4  C   LIG    1       27.641 -19.830   5.622  0.00  0.00    -0.046 A 
ATOM      5  C   LIG    1       26.990 -19.260   4.530  0.00  0.00    +0.005 A 
ATOM      6  C   LIG    1       25.644 -19.525   4.292  0.00  0.00    +0.023 A 
ENDROOT
BRANCH   1   8
ATOM      7  C   LIG    1       22.674 -21.392   5.499  0.00  0.00    +0.223 C 
ATOM      8  N   LIG    1       23.690 -20.971   4.658  0.00  0.00    -0.285 N 
ATOM      9  H   LIG    1       23.473 -20.902   3.666  0.00  0.00    +0.155 HD
ATOM     10  O   LIG    1       22.768 -21.562   6.726  0.00  0.00    -0.275 OA
BRANCH   7  11
ATOM     11  C   LIG    1       21.326 -21.570   4.863  0.00  0.00    +0.152 C 
BRANCH  11  15
ATOM     12  C   LIG    1       20.958 -18.181   3.760  0.00  0.00    +0.156 A 
ATOM     13  S   LIG    1       19.427 -18.535   3.073  0.00  0.00    -0.061 S 
ATOM     14  C   LIG    1       19.581 -20.162   3.594  0.00  0.00    +0.072 A 
ATOM     15  C   LIG    1       20.810 -20.344   4.200  0.00  0.00    +0.059 A 
ATOM     16  N   LIG    1       21.601 -19.208   4.253  0.00  0.00    -0.230 NA
BRANCH  12  17
ATOM     17  N   LIG    1       21.453 -16.938   3.795  0.00  0.00    -0.338 N 
ATOM     18  H   LIG    1       21.005 -16.219   4.345  0.00  0.00    +0.144 HD
ATOM     19  H   LIG    1       21.988 -16.629   2.994  0.00  0.00    +0.144 HD
ENDBRANCH  12  17
ENDBRANCH  11  15
ENDBRANCH   7  11
ENDBRANCH   1   8
BRANCH   4  20
ATOM     20  C   LIG    1       29.110 -19.560   5.828  0.00  0.00    +0.050 C 
BRANCH  20  21
ATOM     21  C   LIG    1       29.475 -18.062   5.862  0.00  0.00    +0.085 C 
BRANCH  21  22
ATOM     22  N   LIG    1       29.009 -17.300   4.681  0.00  0.00    -0.313 NA
ATOM     23  H   LIG    1       28.409 -17.905   4.117  0.00  0.00    +0.122 HD
BRANCH  22  24
ATOM     24  C   LIG    1       28.258 -16.085   5.068  0.00  0.00    +0.117 C 
BRANCH  24  25
ATOM     25  C   LIG    1       27.824 -15.225   3.850  0.00  0.00    +0.158 C 
BRANCH  25  26
ATOM     26  C   LIG    1       26.464 -14.590   4.056  0.00  0.00    -0.018 A 
ATOM     27  C   LIG    1       26.344 -13.332   4.666  0.00  0.00    +0.006 A 
ATOM     28  C   LIG    1       25.085 -12.769   4.893  0.00  0.00    +0.000 A 
ATOM     29  C   LIG    1       23.932 -13.453   4.513  0.00  0.00    +0.000 A 
ATOM     30  C   LIG    1       24.036 -14.696   3.892  0.00  0.00    +0.000 A 
ATOM     31  C   LIG    1       25.292 -15.258   3.664  0.00  0.00    +0.006 A 
ENDBRANCH  25  26
BRANCH  25  32
ATOM     32  O   LIG    1       28.770 -14.182   3.613  0.00  0.00    -0.386 OA
ATOM     33  H   LIG    1       28.261 -13.352   3.651  0.00  0.00    +0.210 HD
ENDBRANCH  25  32
ENDBRANCH  24  25
ENDBRANCH  22  24
ENDBRANCH  21  22
ENDBRANCH  20  21
ENDBRANCH   4  20
TORSDOF 11
ENDMDL
