MODEL 1
REMARK VINA RESULT:       3.0      0.000      0.000
REMARK  Name = *****
REMARK                            x       y       z     vdW  Elec       q    Type
REMARK                         _______ _______ _______ _____ _____    ______ ____
ROOT
ATOM      1  C   LIG    1       24.379 -17.535   3.735  0.00  0.00    +0.065 A 
ATOM      2  C   LIG    1       24.064 -16.218   4.130  0.00  0.00    +0.049 A 
ATOM      3  I   LIG    1       22.358 -15.837   5.423  0.00  0.00    -0.041 I 
ATOM      4  C   LIG    1       24.933 -15.151   3.804  0.00  0.00    +0.064 A 
ATOM      5  C   LIG    1       26.231 -15.473   3.375  0.00  0.00    +0.049 A 
ATOM      6  I   LIG    1       27.470 -14.126   2.291  0.00  0.00    -0.041 I 
ATOM      7  C   LIG    1       26.676 -16.789   3.444  0.00  0.00    +0.065 A 
ATOM      8  C   LIG    1       25.707 -17.794   3.338  0.00  0.00    +0.040 A 
ATOM      9  I   LIG    1       26.235 -19.368   1.997  0.00  0.00    -0.042 I 
ENDROOT
BRANCH   1  11
ATOM     10  O   LIG    1       22.978 -19.138   2.696  0.00  0.00    -0.270 OA
ATOM     11  C   LIG    1       23.346 -18.623   3.731  0.00  0.00    +0.246 C 
ATOM     12  N   LIG    1       22.858 -19.005   4.964  0.00  0.00    -0.309 N 
ATOM     13  H   LIG    1       23.277 -18.648   5.812  0.00  0.00    +0.149 HD
BRANCH  12  14
ATOM     14  C   LIG    1       21.876 -20.059   5.142  0.00  0.00    +0.138 C 
BRANCH  14  15
ATOM     15  C   LIG    1       22.542 -21.423   5.387  0.00  0.00    +0.157 C 
BRANCH  15  16
ATOM     16  O   LIG    1       23.690 -21.572   4.538  0.00  0.00    -0.388 OA
ATOM     17  H   LIG    1       23.681 -20.789   3.950  0.00  0.00    +0.210 HD
ENDBRANCH  15  16
BRANCH  15  18
ATOM     18  C   LIG    1       22.983 -21.571   6.846  0.00  0.00    +0.188 C 
BRANCH  18  19
ATOM     19  O   LIG    1       24.151 -20.773   7.059  0.00  0.00    -0.392 OA
ATOM     20  H   LIG    1       24.405 -20.394   6.198  0.00  0.00    +0.209 HD
ENDBRANCH  18  19
ENDBRANCH  15  18
ENDBRANCH  14  15
ENDBRANCH  12  14
ENDBRANCH   1  11
BRANCH   7  21
ATOM     21  C   LIG    1       27.781 -17.081   4.464  0.00  0.00    +0.246 C 
ATOM     22  N   LIG    1       27.939 -18.423   4.814  0.00  0.00    -0.309 N 
ATOM     23  H   LIG    1       27.317 -19.123   4.441  0.00  0.00    +0.149 HD
ATOM     24  O   LIG    1       28.524 -16.218   4.865  0.00  0.00    -0.270 OA
BRANCH  22  25
ATOM     25  C   LIG    1       29.068 -18.920   5.588  0.00  0.00    +0.138 C 
BRANCH  25  26
ATOM     26  C   LIG    1       28.664 -19.942   6.675  0.00  0.00    +0.157 C 
BRANCH  26  27
ATOM     27  O   LIG    1       29.321 -21.202   6.429  0.00  0.00    -0.388 OA
ATOM     28  H   LIG    1       30.042 -21.306   7.073  0.00  0.00    +0.210 HD
ENDBRANCH  26  27
BRANCH  26  29
ATOM     29  C   LIG    1       27.136 -20.138   6.683  0.00  0.00    +0.188 C 
BRANCH  29  30
ATOM     30  O   LIG    1       26.677 -20.785   5.498  0.00  0.00    -0.392 OA
ATOM     31  H   LIG    1       26.884 -20.209   4.742  0.00  0.00    +0.209 HD
ENDBRANCH  29  30
ENDBRANCH  26  29
ENDBRANCH  25  26
ENDBRANCH  22  25
ENDBRANCH   7  21
BRANCH   4  32
ATOM     32  N   LIG    1       24.512 -13.782   3.877  0.00  0.00    -0.265 N 
ATOM     33  C   LIG    1       25.042 -12.975   4.897  0.00  0.00    +0.245 C 
ATOM     34  O   LIG    1       25.879 -13.387   5.706  0.00  0.00    -0.273 OA
BRANCH  32  35
ATOM     35  C   LIG    1       23.759 -13.278   2.707  0.00  0.00    +0.141 C 
BRANCH  35  36
ATOM     36  C   LIG    1       24.045 -11.805   2.380  0.00  0.00    +0.175 C 
BRANCH  36  37
ATOM     37  O   LIG    1       25.348 -11.649   1.835  0.00  0.00    -0.393 OA
ATOM     38  H   LIG    1       25.222 -11.487   0.881  0.00  0.00    +0.209 HD
ENDBRANCH  36  37
ENDBRANCH  35  36
ENDBRANCH  32  35
BRANCH  33  39
ATOM     39  C   LIG    1       24.453 -11.561   5.065  0.00  0.00    +0.252 C 
BRANCH  39  40
ATOM     40  O   LIG    1       23.150 -11.486   5.612  0.00  0.00    -0.386 OA
ATOM     41  H   LIG    1       22.621 -10.915   5.026  0.00  0.00    +0.210 HD
ENDBRANCH  39  40
ENDBRANCH  33  39
ENDBRANCH   4  32
TORSDOF 18
ENDMDL
