MODEL 1
REMARK VINA RESULT:      -3.3      0.000      0.000
REMARK  Name = *****
REMARK                            x       y       z     vdW  Elec       q    Type
REMARK                         _______ _______ _______ _____ _____    ______ ____
ROOT
ATOM      1  N   LIG    1       30.274 -21.326   8.093  0.00  0.00    -0.314 N 
ATOM      2  H   LIG    1       30.012 -22.292   7.952  0.00  0.00    +0.146 HD
ATOM      3  H   LIG    1       29.741 -20.600   7.644  0.00  0.00    +0.146 HD
ATOM      4  C   LIG    1       31.334 -21.082   8.886  0.00  0.00    +0.294 C 
ATOM      5  O   LIG    1       31.976 -21.968   9.428  0.00  0.00    -0.253 OA
ATOM      6  N   LIG    1       31.623 -19.775   9.029  0.00  0.00    -0.314 N 
ATOM      7  H   LIG    1       32.410 -19.534   9.614  0.00  0.00    +0.146 HD
ATOM      8  H   LIG    1       31.097 -19.043   8.584  0.00  0.00    +0.146 HD
ENDROOT
TORSDOF 0
ENDMDL
MODEL 2
REMARK VINA RESULT:      -3.3      0.010      1.597
REMARK  Name = *****
REMARK                            x       y       z     vdW  Elec       q    Type
REMARK                         _______ _______ _______ _____ _____    ______ ____
ROOT
ATOM      1  N   LIG    1       31.620 -19.782   9.040  0.00  0.00    -0.314 N 
ATOM      2  H   LIG    1       32.408 -19.547   9.629  0.00  0.00    +0.146 HD
ATOM      3  H   LIG    1       31.095 -19.044   8.601  0.00  0.00    +0.146 HD
ATOM      4  C   LIG    1       31.330 -21.087   8.886  0.00  0.00    +0.294 C 
ATOM      5  O   LIG    1       31.971 -21.977   9.422  0.00  0.00    -0.253 OA
ATOM      6  N   LIG    1       30.271 -21.324   8.089  0.00  0.00    -0.314 N 
ATOM      7  H   LIG    1       30.009 -22.288   7.939  0.00  0.00    +0.146 HD
ATOM      8  H   LIG    1       29.741 -20.593   7.647  0.00  0.00    +0.146 HD
ENDROOT
TORSDOF 0
ENDMDL
MODEL 3
REMARK VINA RESULT:      -3.1      1.461      1.620
REMARK  Name = *****
REMARK                            x       y       z     vdW  Elec       q    Type
REMARK                         _______ _______ _______ _____ _____    ______ ____
ROOT
ATOM      1  N   LIG    1       30.368 -20.613   7.776  0.00  0.00    -0.314 N 
ATOM      2  H   LIG    1       30.072 -19.652   7.673  0.00  0.00    +0.146 HD
ATOM      3  H   LIG    1       29.904 -21.332   7.246  0.00  0.00    +0.146 HD
ATOM      4  C   LIG    1       31.379 -20.862   8.630  0.00  0.00    +0.294 C 
ATOM      5  O   LIG    1       31.938 -19.985   9.270  0.00  0.00    -0.253 OA
ATOM      6  N   LIG    1       31.719 -22.161   8.715  0.00  0.00    -0.314 N 
ATOM      7  H   LIG    1       32.472 -22.405   9.343  0.00  0.00    +0.146 HD
ATOM      8  H   LIG    1       31.260 -22.886   8.190  0.00  0.00    +0.146 HD
ENDROOT
TORSDOF 0
ENDMDL
MODEL 4
REMARK VINA RESULT:      -3.1      1.601      1.601
REMARK  Name = *****
REMARK                            x       y       z     vdW  Elec       q    Type
REMARK                         _______ _______ _______ _____ _____    ______ ____
ROOT
ATOM      1  N   LIG    1       31.681 -21.915   8.703  0.00  0.00    -0.314 N 
ATOM      2  H   LIG    1       31.663 -22.419   9.579  0.00  0.00    +0.146 HD
ATOM      3  H   LIG    1       32.000 -22.383   7.871  0.00  0.00    +0.146 HD
ATOM      4  C   LIG    1       31.269 -20.634   8.717  0.00  0.00    +0.294 C 
ATOM      5  O   LIG    1       30.883 -20.071   9.730  0.00  0.00    -0.253 OA
ATOM      6  N   LIG    1       31.319 -20.027   7.516  0.00  0.00    -0.314 N 
ATOM      7  H   LIG    1       31.021 -19.063   7.469  0.00  0.00    +0.146 HD
ATOM      8  H   LIG    1       31.636 -20.487   6.680  0.00  0.00    +0.146 HD
ENDROOT
TORSDOF 0
ENDMDL
MODEL 5
REMARK VINA RESULT:      -3.0      2.101      2.464
REMARK  Name = *****
REMARK                            x       y       z     vdW  Elec       q    Type
REMARK                         _______ _______ _______ _____ _____    ______ ____
ROOT
ATOM      1  N   LIG    1       30.599 -18.059   8.479  0.00  0.00    -0.314 N 
ATOM      2  H   LIG    1       30.606 -17.499   9.320  0.00  0.00    +0.146 HD
ATOM      3  H   LIG    1       30.004 -17.790   7.713  0.00  0.00    +0.146 HD
ATOM      4  C   LIG    1       31.399 -19.140   8.447  0.00  0.00    +0.294 C 
ATOM      5  O   LIG    1       32.118 -19.461   9.380  0.00  0.00    -0.253 OA
ATOM      6  N   LIG    1       31.338 -19.836   7.297  0.00  0.00    -0.314 N 
ATOM      7  H   LIG    1       31.919 -20.658   7.219  0.00  0.00    +0.146 HD
ATOM      8  H   LIG    1       30.747 -19.575   6.526  0.00  0.00    +0.146 HD
ENDROOT
TORSDOF 0
ENDMDL
MODEL 6
REMARK VINA RESULT:      -2.9      2.590      2.758
REMARK  Name = *****
REMARK                            x       y       z     vdW  Elec       q    Type
REMARK                         _______ _______ _______ _____ _____    ______ ____
ROOT
ATOM      1  N   LIG    1       31.696 -20.125   8.968  0.00  0.00    -0.314 N 
ATOM      2  H   LIG    1       31.873 -20.576   8.081  0.00  0.00    +0.146 HD
ATOM      3  H   LIG    1       31.532 -20.691   9.784  0.00  0.00    +0.146 HD
ATOM      4  C   LIG    1       31.694 -18.780   8.991  0.00  0.00    +0.294 C 
ATOM      5  O   LIG    1       31.894 -18.099   7.997  0.00  0.00    -0.253 OA
ATOM      6  N   LIG    1       31.453 -18.251  10.205  0.00  0.00    -0.314 N 
ATOM      7  H   LIG    1       31.440 -17.244  10.280  0.00  0.00    +0.146 HD
ATOM      8  H   LIG    1       31.288 -18.808  11.026  0.00  0.00    +0.146 HD
ENDROOT
TORSDOF 0
ENDMDL
MODEL 7
REMARK VINA RESULT:      -2.8      3.218      3.218
REMARK  Name = *****
REMARK                            x       y       z     vdW  Elec       q    Type
REMARK                         _______ _______ _______ _____ _____    ______ ____
ROOT
ATOM      1  N   LIG    1       29.764 -20.448   6.780  0.00  0.00    -0.314 N 
ATOM      2  H   LIG    1       28.896 -20.452   6.261  0.00  0.00    +0.146 HD
ATOM      3  H   LIG    1       30.021 -21.260   7.316  0.00  0.00    +0.146 HD
ATOM      4  C   LIG    1       30.522 -19.338   6.712  0.00  0.00    +0.294 C 
ATOM      5  O   LIG    1       30.204 -18.356   6.060  0.00  0.00    -0.253 OA
ATOM      6  N   LIG    1       31.661 -19.405   7.426  0.00  0.00    -0.314 N 
ATOM      7  H   LIG    1       32.268 -18.598   7.411  0.00  0.00    +0.146 HD
ATOM      8  H   LIG    1       31.926 -20.212   7.965  0.00  0.00    +0.146 HD
ENDROOT
TORSDOF 0
ENDMDL
MODEL 8
REMARK VINA RESULT:      -2.8      8.163      8.513
REMARK  Name = *****
REMARK                            x       y       z     vdW  Elec       q    Type
REMARK                         _______ _______ _______ _____ _____    ______ ____
ROOT
ATOM      1  N   LIG    1       23.878 -25.966   5.334  0.00  0.00    -0.314 N 
ATOM      2  H   LIG    1       23.915 -26.947   5.573  0.00  0.00    +0.146 HD
ATOM      3  H   LIG    1       22.984 -25.509   5.263  0.00  0.00    +0.146 HD
ATOM      4  C   LIG    1       25.048 -25.334   5.128  0.00  0.00    +0.294 C 
ATOM      5  O   LIG    1       26.129 -25.894   5.216  0.00  0.00    -0.253 OA
ATOM      6  N   LIG    1       24.921 -24.030   4.816  0.00  0.00    -0.314 N 
ATOM      7  H   LIG    1       25.768 -23.507   4.650  0.00  0.00    +0.146 HD
ATOM      8  H   LIG    1       24.032 -23.566   4.742  0.00  0.00    +0.146 HD
ENDROOT
TORSDOF 0
ENDMDL
MODEL 9
REMARK VINA RESULT:      -2.7      8.910      8.989
REMARK  Name = *****
REMARK                            x       y       z     vdW  Elec       q    Type
REMARK                         _______ _______ _______ _____ _____    ______ ____
ROOT
ATOM      1  N   LIG    1       24.828 -24.911   4.835  0.00  0.00    -0.314 N 
ATOM      2  H   LIG    1       25.377 -25.605   4.347  0.00  0.00    +0.146 HD
ATOM      3  H   LIG    1       24.873 -23.950   4.539  0.00  0.00    +0.146 HD
ATOM      4  C   LIG    1       24.065 -25.333   5.860  0.00  0.00    +0.294 C 
ATOM      5  O   LIG    1       24.015 -26.500   6.214  0.00  0.00    -0.253 OA
ATOM      6  N   LIG    1       23.363 -24.354   6.461  0.00  0.00    -0.314 N 
ATOM      7  H   LIG    1       22.773 -24.615   7.239  0.00  0.00    +0.146 HD
ATOM      8  H   LIG    1       23.401 -23.392   6.173  0.00  0.00    +0.146 HD
ENDROOT
TORSDOF 0
ENDMDL
