MODEL 1
REMARK VINA RESULT:      -7.5      0.000      0.000
REMARK  Name = *****
REMARK                            x       y       z     vdW  Elec       q    Type
REMARK                         _______ _______ _______ _____ _____    ______ ____
ROOT
ATOM      1  C   LIG    1       24.725 -23.054   6.135  0.00  0.00    -0.014 C 
ATOM      2  C   LIG    1       23.543 -22.607   7.040  0.00  0.00    +0.012 C 
ATOM      3  C   LIG    1       23.566 -21.083   7.268  0.00  0.00    -0.010 C 
ATOM      4  C   LIG    1       24.888 -20.689   7.945  0.00  0.00    +0.007 C 
ATOM      5  C   LIG    1       26.073 -21.084   7.051  0.00  0.00    -0.010 C 
ATOM      6  C   LIG    1       25.954 -20.365   5.700  0.00  0.00    +0.007 C 
ATOM      7  C   LIG    1       24.637 -20.756   5.014  0.00  0.00    -0.010 C 
ATOM      8  C   LIG    1       23.455 -20.365   5.916  0.00  0.00    +0.007 C 
ATOM      9  C   LIG    1       26.047 -22.606   6.825  0.00  0.00    +0.012 C 
ATOM     10  C   LIG    1       24.615 -22.276   4.787  0.00  0.00    +0.012 C 
ENDROOT
BRANCH   1  12
ATOM     11  C   LIG    1       25.879 -25.359   6.550  0.00  0.00    +0.024 C 
ATOM     12  C   LIG    1       24.743 -24.595   5.861  0.00  0.00    +0.054 C 
BRANCH  12  13
ATOM     13  N   LIG    1       23.474 -25.234   6.230  0.00  0.00    -0.327 NA
ATOM     14  H   LIG    1       23.074 -25.699   5.416  0.00  0.00    +0.118 HD
ATOM     15  H   LIG    1       23.642 -25.969   6.916  0.00  0.00    +0.118 HD
ENDBRANCH  12  13
ENDBRANCH   1  12
TORSDOF 2
ENDMDL
MODEL 2
REMARK VINA RESULT:      -7.4      0.048      2.086
REMARK  Name = *****
REMARK                            x       y       z     vdW  Elec       q    Type
REMARK                         _______ _______ _______ _____ _____    ______ ____
ROOT
ATOM      1  C   LIG    1       24.731 -23.039   6.104  0.00  0.00    -0.014 C 
ATOM      2  C   LIG    1       24.601 -22.249   4.771  0.00  0.00    +0.012 C 
ATOM      3  C   LIG    1       24.613 -20.729   5.025  0.00  0.00    -0.010 C 
ATOM      4  C   LIG    1       23.437 -20.357   5.942  0.00  0.00    +0.007 C 
ATOM      5  C   LIG    1       23.564 -21.094   7.284  0.00  0.00    -0.010 C 
ATOM      6  C   LIG    1       24.885 -20.701   7.959  0.00  0.00    +0.007 C 
ATOM      7  C   LIG    1       26.066 -21.073   7.051  0.00  0.00    -0.010 C 
ATOM      8  C   LIG    1       25.931 -20.338   5.708  0.00  0.00    +0.007 C 
ATOM      9  C   LIG    1       23.552 -22.611   7.027  0.00  0.00    +0.012 C 
ATOM     10  C   LIG    1       26.054 -22.589   6.798  0.00  0.00    +0.012 C 
ENDROOT
BRANCH   1  12
ATOM     11  C   LIG    1       25.834 -25.337   6.669  0.00  0.00    +0.024 C 
ATOM     12  C   LIG    1       24.736 -24.591   5.902  0.00  0.00    +0.054 C 
BRANCH  12  13
ATOM     13  N   LIG    1       23.444 -25.195   6.253  0.00  0.00    -0.327 NA
ATOM     14  H   LIG    1       23.048 -24.712   7.058  0.00  0.00    +0.118 HD
ATOM     15  H   LIG    1       22.780 -25.060   5.492  0.00  0.00    +0.118 HD
ENDBRANCH  12  13
ENDBRANCH   1  12
TORSDOF 2
ENDMDL
MODEL 3
REMARK VINA RESULT:      -7.4      0.054      2.092
REMARK  Name = *****
REMARK                            x       y       z     vdW  Elec       q    Type
REMARK                         _______ _______ _______ _____ _____    ______ ____
ROOT
ATOM      1  C   LIG    1       24.771 -23.049   6.155  0.00  0.00    -0.014 C 
ATOM      2  C   LIG    1       26.084 -22.579   6.844  0.00  0.00    +0.012 C 
ATOM      3  C   LIG    1       26.078 -21.054   7.064  0.00  0.00    -0.010 C 
ATOM      4  C   LIG    1       25.946 -20.345   5.707  0.00  0.00    +0.007 C 
ATOM      5  C   LIG    1       24.636 -20.762   5.022  0.00  0.00    -0.010 C 
ATOM      6  C   LIG    1       23.448 -20.380   5.918  0.00  0.00    +0.007 C 
ATOM      7  C   LIG    1       23.570 -21.088   7.274  0.00  0.00    -0.010 C 
ATOM      8  C   LIG    1       24.885 -20.673   7.952  0.00  0.00    +0.007 C 
ATOM      9  C   LIG    1       24.644 -22.285   4.804  0.00  0.00    +0.012 C 
ATOM     10  C   LIG    1       23.575 -22.610   7.054  0.00  0.00    +0.012 C 
ENDROOT
BRANCH   1  12
ATOM     11  C   LIG    1       25.811 -25.395   6.637  0.00  0.00    +0.024 C 
ATOM     12  C   LIG    1       24.720 -24.596   5.918  0.00  0.00    +0.054 C 
BRANCH  12  13
ATOM     13  N   LIG    1       23.418 -25.166   6.289  0.00  0.00    -0.327 NA
ATOM     14  H   LIG    1       23.528 -26.155   6.508  0.00  0.00    +0.118 HD
ATOM     15  H   LIG    1       23.079 -24.728   7.144  0.00  0.00    +0.118 HD
ENDBRANCH  12  13
ENDBRANCH   1  12
TORSDOF 2
ENDMDL
MODEL 4
REMARK VINA RESULT:      -7.4      2.119      3.821
REMARK  Name = *****
REMARK                            x       y       z     vdW  Elec       q    Type
REMARK                         _______ _______ _______ _____ _____    ______ ____
ROOT
ATOM      1  C   LIG    1       24.611 -20.772   5.086  0.00  0.00    -0.014 C 
ATOM      2  C   LIG    1       24.570 -22.302   4.814  0.00  0.00    +0.012 C 
ATOM      3  C   LIG    1       24.652 -23.101   6.129  0.00  0.00    -0.010 C 
ATOM      4  C   LIG    1       25.964 -22.758   6.851  0.00  0.00    +0.007 C 
ATOM      5  C   LIG    1       26.012 -21.256   7.168  0.00  0.00    -0.010 C 
ATOM      6  C   LIG    1       24.822 -20.886   8.064  0.00  0.00    +0.007 C 
ATOM      7  C   LIG    1       23.506 -21.221   7.349  0.00  0.00    -0.010 C 
ATOM      8  C   LIG    1       23.465 -22.723   7.028  0.00  0.00    +0.007 C 
ATOM      9  C   LIG    1       25.929 -20.461   5.853  0.00  0.00    +0.012 C 
ATOM     10  C   LIG    1       23.424 -20.423   6.037  0.00  0.00    +0.012 C 
ENDROOT
BRANCH   1  12
ATOM     11  C   LIG    1       23.388 -18.877   3.771  0.00  0.00    +0.024 C 
ATOM     12  C   LIG    1       24.518 -19.911   3.781  0.00  0.00    +0.054 C 
BRANCH  12  13
ATOM     13  N   LIG    1       25.778 -19.214   3.493  0.00  0.00    -0.327 NA
ATOM     14  H   LIG    1       26.314 -19.744   2.807  0.00  0.00    +0.118 HD
ATOM     15  H   LIG    1       25.584 -18.313   3.057  0.00  0.00    +0.118 HD
ENDBRANCH  12  13
ENDBRANCH   1  12
TORSDOF 2
ENDMDL
MODEL 5
REMARK VINA RESULT:      -7.3      2.119      3.991
REMARK  Name = *****
REMARK                            x       y       z     vdW  Elec       q    Type
REMARK                         _______ _______ _______ _____ _____    ______ ____
ROOT
ATOM      1  C   LIG    1       24.648 -20.745   5.131  0.00  0.00    -0.014 C 
ATOM      2  C   LIG    1       25.962 -20.473   5.916  0.00  0.00    +0.012 C 
ATOM      3  C   LIG    1       26.016 -21.309   7.210  0.00  0.00    -0.010 C 
ATOM      4  C   LIG    1       24.818 -20.945   8.102  0.00  0.00    +0.007 C 
ATOM      5  C   LIG    1       23.504 -21.243   7.362  0.00  0.00    -0.010 C 
ATOM      6  C   LIG    1       23.446 -22.736   7.008  0.00  0.00    +0.007 C 
ATOM      7  C   LIG    1       24.637 -23.107   6.114  0.00  0.00    -0.010 C 
ATOM      8  C   LIG    1       25.948 -22.801   6.855  0.00  0.00    +0.007 C 
ATOM      9  C   LIG    1       23.454 -20.408   6.071  0.00  0.00    +0.012 C 
ATOM     10  C   LIG    1       24.582 -22.273   4.823  0.00  0.00    +0.012 C 
ENDROOT
BRANCH   1  12
ATOM     11  C   LIG    1       23.404 -18.908   3.754  0.00  0.00    +0.024 C 
ATOM     12  C   LIG    1       24.546 -19.929   3.798  0.00  0.00    +0.054 C 
BRANCH  12  13
ATOM     13  N   LIG    1       25.798 -19.226   3.488  0.00  0.00    -0.327 NA
ATOM     14  H   LIG    1       25.686 -18.693   2.626  0.00  0.00    +0.118 HD
ATOM     15  H   LIG    1       26.001 -18.541   4.214  0.00  0.00    +0.118 HD
ENDBRANCH  12  13
ENDBRANCH   1  12
TORSDOF 2
ENDMDL
MODEL 6
REMARK VINA RESULT:      -7.3      2.116      3.837
REMARK  Name = *****
REMARK                            x       y       z     vdW  Elec       q    Type
REMARK                         _______ _______ _______ _____ _____    ______ ____
ROOT
ATOM      1  C   LIG    1       24.568 -20.731   5.122  0.00  0.00    -0.014 C 
ATOM      2  C   LIG    1       23.380 -20.430   6.078  0.00  0.00    +0.012 C 
ATOM      3  C   LIG    1       23.479 -21.270   7.366  0.00  0.00    -0.010 C 
ATOM      4  C   LIG    1       23.460 -22.763   7.003  0.00  0.00    +0.007 C 
ATOM      5  C   LIG    1       24.650 -23.096   6.089  0.00  0.00    -0.010 C 
ATOM      6  C   LIG    1       25.960 -22.761   6.816  0.00  0.00    +0.007 C 
ATOM      7  C   LIG    1       25.989 -21.270   7.179  0.00  0.00    -0.010 C 
ATOM      8  C   LIG    1       24.794 -20.941   8.088  0.00  0.00    +0.007 C 
ATOM      9  C   LIG    1       24.548 -22.255   4.805  0.00  0.00    +0.012 C 
ATOM     10  C   LIG    1       25.890 -20.433   5.894  0.00  0.00    +0.012 C 
ENDROOT
BRANCH   1  12
ATOM     11  C   LIG    1       23.428 -18.822   3.753  0.00  0.00    +0.024 C 
ATOM     12  C   LIG    1       24.523 -19.894   3.800  0.00  0.00    +0.054 C 
BRANCH  12  13
ATOM     13  N   LIG    1       25.809 -19.244   3.516  0.00  0.00    -0.327 NA
ATOM     14  H   LIG    1       26.386 -19.862   2.947  0.00  0.00    +0.118 HD
ATOM     15  H   LIG    1       25.659 -18.408   2.953  0.00  0.00    +0.118 HD
ENDBRANCH  12  13
ENDBRANCH   1  12
TORSDOF 2
ENDMDL
MODEL 7
REMARK VINA RESULT:      -7.2      2.015      3.661
REMARK  Name = *****
REMARK                            x       y       z     vdW  Elec       q    Type
REMARK                         _______ _______ _______ _____ _____    ______ ____
ROOT
ATOM      1  C   LIG    1       25.510 -21.719   7.308  0.00  0.00    -0.014 C 
ATOM      2  C   LIG    1       25.673 -21.163   5.865  0.00  0.00    +0.012 C 
ATOM      3  C   LIG    1       24.573 -21.709   4.934  0.00  0.00    -0.010 C 
ATOM      4  C   LIG    1       24.659 -23.243   4.890  0.00  0.00    +0.007 C 
ATOM      5  C   LIG    1       24.461 -23.820   6.299  0.00  0.00    -0.010 C 
ATOM      6  C   LIG    1       23.085 -23.399   6.834  0.00  0.00    +0.007 C 
ATOM      7  C   LIG    1       22.992 -21.867   6.886  0.00  0.00    -0.010 C 
ATOM      8  C   LIG    1       23.197 -21.294   5.475  0.00  0.00    +0.007 C 
ATOM      9  C   LIG    1       25.560 -23.273   7.226  0.00  0.00    +0.012 C 
ATOM     10  C   LIG    1       24.089 -21.323   7.815  0.00  0.00    +0.012 C 
ENDROOT
BRANCH   1  12
ATOM     11  C   LIG    1       27.670 -20.295   7.663  0.00  0.00    +0.024 C 
ATOM     12  C   LIG    1       26.598 -21.185   8.300  0.00  0.00    +0.054 C 
BRANCH  12  13
ATOM     13  N   LIG    1       26.003 -20.451   9.424  0.00  0.00    -0.327 NA
ATOM     14  H   LIG    1       26.181 -20.953  10.294  0.00  0.00    +0.118 HD
ATOM     15  H   LIG    1       26.460 -19.546   9.527  0.00  0.00    +0.118 HD
ENDBRANCH  12  13
ENDBRANCH   1  12
TORSDOF 2
ENDMDL
MODEL 8
REMARK VINA RESULT:      -7.2      2.018      3.520
REMARK  Name = *****
REMARK                            x       y       z     vdW  Elec       q    Type
REMARK                         _______ _______ _______ _____ _____    ______ ____
ROOT
ATOM      1  C   LIG    1       25.495 -21.826   7.355  0.00  0.00    -0.014 C 
ATOM      2  C   LIG    1       25.588 -23.372   7.211  0.00  0.00    +0.012 C 
ATOM      3  C   LIG    1       24.502 -23.905   6.257  0.00  0.00    -0.010 C 
ATOM      4  C   LIG    1       23.115 -23.539   6.808  0.00  0.00    +0.007 C 
ATOM      5  C   LIG    1       22.982 -22.012   6.923  0.00  0.00    -0.010 C 
ATOM      6  C   LIG    1       23.167 -21.379   5.537  0.00  0.00    +0.007 C 
ATOM      7  C   LIG    1       24.551 -21.736   4.979  0.00  0.00    -0.010 C 
ATOM      8  C   LIG    1       24.682 -23.264   4.873  0.00  0.00    +0.007 C 
ATOM      9  C   LIG    1       24.068 -21.483   7.876  0.00  0.00    +0.012 C 
ATOM     10  C   LIG    1       25.634 -21.204   5.932  0.00  0.00    +0.012 C 
ENDROOT
BRANCH   1  12
ATOM     11  C   LIG    1       27.624 -20.338   7.617  0.00  0.00    +0.024 C 
ATOM     12  C   LIG    1       26.586 -21.230   8.307  0.00  0.00    +0.054 C 
BRANCH  12  13
ATOM     13  N   LIG    1       25.993 -20.467   9.413  0.00  0.00    -0.327 NA
ATOM     14  H   LIG    1       25.224 -19.897   9.062  0.00  0.00    +0.118 HD
ATOM     15  H   LIG    1       25.579 -21.105  10.091  0.00  0.00    +0.118 HD
ENDBRANCH  12  13
ENDBRANCH   1  12
TORSDOF 2
ENDMDL
MODEL 9
REMARK VINA RESULT:      -7.2      2.027      3.489
REMARK  Name = *****
REMARK                            x       y       z     vdW  Elec       q    Type
REMARK                         _______ _______ _______ _____ _____    ______ ____
ROOT
ATOM      1  C   LIG    1       25.444 -21.744   7.346  0.00  0.00    -0.014 C 
ATOM      2  C   LIG    1       24.010 -21.359   7.808  0.00  0.00    +0.012 C 
ATOM      3  C   LIG    1       22.948 -21.935   6.852  0.00  0.00    -0.010 C 
ATOM      4  C   LIG    1       23.181 -21.381   5.438  0.00  0.00    +0.007 C 
ATOM      5  C   LIG    1       24.579 -21.782   4.941  0.00  0.00    -0.010 C 
ATOM      6  C   LIG    1       24.691 -23.313   4.917  0.00  0.00    +0.007 C 
ATOM      7  C   LIG    1       24.463 -23.875   6.327  0.00  0.00    -0.010 C 
ATOM      8  C   LIG    1       23.067 -23.466   6.822  0.00  0.00    +0.007 C 
ATOM      9  C   LIG    1       25.637 -21.206   5.898  0.00  0.00    +0.012 C 
ATOM     10  C   LIG    1       25.523 -23.301   7.280  0.00  0.00    +0.012 C 
ENDROOT
BRANCH   1  12
ATOM     11  C   LIG    1       27.607 -20.305   7.605  0.00  0.00    +0.024 C 
ATOM     12  C   LIG    1       26.564 -21.193   8.291  0.00  0.00    +0.054 C 
BRANCH  12  13
ATOM     13  N   LIG    1       26.007 -20.448   9.428  0.00  0.00    -0.327 NA
ATOM     14  H   LIG    1       24.990 -20.423   9.355  0.00  0.00    +0.118 HD
ATOM     15  H   LIG    1       26.211 -20.938  10.297  0.00  0.00    +0.118 HD
ENDBRANCH  12  13
ENDBRANCH   1  12
TORSDOF 2
ENDMDL
