MODEL 1
REMARK VINA RESULT:      -8.1      0.000      0.000
REMARK  Name = *****
REMARK                            x       y       z     vdW  Elec       q    Type
REMARK                         _______ _______ _______ _____ _____    ______ ____
ROOT
ATOM      1  C   LIG    1       26.111 -21.095   6.130  0.00  0.00    +0.065 C 
ENDROOT
BRANCH   1   5
ATOM      2  C   LIG    1       30.206 -19.890   7.010  0.00  0.00    +0.120 A 
ATOM      3  C   LIG    1       29.422 -19.140   6.150  0.00  0.00    +0.046 A 
ATOM      4  C   LIG    1       28.107 -19.506   5.875  0.00  0.00    +0.007 A 
ATOM      5  C   LIG    1       27.540 -20.646   6.472  0.00  0.00    -0.040 A 
ATOM      6  C   LIG    1       28.325 -21.373   7.374  0.00  0.00    +0.007 A 
ATOM      7  C   LIG    1       29.644 -20.996   7.659  0.00  0.00    +0.046 A 
BRANCH   2   9
ATOM      8  C   LIG    1       31.690 -18.594   8.285  0.00  0.00    +0.277 C 
ATOM      9  O   LIG    1       31.517 -19.609   7.293  0.00  0.00    -0.495 OA
ENDBRANCH   2   9
ENDBRANCH   1   5
BRANCH   1  10
ATOM     10  C   LIG    1       25.344 -21.674   7.392  0.00  0.00    +0.074 C 
ATOM     11  C   LIG    1       23.804 -21.548   7.278  0.00  0.00    +0.035 C 
ATOM     12  C   LIG    1       23.157 -22.572   6.349  0.00  0.00    +0.003 C 
ATOM     13  C   LIG    1       23.495 -23.992   6.778  0.00  0.00    +0.000 C 
ATOM     14  C   LIG    1       25.000 -24.202   6.868  0.00  0.00    +0.003 C 
ATOM     15  C   LIG    1       25.678 -23.150   7.746  0.00  0.00    +0.035 C 
BRANCH  10  16
ATOM     16  O   LIG    1       25.704 -20.879   8.540  0.00  0.00    -0.388 OA
ATOM     17  H   LIG    1       24.875 -20.554   8.936  0.00  0.00    +0.210 HD
ENDBRANCH  10  16
ENDBRANCH   1  10
BRANCH   1  18
ATOM     18  C   LIG    1       25.306 -19.935   5.418  0.00  0.00    +0.094 C 
BRANCH  18  19
ATOM     19  N   LIG    1       25.284 -19.953   3.932  0.00  0.00    -0.308 NA
ATOM     20  C   LIG    1       25.310 -18.585   3.402  0.00  0.00    +0.104 C 
ATOM     21  C   LIG    1       24.123 -20.665   3.403  0.00  0.00    +0.104 C 
ENDBRANCH  18  19
ENDBRANCH   1  18
TORSDOF 6
ENDMDL
MODEL 2
REMARK VINA RESULT:      -8.0      1.918      3.801
REMARK  Name = *****
REMARK                            x       y       z     vdW  Elec       q    Type
REMARK                         _______ _______ _______ _____ _____    ______ ____
ROOT
ATOM      1  C   LIG    1       24.901 -20.743   6.396  0.00  0.00    +0.065 C 
ENDROOT
BRANCH   1   5
ATOM      2  C   LIG    1       29.177 -19.979   6.750  0.00  0.00    +0.120 A 
ATOM      3  C   LIG    1       28.489 -20.613   7.772  0.00  0.00    +0.046 A 
ATOM      4  C   LIG    1       27.126 -20.878   7.662  0.00  0.00    +0.007 A 
ATOM      5  C   LIG    1       26.415 -20.512   6.505  0.00  0.00    -0.040 A 
ATOM      6  C   LIG    1       27.128 -19.912   5.460  0.00  0.00    +0.007 A 
ATOM      7  C   LIG    1       28.502 -19.658   5.568  0.00  0.00    +0.046 A 
BRANCH   2   9
ATOM      8  C   LIG    1       31.068 -19.753   8.121  0.00  0.00    +0.277 C 
ATOM      9  O   LIG    1       30.507 -19.655   6.810  0.00  0.00    -0.495 OA
ENDBRANCH   2   9
ENDBRANCH   1   5
BRANCH   1  10
ATOM     10  C   LIG    1       24.414 -20.851   4.890  0.00  0.00    +0.074 C 
ATOM     11  C   LIG    1       22.874 -20.937   4.753  0.00  0.00    +0.035 C 
ATOM     12  C   LIG    1       22.150 -19.607   4.947  0.00  0.00    +0.003 C 
ATOM     13  C   LIG    1       22.664 -18.556   3.972  0.00  0.00    +0.000 C 
ATOM     14  C   LIG    1       24.172 -18.386   4.084  0.00  0.00    +0.003 C 
ATOM     15  C   LIG    1       24.915 -19.716   3.953  0.00  0.00    +0.035 C 
BRANCH  10  16
ATOM     16  O   LIG    1       24.912 -22.089   4.345  0.00  0.00    -0.388 OA
ATOM     17  H   LIG    1       25.802 -22.230   4.717  0.00  0.00    +0.210 HD
ENDBRANCH  10  16
ENDBRANCH   1  10
BRANCH   1  18
ATOM     18  C   LIG    1       24.452 -21.987   7.263  0.00  0.00    +0.094 C 
BRANCH  18  19
ATOM     19  N   LIG    1       24.584 -23.325   6.628  0.00  0.00    -0.308 NA
ATOM     20  C   LIG    1       23.333 -24.081   6.762  0.00  0.00    +0.104 C 
ATOM     21  C   LIG    1       25.689 -24.098   7.188  0.00  0.00    +0.104 C 
ENDBRANCH  18  19
ENDBRANCH   1  18
TORSDOF 6
ENDMDL
MODEL 3
REMARK VINA RESULT:      -7.4      3.196      6.160
REMARK  Name = *****
REMARK                            x       y       z     vdW  Elec       q    Type
REMARK                         _______ _______ _______ _____ _____    ______ ____
ROOT
ATOM      1  C   LIG    1       25.063 -23.148   6.133  0.00  0.00    +0.065 C 
ENDROOT
BRANCH   1   5
ATOM      2  C   LIG    1       25.642 -27.430   5.567  0.00  0.00    +0.120 A 
ATOM      3  C   LIG    1       25.287 -26.621   4.499  0.00  0.00    +0.046 A 
ATOM      4  C   LIG    1       25.116 -25.249   4.666  0.00  0.00    +0.007 A 
ATOM      5  C   LIG    1       25.307 -24.649   5.923  0.00  0.00    -0.040 A 
ATOM      6  C   LIG    1       25.709 -25.468   6.985  0.00  0.00    +0.007 A 
ATOM      7  C   LIG    1       25.892 -26.846   6.814  0.00  0.00    +0.046 A 
BRANCH   2   9
ATOM      8  C   LIG    1       24.705 -29.524   6.057  0.00  0.00    +0.277 C 
ATOM      9  O   LIG    1       25.787 -28.790   5.481  0.00  0.00    -0.495 OA
ENDBRANCH   2   9
ENDBRANCH   1   5
BRANCH   1  10
ATOM     10  C   LIG    1       23.525 -22.809   6.328  0.00  0.00    +0.074 C 
ATOM     11  C   LIG    1       23.257 -21.874   7.534  0.00  0.00    +0.035 C 
ATOM     12  C   LIG    1       23.601 -20.409   7.281  0.00  0.00    +0.003 C 
ATOM     13  C   LIG    1       22.848 -19.869   6.074  0.00  0.00    +0.000 C 
ATOM     14  C   LIG    1       23.102 -20.717   4.836  0.00  0.00    +0.003 C 
ATOM     15  C   LIG    1       22.821 -22.199   5.084  0.00  0.00    +0.035 C 
BRANCH  10  16
ATOM     16  O   LIG    1       22.832 -24.035   6.639  0.00  0.00    -0.388 OA
ATOM     17  H   LIG    1       23.415 -24.556   7.222  0.00  0.00    +0.210 HD
ENDBRANCH  10  16
ENDBRANCH   1  10
BRANCH   1  18
ATOM     18  C   LIG    1       25.956 -22.586   7.310  0.00  0.00    +0.094 C 
BRANCH  18  19
ATOM     19  N   LIG    1       27.149 -21.788   6.921  0.00  0.00    -0.308 NA
ATOM     20  C   LIG    1       27.956 -21.464   8.102  0.00  0.00    +0.104 C 
ATOM     21  C   LIG    1       26.789 -20.560   6.217  0.00  0.00    +0.104 C 
ENDBRANCH  18  19
ENDBRANCH   1  18
TORSDOF 6
ENDMDL
MODEL 4
REMARK VINA RESULT:      -7.4      2.585      5.623
REMARK  Name = *****
REMARK                            x       y       z     vdW  Elec       q    Type
REMARK                         _______ _______ _______ _____ _____    ______ ____
ROOT
ATOM      1  C   LIG    1       25.643 -22.160   6.451  0.00  0.00    +0.065 C 
ENDROOT
BRANCH   1   5
ATOM      2  C   LIG    1       25.379 -26.439   5.663  0.00  0.00    +0.120 A 
ATOM      3  C   LIG    1       25.800 -25.976   6.899  0.00  0.00    +0.046 A 
ATOM      4  C   LIG    1       25.872 -24.611   7.167  0.00  0.00    +0.007 A 
ATOM      5  C   LIG    1       25.511 -23.668   6.189  0.00  0.00    -0.040 A 
ATOM      6  C   LIG    1       25.044 -24.145   4.958  0.00  0.00    +0.007 A 
ATOM      7  C   LIG    1       24.961 -25.519   4.695  0.00  0.00    +0.046 A 
BRANCH   2   9
ATOM      8  C   LIG    1       24.209 -28.460   5.886  0.00  0.00    +0.277 C 
ATOM      9  O   LIG    1       25.323 -27.764   5.321  0.00  0.00    -0.495 OA
ENDBRANCH   2   9
ENDBRANCH   1   5
BRANCH   1  10
ATOM     10  C   LIG    1       24.338 -21.546   7.110  0.00  0.00    +0.074 C 
ATOM     11  C   LIG    1       23.747 -20.364   6.302  0.00  0.00    +0.035 C 
ATOM     12  C   LIG    1       22.982 -20.780   5.048  0.00  0.00    +0.003 C 
ATOM     13  C   LIG    1       21.854 -21.744   5.388  0.00  0.00    +0.000 C 
ATOM     14  C   LIG    1       22.371 -22.958   6.147  0.00  0.00    +0.003 C 
ATOM     15  C   LIG    1       23.192 -22.564   7.376  0.00  0.00    +0.035 C 
BRANCH  10  16
ATOM     16  O   LIG    1       24.700 -20.986   8.388  0.00  0.00    -0.388 OA
ATOM     17  H   LIG    1       23.996 -20.360   8.638  0.00  0.00    +0.210 HD
ENDBRANCH  10  16
ENDBRANCH   1  10
BRANCH   1  18
ATOM     18  C   LIG    1       26.945 -21.842   7.289  0.00  0.00    +0.094 C 
BRANCH  18  19
ATOM     19  N   LIG    1       27.510 -20.473   7.152  0.00  0.00    -0.308 NA
ATOM     20  C   LIG    1       27.466 -20.038   5.752  0.00  0.00    +0.104 C 
ATOM     21  C   LIG    1       28.879 -20.385   7.654  0.00  0.00    +0.104 C 
ENDBRANCH  18  19
ENDBRANCH   1  18
TORSDOF 6
ENDMDL
MODEL 5
REMARK VINA RESULT:      -7.2      2.202      5.824
REMARK  Name = *****
REMARK                            x       y       z     vdW  Elec       q    Type
REMARK                         _______ _______ _______ _____ _____    ______ ____
ROOT
ATOM      1  C   LIG    1       26.251 -22.097   6.720  0.00  0.00    +0.065 C 
ENDROOT
BRANCH   1   5
ATOM      2  C   LIG    1       23.076 -19.794   4.822  0.00  0.00    +0.120 A 
ATOM      3  C   LIG    1       24.223 -20.122   4.118  0.00  0.00    +0.046 A 
ATOM      4  C   LIG    1       25.237 -20.872   4.710  0.00  0.00    +0.007 A 
ATOM      5  C   LIG    1       25.116 -21.322   6.037  0.00  0.00    -0.040 A 
ATOM      6  C   LIG    1       23.934 -21.023   6.725  0.00  0.00    +0.007 A 
ATOM      7  C   LIG    1       22.910 -20.278   6.124  0.00  0.00    +0.046 A 
BRANCH   2   9
ATOM      8  C   LIG    1       22.200 -17.630   4.584  0.00  0.00    +0.277 C 
ATOM      9  O   LIG    1       22.060 -19.027   4.314  0.00  0.00    -0.495 OA
ENDBRANCH   2   9
ENDBRANCH   1   5
BRANCH   1  10
ATOM     10  C   LIG    1       27.018 -21.219   7.796  0.00  0.00    +0.074 C 
ATOM     11  C   LIG    1       28.390 -21.814   8.201  0.00  0.00    +0.035 C 
ATOM     12  C   LIG    1       29.494 -21.606   7.168  0.00  0.00    +0.003 C 
ATOM     13  C   LIG    1       29.681 -20.128   6.855  0.00  0.00    +0.000 C 
ATOM     14  C   LIG    1       28.377 -19.486   6.405  0.00  0.00    +0.003 C 
ATOM     15  C   LIG    1       27.239 -19.732   7.398  0.00  0.00    +0.035 C 
BRANCH  10  16
ATOM     16  O   LIG    1       26.237 -21.212   9.008  0.00  0.00    -0.388 OA
ATOM     17  H   LIG    1       25.486 -21.818   8.871  0.00  0.00    +0.210 HD
ENDBRANCH  10  16
ENDBRANCH   1  10
BRANCH   1  18
ATOM     18  C   LIG    1       25.726 -23.461   7.322  0.00  0.00    +0.094 C 
BRANCH  18  19
ATOM     19  N   LIG    1       25.280 -24.493   6.349  0.00  0.00    -0.308 NA
ATOM     20  C   LIG    1       23.837 -24.727   6.475  0.00  0.00    +0.104 C 
ATOM     21  C   LIG    1       26.000 -25.753   6.509  0.00  0.00    +0.104 C 
ENDBRANCH  18  19
ENDBRANCH   1  18
TORSDOF 6
ENDMDL
MODEL 6
REMARK VINA RESULT:      -7.1      1.652      2.089
REMARK  Name = *****
REMARK                            x       y       z     vdW  Elec       q    Type
REMARK                         _______ _______ _______ _____ _____    ______ ____
ROOT
ATOM      1  C   LIG    1       24.718 -21.343   5.957  0.00  0.00    +0.065 C 
ENDROOT
BRANCH   1   5
ATOM      2  C   LIG    1       28.434 -19.862   7.689  0.00  0.00    +0.120 A 
ATOM      3  C   LIG    1       28.311 -20.022   6.318  0.00  0.00    +0.046 A 
ATOM      4  C   LIG    1       27.123 -20.478   5.753  0.00  0.00    +0.007 A 
ATOM      5  C   LIG    1       26.014 -20.782   6.562  0.00  0.00    -0.040 A 
ATOM      6  C   LIG    1       26.132 -20.575   7.942  0.00  0.00    +0.007 A 
ATOM      7  C   LIG    1       27.325 -20.105   8.507  0.00  0.00    +0.046 A 
BRANCH   2   9
ATOM      8  C   LIG    1       30.733 -19.457   7.462  0.00  0.00    +0.277 C 
ATOM      9  O   LIG    1       29.584 -19.456   8.312  0.00  0.00    -0.495 OA
ENDBRANCH   2   9
ENDBRANCH   1   5
BRANCH   1  10
ATOM     10  C   LIG    1       24.209 -22.637   6.720  0.00  0.00    +0.074 C 
ATOM     11  C   LIG    1       23.629 -23.715   5.770  0.00  0.00    +0.035 C 
ATOM     12  C   LIG    1       24.684 -24.514   5.010  0.00  0.00    +0.003 C 
ATOM     13  C   LIG    1       25.658 -25.187   5.967  0.00  0.00    +0.000 C 
ATOM     14  C   LIG    1       26.302 -24.177   6.905  0.00  0.00    +0.003 C 
ATOM     15  C   LIG    1       25.264 -23.322   7.634  0.00  0.00    +0.035 C 
BRANCH  10  16
ATOM     16  O   LIG    1       23.110 -22.253   7.571  0.00  0.00    -0.388 OA
ATOM     17  H   LIG    1       22.339 -22.788   7.305  0.00  0.00    +0.210 HD
ENDBRANCH  10  16
ENDBRANCH   1  10
BRANCH   1  18
ATOM     18  C   LIG    1       23.605 -20.225   5.862  0.00  0.00    +0.094 C 
BRANCH  18  19
ATOM     19  N   LIG    1       23.070 -19.929   4.506  0.00  0.00    -0.308 NA
ATOM     20  C   LIG    1       24.161 -19.865   3.527  0.00  0.00    +0.104 C 
ATOM     21  C   LIG    1       22.303 -18.686   4.472  0.00  0.00    +0.104 C 
ENDBRANCH  18  19
ENDBRANCH   1  18
TORSDOF 6
ENDMDL
MODEL 7
REMARK VINA RESULT:      -7.0      2.479      4.107
REMARK  Name = *****
REMARK                            x       y       z     vdW  Elec       q    Type
REMARK                         _______ _______ _______ _____ _____    ______ ____
ROOT
ATOM      1  C   LIG    1       25.213 -23.627   7.213  0.00  0.00    +0.065 C 
ENDROOT
BRANCH   1   5
ATOM      2  C   LIG    1       27.809 -20.253   8.148  0.00  0.00    +0.120 A 
ATOM      3  C   LIG    1       28.106 -21.097   7.090  0.00  0.00    +0.046 A 
ATOM      4  C   LIG    1       27.274 -22.167   6.772  0.00  0.00    +0.007 A 
ATOM      5  C   LIG    1       26.106 -22.414   7.515  0.00  0.00    -0.040 A 
ATOM      6  C   LIG    1       25.791 -21.530   8.554  0.00  0.00    +0.007 A 
ATOM      7  C   LIG    1       26.623 -20.446   8.865  0.00  0.00    +0.046 A 
BRANCH   2   9
ATOM      8  C   LIG    1       29.926 -19.253   8.000  0.00  0.00    +0.277 C 
ATOM      9  O   LIG    1       28.603 -19.206   8.539  0.00  0.00    -0.495 OA
ENDBRANCH   2   9
ENDBRANCH   1   5
BRANCH   1  10
ATOM     10  C   LIG    1       23.937 -23.236   6.356  0.00  0.00    +0.074 C 
ATOM     11  C   LIG    1       23.028 -22.197   7.057  0.00  0.00    +0.035 C 
ATOM     12  C   LIG    1       23.559 -20.767   7.014  0.00  0.00    +0.003 C 
ATOM     13  C   LIG    1       23.796 -20.312   5.581  0.00  0.00    +0.000 C 
ATOM     14  C   LIG    1       24.722 -21.267   4.841  0.00  0.00    +0.003 C 
ATOM     15  C   LIG    1       24.240 -22.717   4.922  0.00  0.00    +0.035 C 
BRANCH  10  16
ATOM     16  O   LIG    1       23.119 -24.414   6.206  0.00  0.00    -0.388 OA
ATOM     17  H   LIG    1       22.434 -24.207   5.544  0.00  0.00    +0.210 HD
ENDBRANCH  10  16
ENDBRANCH   1  10
BRANCH   1  18
ATOM     18  C   LIG    1       26.047 -24.795   6.551  0.00  0.00    +0.094 C 
BRANCH  18  19
ATOM     19  N   LIG    1       25.335 -26.081   6.330  0.00  0.00    -0.308 NA
ATOM     20  C   LIG    1       25.883 -27.128   7.200  0.00  0.00    +0.104 C 
ATOM     21  C   LIG    1       25.397 -26.516   4.936  0.00  0.00    +0.104 C 
ENDBRANCH  18  19
ENDBRANCH   1  18
TORSDOF 6
ENDMDL
MODEL 8
REMARK VINA RESULT:      -7.0      1.711      2.873
REMARK  Name = *****
REMARK                            x       y       z     vdW  Elec       q    Type
REMARK                         _______ _______ _______ _____ _____    ______ ____
ROOT
ATOM      1  C   LIG    1       25.577 -22.181   6.918  0.00  0.00    +0.065 C 
ENDROOT
BRANCH   1   5
ATOM      2  C   LIG    1       29.286 -19.924   6.530  0.00  0.00    +0.120 A 
ATOM      3  C   LIG    1       28.232 -19.700   5.659  0.00  0.00    +0.046 A 
ATOM      4  C   LIG    1       27.036 -20.404   5.785  0.00  0.00    +0.007 A 
ATOM      5  C   LIG    1       26.868 -21.355   6.806  0.00  0.00    -0.040 A 
ATOM      6  C   LIG    1       27.922 -21.543   7.708  0.00  0.00    +0.007 A 
ATOM      7  C   LIG    1       29.119 -20.826   7.587  0.00  0.00    +0.046 A 
BRANCH   2   9
ATOM      8  C   LIG    1       31.285 -19.381   7.630  0.00  0.00    +0.277 C 
ATOM      9  O   LIG    1       30.500 -19.297   6.439  0.00  0.00    -0.495 OA
ENDBRANCH   2   9
ENDBRANCH   1   5
BRANCH   1  10
ATOM     10  C   LIG    1       24.310 -21.278   7.227  0.00  0.00    +0.074 C 
ATOM     11  C   LIG    1       23.992 -20.270   6.095  0.00  0.00    +0.035 C 
ATOM     12  C   LIG    1       23.319 -20.889   4.873  0.00  0.00    +0.003 C 
ATOM     13  C   LIG    1       22.031 -21.604   5.258  0.00  0.00    +0.000 C 
ATOM     14  C   LIG    1       22.278 -22.646   6.339  0.00  0.00    +0.003 C 
ATOM     15  C   LIG    1       23.006 -22.061   7.551  0.00  0.00    +0.035 C 
BRANCH  10  16
ATOM     16  O   LIG    1       24.606 -20.469   8.382  0.00  0.00    -0.388 OA
ATOM     17  H   LIG    1       24.803 -21.077   9.118  0.00  0.00    +0.210 HD
ENDBRANCH  10  16
ENDBRANCH   1  10
BRANCH   1  18
ATOM     18  C   LIG    1       25.371 -23.089   5.641  0.00  0.00    +0.094 C 
BRANCH  18  19
ATOM     19  N   LIG    1       25.024 -24.514   5.883  0.00  0.00    -0.308 NA
ATOM     20  C   LIG    1       25.895 -25.086   6.916  0.00  0.00    +0.104 C 
ATOM     21  C   LIG    1       25.106 -25.319   4.667  0.00  0.00    +0.104 C 
ENDBRANCH  18  19
ENDBRANCH   1  18
TORSDOF 6
ENDMDL
MODEL 9
REMARK VINA RESULT:      -6.5      1.957      3.527
REMARK  Name = *****
REMARK                            x       y       z     vdW  Elec       q    Type
REMARK                         _______ _______ _______ _____ _____    ______ ____
ROOT
ATOM      1  C   LIG    1       25.347 -20.797   5.850  0.00  0.00    +0.065 C 
ENDROOT
BRANCH   1   5
ATOM      2  C   LIG    1       29.513 -19.730   6.556  0.00  0.00    +0.120 A 
ATOM      3  C   LIG    1       28.776 -19.080   5.580  0.00  0.00    +0.046 A 
ATOM      4  C   LIG    1       27.440 -19.401   5.358  0.00  0.00    +0.007 A 
ATOM      5  C   LIG    1       26.802 -20.391   6.126  0.00  0.00    -0.040 A 
ATOM      6  C   LIG    1       27.542 -21.012   7.140  0.00  0.00    +0.007 A 
ATOM      7  C   LIG    1       28.884 -20.679   7.370  0.00  0.00    +0.046 A 
BRANCH   2   9
ATOM      8  C   LIG    1       31.175 -19.452   8.189  0.00  0.00    +0.277 C 
ATOM      9  O   LIG    1       30.841 -19.491   6.800  0.00  0.00    -0.495 OA
ENDBRANCH   2   9
ENDBRANCH   1   5
BRANCH   1  10
ATOM     10  C   LIG    1       24.855 -20.338   4.414  0.00  0.00    +0.074 C 
ATOM     11  C   LIG    1       23.755 -21.256   3.825  0.00  0.00    +0.035 C 
ATOM     12  C   LIG    1       22.369 -21.039   4.427  0.00  0.00    +0.003 C 
ATOM     13  C   LIG    1       21.924 -19.591   4.272  0.00  0.00    +0.000 C 
ATOM     14  C   LIG    1       22.942 -18.631   4.871  0.00  0.00    +0.003 C 
ATOM     15  C   LIG    1       24.351 -18.870   4.327  0.00  0.00    +0.035 C 
BRANCH  10  16
ATOM     16  O   LIG    1       25.967 -20.449   3.502  0.00  0.00    -0.388 OA
ATOM     17  H   LIG    1       26.143 -21.400   3.377  0.00  0.00    +0.210 HD
ENDBRANCH  10  16
ENDBRANCH   1  10
BRANCH   1  18
ATOM     18  C   LIG    1       25.134 -22.345   6.092  0.00  0.00    +0.094 C 
BRANCH  18  19
ATOM     19  N   LIG    1       24.191 -22.728   7.176  0.00  0.00    -0.308 NA
ATOM     20  C   LIG    1       23.303 -23.805   6.726  0.00  0.00    +0.104 C 
ATOM     21  C   LIG    1       23.396 -21.596   7.645  0.00  0.00    +0.104 C 
ENDBRANCH  18  19
ENDBRANCH   1  18
TORSDOF 6
ENDMDL
