MODEL 1
REMARK VINA RESULT:      -8.8      0.000      0.000
REMARK  Name = *****
REMARK                            x       y       z     vdW  Elec       q    Type
REMARK                         _______ _______ _______ _____ _____    ______ ____
ROOT
ATOM      1  C   LIG    1       23.779 -23.421   6.356  0.00  0.00    +0.233 C 
ATOM      2  O   LIG    1       24.105 -22.772   5.115  0.00  0.00    -0.340 OA
ATOM      3  C   LIG    1       23.481 -21.509   4.927  0.00  0.00    +0.133 C 
ATOM      4  C   LIG    1       23.969 -20.879   3.623  0.00  0.00    +0.106 C 
ATOM      5  C   LIG    1       24.962 -19.853   4.102  0.00  0.00    +0.139 C 
ATOM      6  O   LIG    1       25.462 -19.005   3.370  0.00  0.00    -0.297 OA
ATOM      7  C   LIG    1       25.242 -19.954   5.587  0.00  0.00    +0.061 C 
ATOM      8  C   LIG    1       23.870 -20.514   6.022  0.00  0.00    +0.029 C 
ATOM      9  C   LIG    1       23.761 -21.087   7.428  0.00  0.00    +0.012 C 
ATOM     10  C   LIG    1       24.204 -22.542   7.551  0.00  0.00    +0.071 C 
ENDROOT
BRANCH   1  11
ATOM     11  C   LIG    1       24.567 -24.782   6.418  0.00  0.00    +0.301 C 
ATOM     12  F   LIG    1       25.544 -24.682   7.367  0.00  0.00    -0.200 F 
ATOM     13  F   LIG    1       23.731 -25.771   6.853  0.00  0.00    -0.200 F 
BRANCH  11  14
ATOM     14  C   LIG    1       25.201 -25.206   5.086  0.00  0.00    +0.081 C 
BRANCH  14  15
ATOM     15  C   LIG    1       26.056 -26.483   5.196  0.00  0.00    +0.006 C 
BRANCH  15  17
ATOM     16  C   LIG    1       25.114 -28.605   6.271  0.00  0.00    +0.004 C 
ATOM     17  C   LIG    1       25.224 -27.763   5.001  0.00  0.00    -0.003 C 
ENDBRANCH  15  17
ENDBRANCH  14  15
ENDBRANCH  11  14
ENDBRANCH   1  11
BRANCH   1  18
ATOM     18  O   LIG    1       22.368 -23.668   6.391  0.00  0.00    -0.360 OA
ATOM     19  H   LIG    1       22.117 -23.889   7.301  0.00  0.00    +0.213 HD
ENDBRANCH   1  18
BRANCH   7  20
ATOM     20  C   LIG    1       26.500 -20.799   5.861  0.00  0.00    +0.011 C 
BRANCH  20  21
ATOM     21  C   LIG    1       27.270 -20.277   7.080  0.00  0.00    +0.001 C 
BRANCH  21  22
ATOM     22  C   LIG    1       28.125 -21.332   7.782  0.00  0.00    +0.000 C 
BRANCH  22  23
ATOM     23  C   LIG    1       29.613 -20.957   7.755  0.00  0.00    +0.000 C 
BRANCH  23  24
ATOM     24  C   LIG    1       29.888 -19.559   7.181  0.00  0.00    +0.011 C 
BRANCH  24  25
ATOM     25  C   LIG    1       30.185 -18.520   8.266  0.00  0.00    +0.120 C 
BRANCH  25  26
ATOM     26  C   LIG    1       31.628 -18.493   8.679  0.00  0.00    +0.305 C 
ATOM     27  O   LIG    1       32.204 -19.322   9.381  0.00  0.00    -0.251 OA
BRANCH  26  28
ATOM     28  O   LIG    1       32.303 -17.448   8.198  0.00  0.00    -0.481 OA
ATOM     29  H   LIG    1       31.608 -16.910   7.764  0.00  0.00    +0.295 HD
ENDBRANCH  26  28
ENDBRANCH  25  26
ENDBRANCH  24  25
ENDBRANCH  23  24
ENDBRANCH  22  23
ENDBRANCH  21  22
ENDBRANCH  20  21
ENDBRANCH   7  20
TORSDOF 13
ENDMDL
MODEL 2
REMARK VINA RESULT:      -8.7      1.087      1.394
REMARK  Name = *****
REMARK                            x       y       z     vdW  Elec       q    Type
REMARK                         _______ _______ _______ _____ _____    ______ ____
ROOT
ATOM      1  C   LIG    1       23.852 -23.492   6.391  0.00  0.00    +0.233 C 
ATOM      2  O   LIG    1       24.161 -22.817   5.158  0.00  0.00    -0.340 OA
ATOM      3  C   LIG    1       23.585 -21.525   5.033  0.00  0.00    +0.133 C 
ATOM      4  C   LIG    1       24.053 -20.873   3.732  0.00  0.00    +0.106 C 
ATOM      5  C   LIG    1       25.104 -19.904   4.205  0.00  0.00    +0.139 C 
ATOM      6  O   LIG    1       25.613 -19.055   3.481  0.00  0.00    -0.297 OA
ATOM      7  C   LIG    1       25.432 -20.064   5.675  0.00  0.00    +0.061 C 
ATOM      8  C   LIG    1       24.053 -20.582   6.142  0.00  0.00    +0.029 C 
ATOM      9  C   LIG    1       23.970 -21.195   7.533  0.00  0.00    +0.012 C 
ATOM     10  C   LIG    1       24.356 -22.670   7.595  0.00  0.00    +0.071 C 
ENDROOT
BRANCH   1  11
ATOM     11  C   LIG    1       24.584 -24.886   6.382  0.00  0.00    +0.301 C 
ATOM     12  F   LIG    1       25.609 -24.849   7.284  0.00  0.00    -0.200 F 
ATOM     13  F   LIG    1       23.729 -25.850   6.834  0.00  0.00    -0.200 F 
BRANCH  11  14
ATOM     14  C   LIG    1       25.135 -25.302   5.011  0.00  0.00    +0.081 C 
BRANCH  14  15
ATOM     15  C   LIG    1       25.964 -26.600   5.054  0.00  0.00    +0.006 C 
BRANCH  15  17
ATOM     16  C   LIG    1       25.157 -28.706   6.260  0.00  0.00    +0.004 C 
ATOM     17  C   LIG    1       25.082 -27.859   4.991  0.00  0.00    -0.003 C 
ENDBRANCH  15  17
ENDBRANCH  14  15
ENDBRANCH  11  14
ENDBRANCH   1  11
BRANCH   1  18
ATOM     18  O   LIG    1       22.434 -23.683   6.469  0.00  0.00    -0.360 OA
ATOM     19  H   LIG    1       22.140 -24.132   5.662  0.00  0.00    +0.213 HD
ENDBRANCH   1  18
BRANCH   7  20
ATOM     20  C   LIG    1       26.661 -20.969   5.877  0.00  0.00    +0.011 C 
BRANCH  20  21
ATOM     21  C   LIG    1       27.772 -20.240   6.643  0.00  0.00    +0.001 C 
BRANCH  21  22
ATOM     22  C   LIG    1       28.551 -19.225   5.807  0.00  0.00    +0.000 C 
BRANCH  22  23
ATOM     23  C   LIG    1       29.974 -19.027   6.347  0.00  0.00    +0.000 C 
BRANCH  23  24
ATOM     24  C   LIG    1       30.039 -18.860   7.872  0.00  0.00    +0.011 C 
BRANCH  24  25
ATOM     25  C   LIG    1       31.295 -19.487   8.485  0.00  0.00    +0.120 C 
BRANCH  25  26
ATOM     26  C   LIG    1       31.092 -20.909   8.920  0.00  0.00    +0.305 C 
ATOM     27  O   LIG    1       30.061 -21.569   8.808  0.00  0.00    -0.251 OA
BRANCH  26  28
ATOM     28  O   LIG    1       32.177 -21.461   9.465  0.00  0.00    -0.481 OA
ATOM     29  H   LIG    1       31.952 -22.414   9.502  0.00  0.00    +0.295 HD
ENDBRANCH  26  28
ENDBRANCH  25  26
ENDBRANCH  24  25
ENDBRANCH  23  24
ENDBRANCH  22  23
ENDBRANCH  21  22
ENDBRANCH  20  21
ENDBRANCH   7  20
TORSDOF 13
ENDMDL
MODEL 3
REMARK VINA RESULT:      -8.5      2.800      4.786
REMARK  Name = *****
REMARK                            x       y       z     vdW  Elec       q    Type
REMARK                         _______ _______ _______ _____ _____    ______ ____
ROOT
ATOM      1  C   LIG    1       23.423 -21.656   6.051  0.00  0.00    +0.233 C 
ATOM      2  O   LIG    1       24.074 -20.813   7.018  0.00  0.00    -0.340 OA
ATOM      3  C   LIG    1       24.852 -21.511   7.981  0.00  0.00    +0.133 C 
ATOM      4  C   LIG    1       25.562 -20.513   8.894  0.00  0.00    +0.106 C 
ATOM      5  C   LIG    1       26.971 -20.519   8.361  0.00  0.00    +0.139 C 
ATOM      6  O   LIG    1       27.909 -19.972   8.930  0.00  0.00    -0.297 OA
ATOM      7  C   LIG    1       27.109 -21.308   7.075  0.00  0.00    +0.061 C 
ATOM      8  C   LIG    1       25.972 -22.322   7.327  0.00  0.00    +0.029 C 
ATOM      9  C   LIG    1       25.505 -23.158   6.144  0.00  0.00    +0.012 C 
ATOM     10  C   LIG    1       24.467 -22.473   5.260  0.00  0.00    +0.071 C 
ENDROOT
BRANCH   1  11
ATOM     11  C   LIG    1       22.633 -20.733   5.050  0.00  0.00    +0.301 C 
ATOM     12  F   LIG    1       21.462 -21.351   4.713  0.00  0.00    -0.200 F 
ATOM     13  F   LIG    1       22.272 -19.580   5.685  0.00  0.00    -0.200 F 
BRANCH  11  14
ATOM     14  C   LIG    1       23.404 -20.384   3.769  0.00  0.00    +0.081 C 
BRANCH  14  15
ATOM     15  C   LIG    1       23.909 -18.929   3.738  0.00  0.00    +0.006 C 
BRANCH  15  17
ATOM     16  C   LIG    1       25.939 -17.427   3.331  0.00  0.00    +0.004 C 
ATOM     17  C   LIG    1       25.326 -18.815   3.152  0.00  0.00    -0.003 C 
ENDBRANCH  15  17
ENDBRANCH  14  15
ENDBRANCH  11  14
ENDBRANCH   1  11
BRANCH   1  18
ATOM     18  O   LIG    1       22.516 -22.528   6.735  0.00  0.00    -0.360 OA
ATOM     19  H   LIG    1       22.569 -22.342   7.685  0.00  0.00    +0.213 HD
ENDBRANCH   1  18
BRANCH   7  20
ATOM     20  C   LIG    1       27.011 -20.387   5.844  0.00  0.00    +0.011 C 
BRANCH  20  21
ATOM     21  C   LIG    1       28.400 -19.982   5.337  0.00  0.00    +0.001 C 
BRANCH  21  22
ATOM     22  C   LIG    1       28.766 -18.523   5.606  0.00  0.00    +0.000 C 
BRANCH  22  23
ATOM     23  C   LIG    1       30.094 -18.409   6.368  0.00  0.00    +0.000 C 
BRANCH  23  24
ATOM     24  C   LIG    1       30.635 -19.755   6.873  0.00  0.00    +0.011 C 
BRANCH  24  25
ATOM     25  C   LIG    1       31.155 -19.683   8.312  0.00  0.00    +0.120 C 
BRANCH  25  26
ATOM     26  C   LIG    1       31.274 -21.030   8.963  0.00  0.00    +0.305 C 
ATOM     27  O   LIG    1       32.288 -21.517   9.458  0.00  0.00    -0.251 OA
BRANCH  26  28
ATOM     28  O   LIG    1       30.130 -21.716   8.986  0.00  0.00    -0.481 OA
ATOM     29  H   LIG    1       29.781 -21.605   8.077  0.00  0.00    +0.295 HD
ENDBRANCH  26  28
ENDBRANCH  25  26
ENDBRANCH  24  25
ENDBRANCH  23  24
ENDBRANCH  22  23
ENDBRANCH  21  22
ENDBRANCH  20  21
ENDBRANCH   7  20
TORSDOF 13
ENDMDL
MODEL 4
REMARK VINA RESULT:      -8.5      1.625      2.166
REMARK  Name = *****
REMARK                            x       y       z     vdW  Elec       q    Type
REMARK                         _______ _______ _______ _____ _____    ______ ____
ROOT
ATOM      1  C   LIG    1       24.458 -22.993   6.280  0.00  0.00    +0.233 C 
ATOM      2  O   LIG    1       25.250 -22.211   5.368  0.00  0.00    -0.340 OA
ATOM      3  C   LIG    1       25.150 -20.805   5.556  0.00  0.00    +0.133 C 
ATOM      4  C   LIG    1       26.098 -20.087   4.596  0.00  0.00    +0.106 C 
ATOM      5  C   LIG    1       27.250 -19.707   5.488  0.00  0.00    +0.139 C 
ATOM      6  O   LIG    1       28.156 -18.959   5.137  0.00  0.00    -0.297 OA
ATOM      7  C   LIG    1       27.146 -20.313   6.872  0.00  0.00    +0.061 C 
ATOM      8  C   LIG    1       25.606 -20.386   6.955  0.00  0.00    +0.029 C 
ATOM      9  C   LIG    1       25.003 -21.231   8.068  0.00  0.00    +0.012 C 
ATOM     10  C   LIG    1       24.885 -22.716   7.736  0.00  0.00    +0.071 C 
ENDROOT
BRANCH   1  11
ATOM     11  C   LIG    1       24.701 -24.514   5.957  0.00  0.00    +0.301 C 
ATOM     12  F   LIG    1       23.541 -25.201   6.180  0.00  0.00    -0.200 F 
ATOM     13  F   LIG    1       24.964 -24.659   4.625  0.00  0.00    -0.200 F 
BRANCH  11  14
ATOM     14  C   LIG    1       25.832 -25.160   6.769  0.00  0.00    +0.081 C 
BRANCH  14  15
ATOM     15  C   LIG    1       26.186 -26.584   6.298  0.00  0.00    +0.006 C 
BRANCH  15  17
ATOM     16  C   LIG    1       24.947 -28.556   5.242  0.00  0.00    +0.004 C 
ATOM     17  C   LIG    1       24.987 -27.543   6.384  0.00  0.00    -0.003 C 
ENDBRANCH  15  17
ENDBRANCH  14  15
ENDBRANCH  11  14
ENDBRANCH   1  11
BRANCH   1  18
ATOM     18  O   LIG    1       23.077 -22.665   6.089  0.00  0.00    -0.360 OA
ATOM     19  H   LIG    1       22.588 -23.484   5.913  0.00  0.00    +0.213 HD
ENDBRANCH   1  18
BRANCH   7  20
ATOM     20  C   LIG    1       27.948 -21.625   6.968  0.00  0.00    +0.011 C 
BRANCH  20  21
ATOM     21  C   LIG    1       29.273 -21.417   7.711  0.00  0.00    +0.001 C 
BRANCH  21  22
ATOM     22  C   LIG    1       29.520 -19.979   8.166  0.00  0.00    +0.000 C 
BRANCH  22  23
ATOM     23  C   LIG    1       30.897 -19.476   7.713  0.00  0.00    +0.000 C 
BRANCH  23  24
ATOM     24  C   LIG    1       31.539 -18.473   8.682  0.00  0.00    +0.011 C 
BRANCH  24  25
ATOM     25  C   LIG    1       30.550 -17.419   9.189  0.00  0.00    +0.120 C 
BRANCH  25  26
ATOM     26  C   LIG    1       30.524 -17.306  10.685  0.00  0.00    +0.305 C 
ATOM     27  O   LIG    1       30.377 -16.275  11.339  0.00  0.00    -0.251 OA
BRANCH  26  28
ATOM     28  O   LIG    1       30.672 -18.473  11.313  0.00  0.00    -0.481 OA
ATOM     29  H   LIG    1       29.750 -18.780  11.441  0.00  0.00    +0.295 HD
ENDBRANCH  26  28
ENDBRANCH  25  26
ENDBRANCH  24  25
ENDBRANCH  23  24
ENDBRANCH  22  23
ENDBRANCH  21  22
ENDBRANCH  20  21
ENDBRANCH   7  20
TORSDOF 13
ENDMDL
MODEL 5
REMARK VINA RESULT:      -8.3      2.883      6.535
REMARK  Name = *****
REMARK                            x       y       z     vdW  Elec       q    Type
REMARK                         _______ _______ _______ _____ _____    ______ ____
ROOT
ATOM      1  C   LIG    1       27.688 -21.060   7.447  0.00  0.00    +0.233 C 
ATOM      2  O   LIG    1       27.011 -22.179   6.848  0.00  0.00    -0.340 OA
ATOM      3  C   LIG    1       26.223 -22.945   7.750  0.00  0.00    +0.133 C 
ATOM      4  C   LIG    1       25.486 -24.046   6.988  0.00  0.00    +0.106 C 
ATOM      5  C   LIG    1       24.088 -23.497   6.882  0.00  0.00    +0.139 C 
ATOM      6  O   LIG    1       23.134 -24.156   6.483  0.00  0.00    -0.297 OA
ATOM      7  C   LIG    1       23.981 -22.064   7.361  0.00  0.00    +0.061 C 
ATOM      8  C   LIG    1       25.123 -22.103   8.399  0.00  0.00    +0.029 C 
ATOM      9  C   LIG    1       25.620 -20.771   8.944  0.00  0.00    +0.012 C 
ATOM     10  C   LIG    1       26.667 -20.085   8.070  0.00  0.00    +0.071 C 
ENDROOT
BRANCH   1  11
ATOM     11  C   LIG    1       28.486 -20.309   6.317  0.00  0.00    +0.301 C 
ATOM     12  F   LIG    1       29.401 -21.170   5.780  0.00  0.00    -0.200 F 
ATOM     13  F   LIG    1       27.637 -19.991   5.297  0.00  0.00    -0.200 F 
BRANCH  11  14
ATOM     14  C   LIG    1       29.207 -19.040   6.790  0.00  0.00    +0.081 C 
BRANCH  14  15
ATOM     15  C   LIG    1       30.733 -19.214   6.912  0.00  0.00    +0.006 C 
BRANCH  15  17
ATOM     16  C   LIG    1       30.214 -18.163   9.185  0.00  0.00    +0.004 C 
ATOM     17  C   LIG    1       31.297 -18.554   8.182  0.00  0.00    -0.003 C 
ENDBRANCH  15  17
ENDBRANCH  14  15
ENDBRANCH  11  14
ENDBRANCH   1  11
BRANCH   1  18
ATOM     18  O   LIG    1       28.592 -21.548   8.445  0.00  0.00    -0.360 OA
ATOM     19  H   LIG    1       28.898 -22.429   8.179  0.00  0.00    +0.213 HD
ENDBRANCH   1  18
BRANCH   7  20
ATOM     20  C   LIG    1       24.092 -21.074   6.186  0.00  0.00    +0.011 C 
BRANCH  20  21
ATOM     21  C   LIG    1       22.735 -20.863   5.503  0.00  0.00    +0.001 C 
BRANCH  21  22
ATOM     22  C   LIG    1       22.510 -19.445   4.977  0.00  0.00    +0.000 C 
BRANCH  22  23
ATOM     23  C   LIG    1       23.336 -19.179   3.712  0.00  0.00    +0.000 C 
BRANCH  23  24
ATOM     24  C   LIG    1       24.240 -17.941   3.811  0.00  0.00    +0.011 C 
BRANCH  24  25
ATOM     25  C   LIG    1       25.686 -18.226   3.395  0.00  0.00    +0.120 C 
BRANCH  25  26
ATOM     26  C   LIG    1       26.555 -17.003   3.406  0.00  0.00    +0.305 C 
ATOM     27  O   LIG    1       26.229 -15.870   3.057  0.00  0.00    -0.251 OA
BRANCH  26  28
ATOM     28  O   LIG    1       27.789 -17.228   3.859  0.00  0.00    -0.481 OA
ATOM     29  H   LIG    1       27.835 -18.206   3.915  0.00  0.00    +0.295 HD
ENDBRANCH  26  28
ENDBRANCH  25  26
ENDBRANCH  24  25
ENDBRANCH  23  24
ENDBRANCH  22  23
ENDBRANCH  21  22
ENDBRANCH  20  21
ENDBRANCH   7  20
TORSDOF 13
ENDMDL
MODEL 6
REMARK VINA RESULT:      -7.9      2.662      4.929
REMARK  Name = *****
REMARK                            x       y       z     vdW  Elec       q    Type
REMARK                         _______ _______ _______ _____ _____    ______ ____
ROOT
ATOM      1  C   LIG    1       23.489 -21.889   5.995  0.00  0.00    +0.233 C 
ATOM      2  O   LIG    1       24.060 -21.033   7.000  0.00  0.00    -0.340 OA
ATOM      3  C   LIG    1       24.879 -21.702   7.950  0.00  0.00    +0.133 C 
ATOM      4  C   LIG    1       25.498 -20.684   8.907  0.00  0.00    +0.106 C 
ATOM      5  C   LIG    1       26.909 -20.560   8.395  0.00  0.00    +0.139 C 
ATOM      6  O   LIG    1       27.794 -19.962   8.996  0.00  0.00    -0.297 OA
ATOM      7  C   LIG    1       27.124 -21.289   7.084  0.00  0.00    +0.061 C 
ATOM      8  C   LIG    1       26.067 -22.398   7.284  0.00  0.00    +0.029 C 
ATOM      9  C   LIG    1       25.681 -23.226   6.066  0.00  0.00    +0.012 C 
ATOM     10  C   LIG    1       24.603 -22.592   5.192  0.00  0.00    +0.071 C 
ENDROOT
BRANCH   1  11
ATOM     11  C   LIG    1       22.640 -20.996   5.016  0.00  0.00    +0.301 C 
ATOM     12  F   LIG    1       23.168 -21.096   3.760  0.00  0.00    -0.200 F 
ATOM     13  F   LIG    1       21.374 -21.498   4.925  0.00  0.00    -0.200 F 
BRANCH  11  14
ATOM     14  C   LIG    1       22.568 -19.515   5.414  0.00  0.00    +0.081 C 
BRANCH  14  15
ATOM     15  C   LIG    1       22.612 -18.556   4.209  0.00  0.00    +0.006 C 
BRANCH  15  17
ATOM     16  C   LIG    1       22.911 -16.037   4.543  0.00  0.00    +0.004 C 
ATOM     17  C   LIG    1       21.932 -17.209   4.509  0.00  0.00    -0.003 C 
ENDBRANCH  15  17
ENDBRANCH  14  15
ENDBRANCH  11  14
ENDBRANCH   1  11
BRANCH   1  18
ATOM     18  O   LIG    1       22.645 -22.853   6.636  0.00  0.00    -0.360 OA
ATOM     19  H   LIG    1       22.992 -23.739   6.447  0.00  0.00    +0.213 HD
ENDBRANCH   1  18
BRANCH   7  20
ATOM     20  C   LIG    1       26.967 -20.336   5.885  0.00  0.00    +0.011 C 
BRANCH  20  21
ATOM     21  C   LIG    1       28.328 -19.975   5.276  0.00  0.00    +0.001 C 
BRANCH  21  22
ATOM     22  C   LIG    1       29.156 -19.006   6.120  0.00  0.00    +0.000 C 
BRANCH  22  23
ATOM     23  C   LIG    1       30.264 -19.739   6.889  0.00  0.00    +0.000 C 
BRANCH  23  24
ATOM     24  C   LIG    1       31.372 -18.814   7.411  0.00  0.00    +0.011 C 
BRANCH  24  25
ATOM     25  C   LIG    1       30.922 -17.960   8.601  0.00  0.00    +0.120 C 
BRANCH  25  26
ATOM     26  C   LIG    1       32.066 -17.341   9.349  0.00  0.00    +0.305 C 
ATOM     27  O   LIG    1       32.538 -17.728  10.416  0.00  0.00    -0.251 OA
BRANCH  26  28
ATOM     28  O   LIG    1       32.586 -16.273   8.742  0.00  0.00    -0.481 OA
ATOM     29  H   LIG    1       33.212 -16.662   8.095  0.00  0.00    +0.295 HD
ENDBRANCH  26  28
ENDBRANCH  25  26
ENDBRANCH  24  25
ENDBRANCH  23  24
ENDBRANCH  22  23
ENDBRANCH  21  22
ENDBRANCH  20  21
ENDBRANCH   7  20
TORSDOF 13
ENDMDL
MODEL 7
REMARK VINA RESULT:      -7.9      3.430      7.864
REMARK  Name = *****
REMARK                            x       y       z     vdW  Elec       q    Type
REMARK                         _______ _______ _______ _____ _____    ______ ____
ROOT
ATOM      1  C   LIG    1       23.516 -20.329   5.192  0.00  0.00    +0.233 C 
ATOM      2  O   LIG    1       24.682 -20.238   6.030  0.00  0.00    -0.340 OA
ATOM      3  C   LIG    1       24.445 -20.518   7.403  0.00  0.00    +0.133 C 
ATOM      4  C   LIG    1       25.764 -20.478   8.174  0.00  0.00    +0.106 C 
ATOM      5  C   LIG    1       26.086 -21.938   8.358  0.00  0.00    +0.139 C 
ATOM      6  O   LIG    1       26.988 -22.343   9.083  0.00  0.00    -0.297 OA
ATOM      7  C   LIG    1       25.151 -22.847   7.588  0.00  0.00    +0.061 C 
ATOM      8  C   LIG    1       23.905 -21.935   7.608  0.00  0.00    +0.029 C 
ATOM      9  C   LIG    1       22.761 -22.290   6.669  0.00  0.00    +0.012 C 
ATOM     10  C   LIG    1       22.922 -21.752   5.250  0.00  0.00    +0.071 C 
ENDROOT
BRANCH   1  11
ATOM     11  C   LIG    1       23.952 -20.019   3.712  0.00  0.00    +0.301 C 
ATOM     12  F   LIG    1       24.005 -21.192   3.014  0.00  0.00    -0.200 F 
ATOM     13  F   LIG    1       22.987 -19.270   3.102  0.00  0.00    -0.200 F 
BRANCH  11  14
ATOM     14  C   LIG    1       25.302 -19.299   3.589  0.00  0.00    +0.081 C 
BRANCH  14  15
ATOM     15  C   LIG    1       25.169 -17.771   3.443  0.00  0.00    +0.006 C 
BRANCH  15  17
ATOM     16  C   LIG    1       26.423 -15.545   3.321  0.00  0.00    +0.004 C 
ATOM     17  C   LIG    1       26.536 -17.066   3.402  0.00  0.00    -0.003 C 
ENDBRANCH  15  17
ENDBRANCH  14  15
ENDBRANCH  11  14
ENDBRANCH   1  11
BRANCH   1  18
ATOM     18  O   LIG    1       22.554 -19.364   5.633  0.00  0.00    -0.360 OA
ATOM     19  H   LIG    1       21.742 -19.831   5.883  0.00  0.00    +0.213 HD
ENDBRANCH   1  18
BRANCH   7  20
ATOM     20  C   LIG    1       25.751 -23.238   6.224  0.00  0.00    +0.011 C 
BRANCH  20  21
ATOM     21  C   LIG    1       25.854 -24.760   6.074  0.00  0.00    +0.001 C 
BRANCH  21  22
ATOM     22  C   LIG    1       25.008 -25.338   4.940  0.00  0.00    +0.000 C 
BRANCH  22  23
ATOM     23  C   LIG    1       24.574 -26.779   5.242  0.00  0.00    +0.000 C 
BRANCH  23  24
ATOM     24  C   LIG    1       25.229 -27.373   6.497  0.00  0.00    +0.011 C 
BRANCH  24  25
ATOM     25  C   LIG    1       24.555 -28.666   6.965  0.00  0.00    +0.120 C 
BRANCH  25  26
ATOM     26  C   LIG    1       24.409 -29.684   5.872  0.00  0.00    +0.305 C 
ATOM     27  O   LIG    1       25.321 -30.261   5.282  0.00  0.00    -0.251 OA
BRANCH  26  28
ATOM     28  O   LIG    1       23.141 -29.956   5.560  0.00  0.00    -0.481 OA
ATOM     29  H   LIG    1       23.173 -30.106   4.592  0.00  0.00    +0.295 HD
ENDBRANCH  26  28
ENDBRANCH  25  26
ENDBRANCH  24  25
ENDBRANCH  23  24
ENDBRANCH  22  23
ENDBRANCH  21  22
ENDBRANCH  20  21
ENDBRANCH   7  20
TORSDOF 13
ENDMDL
MODEL 8
REMARK VINA RESULT:      -7.6      3.274      5.909
REMARK  Name = *****
REMARK                            x       y       z     vdW  Elec       q    Type
REMARK                         _______ _______ _______ _____ _____    ______ ____
ROOT
ATOM      1  C   LIG    1       26.954 -21.539   7.465  0.00  0.00    +0.233 C 
ATOM      2  O   LIG    1       28.055 -21.682   8.379  0.00  0.00    -0.340 OA
ATOM      3  C   LIG    1       29.317 -21.881   7.757  0.00  0.00    +0.133 C 
ATOM      4  C   LIG    1       30.416 -21.929   8.818  0.00  0.00    +0.106 C 
ATOM      5  C   LIG    1       31.043 -20.564   8.710  0.00  0.00    +0.139 C 
ATOM      6  O   LIG    1       32.083 -20.253   9.280  0.00  0.00    -0.297 OA
ATOM      7  C   LIG    1       30.275 -19.636   7.791  0.00  0.00    +0.061 C 
ATOM      8  C   LIG    1       29.692 -20.711   6.846  0.00  0.00    +0.029 C 
ATOM      9  C   LIG    1       28.569 -20.286   5.911  0.00  0.00    +0.012 C 
ATOM     10  C   LIG    1       27.179 -20.327   6.538  0.00  0.00    +0.071 C 
ENDROOT
BRANCH   1  11
ATOM     11  C   LIG    1       25.646 -21.301   8.308  0.00  0.00    +0.301 C 
ATOM     12  F   LIG    1       25.778 -21.934   9.512  0.00  0.00    -0.200 F 
ATOM     13  F   LIG    1       25.530 -19.973   8.600  0.00  0.00    -0.200 F 
BRANCH  11  14
ATOM     14  C   LIG    1       24.358 -21.783   7.626  0.00  0.00    +0.081 C 
BRANCH  14  15
ATOM     15  C   LIG    1       23.447 -20.632   7.160  0.00  0.00    +0.006 C 
BRANCH  15  17
ATOM     16  C   LIG    1       22.520 -19.428   5.102  0.00  0.00    +0.004 C 
ATOM     17  C   LIG    1       23.118 -20.718   5.660  0.00  0.00    -0.003 C 
ENDBRANCH  15  17
ENDBRANCH  14  15
ENDBRANCH  11  14
ENDBRANCH   1  11
BRANCH   1  18
ATOM     18  O   LIG    1       26.831 -22.743   6.699  0.00  0.00    -0.360 OA
ATOM     19  H   LIG    1       27.677 -23.218   6.734  0.00  0.00    +0.213 HD
ENDBRANCH   1  18
BRANCH   7  20
ATOM     20  C   LIG    1       29.297 -18.750   8.584  0.00  0.00    +0.011 C 
BRANCH  20  21
ATOM     21  C   LIG    1       30.045 -17.761   9.486  0.00  0.00    +0.001 C 
BRANCH  21  22
ATOM     22  C   LIG    1       31.262 -17.109   8.831  0.00  0.00    +0.000 C 
BRANCH  22  23
ATOM     23  C   LIG    1       32.430 -16.982   9.818  0.00  0.00    +0.000 C 
BRANCH  23  24
ATOM     24  C   LIG    1       32.533 -15.602  10.482  0.00  0.00    +0.011 C 
BRANCH  24  25
ATOM     25  C   LIG    1       33.019 -15.675  11.932  0.00  0.00    +0.120 C 
BRANCH  25  26
ATOM     26  C   LIG    1       31.899 -15.779  12.925  0.00  0.00    +0.305 C 
ATOM     27  O   LIG    1       31.950 -15.491  14.120  0.00  0.00    -0.251 OA
BRANCH  26  28
ATOM     28  O   LIG    1       30.758 -16.225  12.399  0.00  0.00    -0.481 OA
ATOM     29  H   LIG    1       31.050 -16.698  11.592  0.00  0.00    +0.295 HD
ENDBRANCH  26  28
ENDBRANCH  25  26
ENDBRANCH  24  25
ENDBRANCH  23  24
ENDBRANCH  22  23
ENDBRANCH  21  22
ENDBRANCH  20  21
ENDBRANCH   7  20
TORSDOF 13
ENDMDL
MODEL 9
REMARK VINA RESULT:      -7.5      3.135      5.151
REMARK  Name = *****
REMARK                            x       y       z     vdW  Elec       q    Type
REMARK                         _______ _______ _______ _____ _____    ______ ____
ROOT
ATOM      1  C   LIG    1       23.070 -20.543   4.670  0.00  0.00    +0.233 C 
ATOM      2  O   LIG    1       23.370 -20.170   6.026  0.00  0.00    -0.340 OA
ATOM      3  C   LIG    1       23.568 -21.265   6.910  0.00  0.00    +0.133 C 
ATOM      4  C   LIG    1       23.966 -20.749   8.292  0.00  0.00    +0.106 C 
ATOM      5  C   LIG    1       25.452 -20.992   8.322  0.00  0.00    +0.139 C 
ATOM      6  O   LIG    1       26.135 -20.871   9.333  0.00  0.00    -0.297 OA
ATOM      7  C   LIG    1       26.001 -21.443   6.984  0.00  0.00    +0.061 C 
ATOM      8  C   LIG    1       24.731 -22.152   6.464  0.00  0.00    +0.029 C 
ATOM      9  C   LIG    1       24.686 -22.514   4.986  0.00  0.00    +0.012 C 
ATOM     10  C   LIG    1       24.220 -21.382   4.075  0.00  0.00    +0.071 C 
ENDROOT
BRANCH   1  11
ATOM     11  C   LIG    1       22.908 -19.226   3.824  0.00  0.00    +0.301 C 
ATOM     12  F   LIG    1       23.039 -19.535   2.499  0.00  0.00    -0.200 F 
ATOM     13  F   LIG    1       21.639 -18.747   3.968  0.00  0.00    -0.200 F 
BRANCH  11  14
ATOM     14  C   LIG    1       23.910 -18.119   4.182  0.00  0.00    +0.081 C 
BRANCH  14  15
ATOM     15  C   LIG    1       25.229 -18.209   3.391  0.00  0.00    +0.006 C 
BRANCH  15  17
ATOM     16  C   LIG    1       27.252 -16.695   3.786  0.00  0.00    +0.004 C 
ATOM     17  C   LIG    1       25.866 -16.829   3.158  0.00  0.00    -0.003 C 
ENDBRANCH  15  17
ENDBRANCH  14  15
ENDBRANCH  11  14
ENDBRANCH   1  11
BRANCH   1  18
ATOM     18  O   LIG    1       21.846 -21.288   4.657  0.00  0.00    -0.360 OA
ATOM     19  H   LIG    1       21.105 -20.662   4.663  0.00  0.00    +0.213 HD
ENDBRANCH   1  18
BRANCH   7  20
ATOM     20  C   LIG    1       26.556 -20.253   6.180  0.00  0.00    +0.011 C 
BRANCH  20  21
ATOM     21  C   LIG    1       28.088 -20.288   6.116  0.00  0.00    +0.001 C 
BRANCH  21  22
ATOM     22  C   LIG    1       28.781 -19.875   7.414  0.00  0.00    +0.000 C 
BRANCH  22  23
ATOM     23  C   LIG    1       29.702 -20.987   7.936  0.00  0.00    +0.000 C 
BRANCH  23  24
ATOM     24  C   LIG    1       31.079 -20.486   8.394  0.00  0.00    +0.011 C 
BRANCH  24  25
ATOM     25  C   LIG    1       31.418 -19.097   7.847  0.00  0.00    +0.120 C 
BRANCH  25  26
ATOM     26  C   LIG    1       31.916 -18.153   8.902  0.00  0.00    +0.305 C 
ATOM     27  O   LIG    1       32.014 -18.385  10.106  0.00  0.00    -0.251 OA
BRANCH  26  28
ATOM     28  O   LIG    1       32.282 -16.962   8.425  0.00  0.00    -0.481 OA
ATOM     29  H   LIG    1       31.630 -16.348   8.823  0.00  0.00    +0.295 HD
ENDBRANCH  26  28
ENDBRANCH  25  26
ENDBRANCH  24  25
ENDBRANCH  23  24
ENDBRANCH  22  23
ENDBRANCH  21  22
ENDBRANCH  20  21
ENDBRANCH   7  20
TORSDOF 13
ENDMDL
