MODEL 1
REMARK VINA RESULT:      -3.8      0.000      0.000
REMARK  Name = *****
REMARK                            x       y       z     vdW  Elec       q    Type
REMARK                         _______ _______ _______ _____ _____    ______ ____
ROOT
ATOM      1  C   LIG    1       22.436 -27.938  13.567  0.00  0.00    +0.210 C 
ATOM      2  C   LIG    1       23.961 -27.191  13.408  0.00  0.00    +0.126 C 
ATOM      3  C   LIG    1       24.323 -27.216  11.921  0.00  0.00    +0.048 C 
ATOM      4  C   LIG    1       25.326 -27.512  14.286  0.00  0.00    +0.158 C 
ATOM      5  C   LIG    1       26.719 -27.641  13.633  0.00  0.00    +0.065 C 
ATOM      6  C   LIG    1       27.633 -26.746  14.393  0.00  0.00    +0.016 C 
ATOM      7  C   LIG    1       27.516 -29.023  13.611  0.00  0.00    +0.066 C 
ATOM      8  N   LIG    1       27.845 -29.501  14.792  0.00  0.00    -0.091 NA
ATOM      9  C   LIG    1       27.792 -29.597  12.150  0.00  0.00    +0.037 C 
ATOM     10  C   LIG    1       28.171 -28.473  11.258  0.00  0.00    +0.014 C 
ATOM     11  C   LIG    1       26.584 -30.385  11.568  0.00  0.00    +0.046 C 
ATOM     12  C   LIG    1       26.179 -31.075  10.284  0.00  0.00    +0.090 C 
ATOM     13  C   LIG    1       25.461 -30.026   9.519  0.00  0.00    +0.044 C 
ATOM     14  C   LIG    1       25.133 -32.438  10.321  0.00  0.00    +0.158 C 
ATOM     15  C   LIG    1       24.167 -33.224  11.730  0.00  0.00    +0.047 C 
ATOM     16  C   LIG    1       24.865 -33.786  13.172  0.00  0.00    +0.013 C 
ATOM     17  C   LIG    1       22.796 -32.873  12.347  0.00  0.00    +0.140 C 
ATOM     18  C   LIG    1       22.618 -31.360  12.154  0.00  0.00    +0.124 C 
ATOM     19  C   LIG    1       21.939 -30.929  10.877  0.00  0.00    +0.022 C 
ATOM     20  C   LIG    1       22.202 -30.461  13.197  0.00  0.00    +0.313 C 
ATOM     21  O   LIG    1       22.006 -30.949  14.657  0.00  0.00    -0.250 OA
ATOM     22  O   LIG    1       22.309 -29.229  12.850  0.00  0.00    -0.458 OA
ENDROOT
BRANCH   1  24
ATOM     23  C   LIG    1       20.031 -27.010  13.832  0.00  0.00    +0.007 C 
ATOM     24  C   LIG    1       21.319 -27.007  13.007  0.00  0.00    +0.044 C 
ENDBRANCH   1  24
BRANCH  12  25
ATOM     25  O   LIG    1       27.432 -31.319   9.623  0.00  0.00    -0.386 OA
ATOM     26  H   LIG    1       27.565 -32.275   9.510  0.00  0.00    +0.210 HD
ENDBRANCH  12  25
BRANCH   4  27
ATOM     27  O   LIG    1       25.306 -26.678  15.500  0.00  0.00    -0.388 OA
ATOM     28  H   LIG    1       25.416 -25.724  15.323  0.00  0.00    +0.210 HD
ENDBRANCH   4  27
BRANCH   2  29
ATOM     29  O   LIG    1       23.727 -25.806  13.785  0.00  0.00    -0.383 OA
ATOM     30  H   LIG    1       23.760 -25.817  14.768  0.00  0.00    +0.210 HD
ENDBRANCH   2  29
BRANCH  14  31
ATOM     31  O   LIG    1       24.847 -33.082   8.963  0.00  0.00    -0.342 OA
BRANCH  31  32
ATOM     32  C   LIG    1       25.734 -32.729   7.725  0.00  0.00    +0.281 C 
ATOM     33  C   LIG    1       26.018 -33.825   6.614  0.00  0.00    +0.187 C 
ATOM     34  C   LIG    1       25.096 -33.793   5.385  0.00  0.00    +0.092 C 
ATOM     35  C   LIG    1       25.256 -32.446   4.707  0.00  0.00    +0.053 C 
ATOM     36  C   LIG    1       25.706 -31.276   5.682  0.00  0.00    +0.120 C 
ATOM     37  C   LIG    1       25.490 -29.814   5.198  0.00  0.00    +0.038 C 
ATOM     38  O   LIG    1       25.445 -31.414   7.117  0.00  0.00    -0.346 OA
BRANCH  34  39
ATOM     39  N   LIG    1       23.690 -33.821   5.483  0.00  0.00    -0.303 NA
ATOM     40  C   LIG    1       22.950 -33.321   6.568  0.00  0.00    +0.105 C 
ATOM     41  C   LIG    1       23.098 -33.538   4.238  0.00  0.00    +0.105 C 
ENDBRANCH  34  39
BRANCH  33  42
ATOM     42  O   LIG    1       27.337 -33.577   6.057  0.00  0.00    -0.385 OA
ATOM     43  H   LIG    1       27.694 -32.791   6.503  0.00  0.00    +0.210 HD
ENDBRANCH  33  42
ENDBRANCH  31  32
ENDBRANCH  14  31
BRANCH  17  44
ATOM     44  O   LIG    1       21.786 -33.817  11.924  0.00  0.00    -0.347 OA
BRANCH  44  45
ATOM     45  C   LIG    1       20.334 -33.713  12.239  0.00  0.00    +0.254 C 
ATOM     46  O   LIG    1       19.433 -33.256  11.240  0.00  0.00    -0.346 OA
ATOM     47  C   LIG    1       19.233 -31.844  11.100  0.00  0.00    +0.150 C 
ATOM     48  C   LIG    1       18.001 -31.731  10.226  0.00  0.00    +0.040 C 
ATOM     49  C   LIG    1       18.976 -30.948  12.377  0.00  0.00    +0.175 C 
ATOM     50  C   LIG    1       18.855 -31.834  13.630  0.00  0.00    +0.099 C 
ATOM     51  C   LIG    1       17.339 -32.053  13.659  0.00  0.00    +0.044 C 
ATOM     52  C   LIG    1       19.714 -33.244  13.605  0.00  0.00    +0.098 C 
BRANCH  50  53
ATOM     53  O   LIG    1       19.098 -31.134  14.841  0.00  0.00    -0.374 OA
ATOM     54  C   LIG    1       18.094 -30.344  15.496  0.00  0.00    +0.195 C 
ENDBRANCH  50  53
BRANCH  49  55
ATOM     55  O   LIG    1       19.209 -29.530  12.576  0.00  0.00    -0.386 OA
ATOM     56  H   LIG    1       19.625 -29.181  13.374  0.00  0.00    +0.210 HD
ENDBRANCH  49  55
ENDBRANCH  44  45
ENDBRANCH  17  44
BRANCH   8  57
ATOM     57  O   LIG    1       28.492 -30.729  15.017  0.00  0.00    -0.365 OA
BRANCH  57  58
ATOM     58  C   LIG    1       29.835 -30.622  15.388  0.00  0.00    +0.426 C 
BRANCH  58  59
ATOM     59  O   LIG    1       30.761 -30.204  14.411  0.00  0.00    -0.340 OA
BRANCH  59  60
ATOM     60  C   LIG    1       32.133 -30.547  14.406  0.00  0.00    +0.192 C 
BRANCH  60  61
ATOM     61  C   LIG    1       32.963 -29.387  14.607  0.00  0.00    +0.187 C 
BRANCH  61  62
ATOM     62  O   LIG    1       32.602 -28.377  13.709  0.00  0.00    -0.381 OA
ATOM     63  C   LIG    1       32.535 -29.012  12.449  0.00  0.00    +0.194 C 
ENDBRANCH  61  62
ENDBRANCH  60  61
ENDBRANCH  59  60
ENDBRANCH  58  59
ENDBRANCH  57  58
ENDBRANCH   8  57
TORSDOF 18
ENDMDL
