MODEL 1
REMARK VINA RESULT:      -5.9      0.000      0.000
REMARK  Name = *****
REMARK                            x       y       z     vdW  Elec       q    Type
REMARK                         _______ _______ _______ _____ _____    ______ ____
ROOT
ATOM      1  C   LIG    1       24.680 -14.890   4.107  0.00  0.00    -0.034 A 
ATOM      2  C   LIG    1       25.343 -16.031   3.632  0.00  0.00    +0.009 A 
ATOM      3  C   LIG    1       24.688 -17.270   3.564  0.00  0.00    -0.026 A 
ATOM      4  C   LIG    1       25.417 -18.483   3.056  0.00  0.00    +0.115 C 
ATOM      5  C   LIG    1       25.883 -19.393   4.166  0.00  0.00    +0.169 C 
ATOM      6  C   LIG    1       24.916 -20.029   5.124  0.00  0.00    +0.031 A 
ATOM      7  C   LIG    1       23.513 -19.897   5.109  0.00  0.00    +0.023 A 
ATOM      8  S   LIG    1       22.521 -18.938   3.964  0.00  0.00    -0.088 S 
ATOM      9  C   LIG    1       22.755 -20.596   6.072  0.00  0.00    +0.016 A 
ATOM     10  C   LIG    1       23.361 -21.398   7.039  0.00  0.00    +0.001 A 
ATOM     11  C   LIG    1       24.742 -21.520   7.062  0.00  0.00    +0.001 A 
ATOM     12  C   LIG    1       25.509 -20.843   6.114  0.00  0.00    +0.012 A 
ATOM     13  O   LIG    1       27.087 -19.642   4.276  0.00  0.00    -0.292 OA
ATOM     14  C   LIG    1       23.363 -17.373   4.004  0.00  0.00    +0.016 A 
ATOM     15  C   LIG    1       22.693 -16.237   4.462  0.00  0.00    +0.015 A 
ATOM     16  C   LIG    1       23.344 -15.003   4.514  0.00  0.00    +0.005 A 
ENDROOT
BRANCH   1  18
ATOM     17  C   LIG    1       26.533 -13.549   5.146  0.00  0.00    +0.024 C 
ATOM     18  C   LIG    1       25.378 -13.536   4.140  0.00  0.00    +0.124 C 
BRANCH  18  19
ATOM     19  C   LIG    1       25.865 -13.052   2.774  0.00  0.00    +0.312 C 
ATOM     20  O   LIG    1       25.114 -12.707   1.870  0.00  0.00    -0.250 OA
BRANCH  19  21
ATOM     21  O   LIG    1       27.205 -13.092   2.584  0.00  0.00    -0.480 OA
ATOM     22  H   LIG    1       27.631 -12.219   2.492  0.00  0.00    +0.295 HD
ENDBRANCH  19  21
ENDBRANCH  18  19
ENDBRANCH   1  18
TORSDOF 3
ENDMDL
MODEL 2
REMARK VINA RESULT:      -3.4      1.859      2.391
REMARK  Name = *****
REMARK                            x       y       z     vdW  Elec       q    Type
REMARK                         _______ _______ _______ _____ _____    ______ ____
ROOT
ATOM      1  C   LIG    1       26.984 -15.608   3.944  0.00  0.00    -0.034 A 
ATOM      2  C   LIG    1       27.585 -16.808   4.351  0.00  0.00    +0.009 A 
ATOM      3  C   LIG    1       27.004 -18.048   4.039  0.00  0.00    -0.026 A 
ATOM      4  C   LIG    1       27.661 -19.324   4.487  0.00  0.00    +0.115 C 
ATOM      5  C   LIG    1       27.004 -19.924   5.705  0.00  0.00    +0.169 C 
ATOM      6  C   LIG    1       25.560 -20.341   5.697  0.00  0.00    +0.031 A 
ATOM      7  C   LIG    1       24.670 -20.260   4.607  0.00  0.00    +0.023 A 
ATOM      8  S   LIG    1       25.016 -19.638   2.962  0.00  0.00    -0.088 S 
ATOM      9  C   LIG    1       23.351 -20.730   4.772  0.00  0.00    +0.016 A 
ATOM     10  C   LIG    1       22.907 -21.257   5.985  0.00  0.00    +0.001 A 
ATOM     11  C   LIG    1       23.777 -21.326   7.062  0.00  0.00    +0.001 A 
ATOM     12  C   LIG    1       25.089 -20.874   6.918  0.00  0.00    +0.012 A 
ATOM     13  O   LIG    1       27.673 -20.101   6.726  0.00  0.00    -0.292 OA
ATOM     14  C   LIG    1       25.793 -18.083   3.337  0.00  0.00    +0.016 A 
ATOM     15  C   LIG    1       25.199 -16.892   2.916  0.00  0.00    +0.015 A 
ATOM     16  C   LIG    1       25.788 -15.662   3.216  0.00  0.00    +0.005 A 
ENDROOT
BRANCH   1  18
ATOM     17  C   LIG    1       27.908 -13.495   2.951  0.00  0.00    +0.024 C 
ATOM     18  C   LIG    1       27.636 -14.265   4.246  0.00  0.00    +0.124 C 
BRANCH  18  19
ATOM     19  C   LIG    1       26.850 -13.397   5.230  0.00  0.00    +0.312 C 
ATOM     20  O   LIG    1       25.697 -13.032   5.040  0.00  0.00    -0.250 OA
BRANCH  19  21
ATOM     21  O   LIG    1       27.538 -12.982   6.320  0.00  0.00    -0.480 OA
ATOM     22  H   LIG    1       27.324 -13.458   7.145  0.00  0.00    +0.295 HD
ENDBRANCH  19  21
ENDBRANCH  18  19
ENDBRANCH   1  18
TORSDOF 3
ENDMDL
