MODEL 1
REMARK VINA RESULT:      -8.0      0.000      0.000
REMARK  Name = *****
REMARK                            x       y       z     vdW  Elec       q    Type
REMARK                         _______ _______ _______ _____ _____    ______ ____
ROOT
ATOM      1  C   LIG    1       27.812 -20.225   6.795  0.00  0.00    +0.121 A 
ATOM      2  C   LIG    1       26.976 -20.238   5.680  0.00  0.00    +0.046 A 
ATOM      3  C   LIG    1       25.601 -20.465   5.832  0.00  0.00    +0.007 A 
ATOM      4  C   LIG    1       25.048 -20.693   7.099  0.00  0.00    -0.038 A 
ATOM      5  C   LIG    1       25.894 -20.691   8.212  0.00  0.00    +0.007 A 
ATOM      6  C   LIG    1       27.262 -20.458   8.058  0.00  0.00    +0.046 A 
ENDROOT
BRANCH   1   7
ATOM      7  O   LIG    1       29.161 -20.006   6.791  0.00  0.00    -0.489 OA
BRANCH   7   8
ATOM      8  C   LIG    1       29.917 -20.518   7.892  0.00  0.00    +0.261 C 
BRANCH   8   9
ATOM      9  C   LIG    1       31.227 -19.715   8.030  0.00  0.00    +0.166 C 
BRANCH   9  10
ATOM     10  O   LIG    1       32.016 -20.168   9.143  0.00  0.00    -0.387 OA
ATOM     11  H   LIG    1       31.473 -20.090   9.947  0.00  0.00    +0.210 HD
ENDBRANCH   9  10
BRANCH   9  12
ATOM     12  C   LIG    1       30.920 -18.216   8.205  0.00  0.00    +0.115 C 
BRANCH  12  13
ATOM     13  N   LIG    1       32.141 -17.443   8.483  0.00  0.00    -0.311 NA
ATOM     14  H   LIG    1       32.936 -18.062   8.296  0.00  0.00    +0.122 HD
BRANCH  13  16
ATOM     15  C   LIG    1       32.921 -15.601   9.873  0.00  0.00    +0.024 C 
ATOM     16  C   LIG    1       32.204 -16.954   9.867  0.00  0.00    +0.048 C 
ATOM     17  C   LIG    1       30.813 -16.791  10.486  0.00  0.00    +0.024 C 
ENDBRANCH  13  16
ENDBRANCH  12  13
ENDBRANCH   9  12
ENDBRANCH   8   9
ENDBRANCH   7   8
ENDBRANCH   1   7
BRANCH   4  18
ATOM     18  C   LIG    1       23.560 -20.903   7.258  0.00  0.00    +0.130 C 
BRANCH  18  19
ATOM     19  C   LIG    1       23.048 -22.101   6.491  0.00  0.00    +0.215 C 
ATOM     20  O   LIG    1       23.241 -23.270   6.838  0.00  0.00    -0.276 OA
ATOM     21  N   LIG    1       22.336 -21.817   5.361  0.00  0.00    -0.329 N 
ATOM     22  H   LIG    1       21.992 -22.592   4.809  0.00  0.00    +0.145 HD
ATOM     23  H   LIG    1       22.179 -20.875   5.024  0.00  0.00    +0.145 HD
ENDBRANCH  18  19
ENDBRANCH   4  18
TORSDOF 9
ENDMDL
MODEL 2
REMARK VINA RESULT:      -8.0      1.314      1.720
REMARK  Name = *****
REMARK                            x       y       z     vdW  Elec       q    Type
REMARK                         _______ _______ _______ _____ _____    ______ ____
ROOT
ATOM      1  C   LIG    1       27.650 -20.327   6.792  0.00  0.00    +0.121 A 
ATOM      2  C   LIG    1       27.026 -20.504   8.026  0.00  0.00    +0.046 A 
ATOM      3  C   LIG    1       25.639 -20.693   8.093  0.00  0.00    +0.007 A 
ATOM      4  C   LIG    1       24.858 -20.697   6.931  0.00  0.00    -0.038 A 
ATOM      5  C   LIG    1       25.488 -20.507   5.697  0.00  0.00    +0.007 A 
ATOM      6  C   LIG    1       26.872 -20.325   5.632  0.00  0.00    +0.046 A 
ENDROOT
BRANCH   1   7
ATOM      7  O   LIG    1       28.988 -20.145   6.582  0.00  0.00    -0.489 OA
BRANCH   7   8
ATOM      8  C   LIG    1       29.652 -19.155   7.376  0.00  0.00    +0.261 C 
BRANCH   8   9
ATOM      9  C   LIG    1       31.175 -19.392   7.317  0.00  0.00    +0.166 C 
BRANCH   9  10
ATOM     10  O   LIG    1       31.533 -20.690   7.819  0.00  0.00    -0.387 OA
ATOM     11  H   LIG    1       31.316 -20.715   8.768  0.00  0.00    +0.210 HD
ENDBRANCH   9  10
BRANCH   9  12
ATOM     12  C   LIG    1       31.916 -18.314   8.130  0.00  0.00    +0.115 C 
BRANCH  12  13
ATOM     13  N   LIG    1       31.951 -18.648   9.563  0.00  0.00    -0.311 NA
ATOM     14  H   LIG    1       31.153 -19.264   9.747  0.00  0.00    +0.122 HD
BRANCH  13  16
ATOM     15  C   LIG    1       32.318 -16.240   9.620  0.00  0.00    +0.024 C 
ATOM     16  C   LIG    1       31.875 -17.462  10.428  0.00  0.00    +0.048 C 
ATOM     17  C   LIG    1       30.459 -17.228  10.964  0.00  0.00    +0.024 C 
ENDBRANCH  13  16
ENDBRANCH  12  13
ENDBRANCH   9  12
ENDBRANCH   8   9
ENDBRANCH   7   8
ENDBRANCH   1   7
BRANCH   4  18
ATOM     18  C   LIG    1       23.368 -20.936   7.009  0.00  0.00    +0.130 C 
BRANCH  18  19
ATOM     19  C   LIG    1       22.632 -20.490   5.765  0.00  0.00    +0.215 C 
ATOM     20  O   LIG    1       22.484 -19.307   5.445  0.00  0.00    -0.276 OA
ATOM     21  N   LIG    1       22.127 -21.493   4.988  0.00  0.00    -0.329 N 
ATOM     22  H   LIG    1       21.611 -21.235   4.157  0.00  0.00    +0.145 HD
ATOM     23  H   LIG    1       22.201 -22.474   5.229  0.00  0.00    +0.145 HD
ENDBRANCH  18  19
ENDBRANCH   4  18
TORSDOF 9
ENDMDL
MODEL 3
REMARK VINA RESULT:      -7.9      1.365      1.382
REMARK  Name = *****
REMARK                            x       y       z     vdW  Elec       q    Type
REMARK                         _______ _______ _______ _____ _____    ______ ____
ROOT
ATOM      1  C   LIG    1       27.515 -20.333   7.578  0.00  0.00    +0.121 A 
ATOM      2  C   LIG    1       26.996 -20.397   6.286  0.00  0.00    +0.046 A 
ATOM      3  C   LIG    1       25.632 -20.649   6.086  0.00  0.00    +0.007 A 
ATOM      4  C   LIG    1       24.772 -20.850   7.174  0.00  0.00    -0.038 A 
ATOM      5  C   LIG    1       25.302 -20.797   8.467  0.00  0.00    +0.007 A 
ATOM      6  C   LIG    1       26.661 -20.539   8.664  0.00  0.00    +0.046 A 
ENDROOT
BRANCH   1   7
ATOM      7  O   LIG    1       28.816 -20.086   7.914  0.00  0.00    -0.489 OA
BRANCH   7   8
ATOM      8  C   LIG    1       29.643 -19.449   6.934  0.00  0.00    +0.261 C 
BRANCH   8   9
ATOM      9  C   LIG    1       31.126 -19.651   7.307  0.00  0.00    +0.166 C 
BRANCH   9  10
ATOM     10  O   LIG    1       31.320 -20.833   8.102  0.00  0.00    -0.387 OA
ATOM     11  H   LIG    1       32.232 -21.141   7.965  0.00  0.00    +0.210 HD
ENDBRANCH   9  10
BRANCH   9  12
ATOM     12  C   LIG    1       31.653 -18.429   8.083  0.00  0.00    +0.115 C 
BRANCH  12  13
ATOM     13  N   LIG    1       31.881 -18.747   9.501  0.00  0.00    -0.311 NA
ATOM     14  H   LIG    1       31.149 -19.407   9.782  0.00  0.00    +0.122 HD
BRANCH  13  16
ATOM     15  C   LIG    1       32.385 -16.364   9.580  0.00  0.00    +0.024 C 
ATOM     16  C   LIG    1       31.840 -17.559  10.367  0.00  0.00    +0.048 C 
ATOM     17  C   LIG    1       30.421 -17.244  10.848  0.00  0.00    +0.024 C 
ENDBRANCH  13  16
ENDBRANCH  12  13
ENDBRANCH   9  12
ENDBRANCH   8   9
ENDBRANCH   7   8
ENDBRANCH   1   7
BRANCH   4  18
ATOM     18  C   LIG    1       23.297 -21.087   6.951  0.00  0.00    +0.130 C 
BRANCH  18  19
ATOM     19  C   LIG    1       22.801 -20.529   5.636  0.00  0.00    +0.215 C 
ATOM     20  O   LIG    1       22.510 -19.342   5.462  0.00  0.00    -0.276 OA
ATOM     21  N   LIG    1       22.691 -21.431   4.617  0.00  0.00    -0.329 N 
ATOM     22  H   LIG    1       22.344 -21.101   3.726  0.00  0.00    +0.145 HD
ATOM     23  H   LIG    1       22.892 -22.418   4.724  0.00  0.00    +0.145 HD
ENDBRANCH  18  19
ENDBRANCH   4  18
TORSDOF 9
ENDMDL
MODEL 4
REMARK VINA RESULT:      -7.8      2.368      8.094
REMARK  Name = *****
REMARK                            x       y       z     vdW  Elec       q    Type
REMARK                         _______ _______ _______ _____ _____    ______ ____
ROOT
ATOM      1  C   LIG    1       26.328 -20.511   6.070  0.00  0.00    +0.121 A 
ATOM      2  C   LIG    1       26.373 -20.697   7.451  0.00  0.00    +0.046 A 
ATOM      3  C   LIG    1       27.510 -20.315   8.176  0.00  0.00    +0.007 A 
ATOM      4  C   LIG    1       28.617 -19.751   7.530  0.00  0.00    -0.038 A 
ATOM      5  C   LIG    1       28.570 -19.578   6.143  0.00  0.00    +0.007 A 
ATOM      6  C   LIG    1       27.434 -19.954   5.423  0.00  0.00    +0.046 A 
ENDROOT
BRANCH   1   7
ATOM      7  O   LIG    1       25.284 -20.827   5.247  0.00  0.00    -0.489 OA
BRANCH   7   8
ATOM      8  C   LIG    1       23.960 -20.619   5.748  0.00  0.00    +0.261 C 
BRANCH   8   9
ATOM      9  C   LIG    1       23.133 -21.907   5.556  0.00  0.00    +0.166 C 
BRANCH   9  10
ATOM     10  O   LIG    1       21.794 -21.621   5.117  0.00  0.00    -0.387 OA
ATOM     11  H   LIG    1       21.585 -20.705   5.368  0.00  0.00    +0.210 HD
ENDBRANCH   9  10
BRANCH   9  12
ATOM     12  C   LIG    1       23.072 -22.706   6.872  0.00  0.00    +0.115 C 
BRANCH  12  13
ATOM     13  N   LIG    1       23.020 -24.155   6.623  0.00  0.00    -0.311 NA
ATOM     14  H   LIG    1       22.808 -24.606   7.518  0.00  0.00    +0.122 HD
BRANCH  13  16
ATOM     15  C   LIG    1       25.425 -24.249   6.995  0.00  0.00    +0.024 C 
ATOM     16  C   LIG    1       24.278 -24.687   6.081  0.00  0.00    +0.048 C 
ATOM     17  C   LIG    1       24.263 -26.216   5.985  0.00  0.00    +0.024 C 
ENDBRANCH  13  16
ENDBRANCH  12  13
ENDBRANCH   9  12
ENDBRANCH   8   9
ENDBRANCH   7   8
ENDBRANCH   1   7
BRANCH   4  18
ATOM     18  C   LIG    1       29.825 -19.309   8.324  0.00  0.00    +0.130 C 
BRANCH  18  19
ATOM     19  C   LIG    1       31.105 -19.975   7.871  0.00  0.00    +0.215 C 
ATOM     20  O   LIG    1       31.907 -19.456   7.089  0.00  0.00    -0.276 OA
ATOM     21  N   LIG    1       31.338 -21.217   8.388  0.00  0.00    -0.329 N 
ATOM     22  H   LIG    1       32.174 -21.705   8.094  0.00  0.00    +0.145 HD
ATOM     23  H   LIG    1       30.693 -21.692   9.009  0.00  0.00    +0.145 HD
ENDBRANCH  18  19
ENDBRANCH   4  18
TORSDOF 9
ENDMDL
MODEL 5
REMARK VINA RESULT:      -7.8      1.995      7.610
REMARK  Name = *****
REMARK                            x       y       z     vdW  Elec       q    Type
REMARK                         _______ _______ _______ _____ _____    ______ ____
ROOT
ATOM      1  C   LIG    1       27.103 -21.029   6.880  0.00  0.00    +0.121 A 
ATOM      2  C   LIG    1       27.505 -20.042   5.981  0.00  0.00    +0.046 A 
ATOM      3  C   LIG    1       28.800 -19.510   6.051  0.00  0.00    +0.007 A 
ATOM      4  C   LIG    1       29.705 -19.951   7.025  0.00  0.00    -0.038 A 
ATOM      5  C   LIG    1       29.292 -20.932   7.932  0.00  0.00    +0.007 A 
ATOM      6  C   LIG    1       28.002 -21.465   7.856  0.00  0.00    +0.046 A 
ENDROOT
BRANCH   1   7
ATOM      7  O   LIG    1       25.880 -21.637   6.917  0.00  0.00    -0.489 OA
BRANCH   7   8
ATOM      8  C   LIG    1       25.844 -23.058   6.749  0.00  0.00    +0.261 C 
BRANCH   8   9
ATOM      9  C   LIG    1       24.546 -23.452   6.015  0.00  0.00    +0.166 C 
BRANCH   9  10
ATOM     10  O   LIG    1       24.805 -23.887   4.669  0.00  0.00    -0.387 OA
ATOM     11  H   LIG    1       24.106 -24.514   4.416  0.00  0.00    +0.210 HD
ENDBRANCH   9  10
BRANCH   9  12
ATOM     12  C   LIG    1       23.568 -22.263   5.981  0.00  0.00    +0.115 C 
BRANCH  12  13
ATOM     13  N   LIG    1       23.628 -21.551   4.695  0.00  0.00    -0.311 NA
ATOM     14  H   LIG    1       24.425 -21.934   4.177  0.00  0.00    +0.122 HD
BRANCH  13  16
ATOM     15  C   LIG    1       24.598 -19.566   3.669  0.00  0.00    +0.024 C 
ATOM     16  C   LIG    1       23.786 -20.098   4.852  0.00  0.00    +0.048 C 
ATOM     17  C   LIG    1       22.437 -19.374   4.907  0.00  0.00    +0.024 C 
ENDBRANCH  13  16
ENDBRANCH  12  13
ENDBRANCH   9  12
ENDBRANCH   8   9
ENDBRANCH   7   8
ENDBRANCH   1   7
BRANCH   4  18
ATOM     18  C   LIG    1       31.110 -19.398   7.072  0.00  0.00    +0.130 C 
BRANCH  18  19
ATOM     19  C   LIG    1       31.497 -18.883   8.441  0.00  0.00    +0.215 C 
ATOM     20  O   LIG    1       32.183 -19.522   9.244  0.00  0.00    -0.276 OA
ATOM     21  N   LIG    1       31.037 -17.636   8.753  0.00  0.00    -0.329 N 
ATOM     22  H   LIG    1       31.258 -17.264   9.668  0.00  0.00    +0.145 HD
ATOM     23  H   LIG    1       30.448 -17.090   8.136  0.00  0.00    +0.145 HD
ENDBRANCH  18  19
ENDBRANCH   4  18
TORSDOF 9
ENDMDL
MODEL 6
REMARK VINA RESULT:      -7.7      2.171      7.808
REMARK  Name = *****
REMARK                            x       y       z     vdW  Elec       q    Type
REMARK                         _______ _______ _______ _____ _____    ______ ____
ROOT
ATOM      1  C   LIG    1       27.573 -20.055   6.147  0.00  0.00    +0.121 A 
ATOM      2  C   LIG    1       28.396 -19.212   5.401  0.00  0.00    +0.046 A 
ATOM      3  C   LIG    1       29.533 -18.639   5.987  0.00  0.00    +0.007 A 
ATOM      4  C   LIG    1       29.857 -18.894   7.325  0.00  0.00    -0.038 A 
ATOM      5  C   LIG    1       29.021 -19.730   8.072  0.00  0.00    +0.007 A 
ATOM      6  C   LIG    1       27.892 -20.305   7.484  0.00  0.00    +0.046 A 
ENDROOT
BRANCH   1   7
ATOM      7  O   LIG    1       26.446 -20.685   5.701  0.00  0.00    -0.489 OA
BRANCH   7   8
ATOM      8  C   LIG    1       25.717 -20.062   4.639  0.00  0.00    +0.261 C 
BRANCH   8   9
ATOM      9  C   LIG    1       24.394 -20.822   4.413  0.00  0.00    +0.166 C 
BRANCH   9  10
ATOM     10  O   LIG    1       23.253 -19.956   4.538  0.00  0.00    -0.387 OA
ATOM     11  H   LIG    1       23.251 -19.350   3.777  0.00  0.00    +0.210 HD
ENDBRANCH   9  10
BRANCH   9  12
ATOM     12  C   LIG    1       24.262 -21.979   5.421  0.00  0.00    +0.115 C 
BRANCH  12  13
ATOM     13  N   LIG    1       24.880 -23.213   4.911  0.00  0.00    -0.311 NA
ATOM     14  H   LIG    1       24.286 -23.551   4.147  0.00  0.00    +0.122 HD
BRANCH  13  16
ATOM     15  C   LIG    1       25.895 -23.714   7.067  0.00  0.00    +0.024 C 
ATOM     16  C   LIG    1       25.012 -24.254   5.940  0.00  0.00    +0.048 C 
ATOM     17  C   LIG    1       23.655 -24.673   6.514  0.00  0.00    +0.024 C 
ENDBRANCH  13  16
ENDBRANCH  12  13
ENDBRANCH   9  12
ENDBRANCH   8   9
ENDBRANCH   7   8
ENDBRANCH   1   7
BRANCH   4  18
ATOM     18  C   LIG    1       31.104 -18.300   7.938  0.00  0.00    +0.130 C 
BRANCH  18  19
ATOM     19  C   LIG    1       31.530 -19.002   9.208  0.00  0.00    +0.215 C 
ATOM     20  O   LIG    1       32.097 -20.098   9.226  0.00  0.00    -0.276 OA
ATOM     21  N   LIG    1       31.249 -18.342  10.369  0.00  0.00    -0.329 N 
ATOM     22  H   LIG    1       31.501 -18.788  11.242  0.00  0.00    +0.145 HD
ATOM     23  H   LIG    1       30.760 -17.455  10.401  0.00  0.00    +0.145 HD
ENDBRANCH  18  19
ENDBRANCH   4  18
TORSDOF 9
ENDMDL
MODEL 7
REMARK VINA RESULT:      -7.7      5.193      8.971
REMARK  Name = *****
REMARK                            x       y       z     vdW  Elec       q    Type
REMARK                         _______ _______ _______ _____ _____    ______ ____
ROOT
ATOM      1  C   LIG    1       24.044 -24.955   6.514  0.00  0.00    +0.121 A 
ATOM      2  C   LIG    1       23.053 -23.987   6.672  0.00  0.00    +0.046 A 
ATOM      3  C   LIG    1       23.404 -22.649   6.895  0.00  0.00    +0.007 A 
ATOM      4  C   LIG    1       24.749 -22.263   6.972  0.00  0.00    -0.038 A 
ATOM      5  C   LIG    1       25.738 -23.240   6.825  0.00  0.00    +0.007 A 
ATOM      6  C   LIG    1       25.385 -24.573   6.597  0.00  0.00    +0.046 A 
ENDROOT
BRANCH   1   7
ATOM      7  O   LIG    1       23.842 -26.286   6.282  0.00  0.00    -0.489 OA
BRANCH   7   8
ATOM      8  C   LIG    1       24.777 -26.958   5.431  0.00  0.00    +0.261 C 
BRANCH   8   9
ATOM      9  C   LIG    1       24.615 -28.483   5.598  0.00  0.00    +0.166 C 
BRANCH   9  10
ATOM     10  O   LIG    1       23.406 -28.961   4.984  0.00  0.00    -0.387 OA
ATOM     11  H   LIG    1       22.705 -28.308   5.152  0.00  0.00    +0.210 HD
ENDBRANCH   9  10
BRANCH   9  12
ATOM     12  C   LIG    1       24.605 -28.860   7.092  0.00  0.00    +0.115 C 
BRANCH  12  13
ATOM     13  N   LIG    1       25.830 -28.409   7.770  0.00  0.00    -0.311 NA
ATOM     14  H   LIG    1       26.596 -28.494   7.094  0.00  0.00    +0.122 HD
BRANCH  13  16
ATOM     15  C   LIG    1       26.705 -28.248  10.038  0.00  0.00    +0.024 C 
ATOM     16  C   LIG    1       26.138 -29.193   8.975  0.00  0.00    +0.048 C 
ATOM     17  C   LIG    1       24.901 -29.901   9.534  0.00  0.00    +0.024 C 
ENDBRANCH  13  16
ENDBRANCH  12  13
ENDBRANCH   9  12
ENDBRANCH   8   9
ENDBRANCH   7   8
ENDBRANCH   1   7
BRANCH   4  18
ATOM     18  C   LIG    1       25.119 -20.813   7.178  0.00  0.00    +0.130 C 
BRANCH  18  19
ATOM     19  C   LIG    1       26.118 -20.612   8.295  0.00  0.00    +0.215 C 
ATOM     20  O   LIG    1       25.839 -20.728   9.492  0.00  0.00    -0.276 OA
ATOM     21  N   LIG    1       27.385 -20.287   7.902  0.00  0.00    -0.329 N 
ATOM     22  H   LIG    1       28.078 -20.125   8.621  0.00  0.00    +0.145 HD
ATOM     23  H   LIG    1       27.650 -20.153   6.934  0.00  0.00    +0.145 HD
ENDBRANCH  18  19
ENDBRANCH   4  18
TORSDOF 9
ENDMDL
MODEL 8
REMARK VINA RESULT:      -7.6      5.382      9.182
REMARK  Name = *****
REMARK                            x       y       z     vdW  Elec       q    Type
REMARK                         _______ _______ _______ _____ _____    ______ ____
ROOT
ATOM      1  C   LIG    1       24.270 -25.090   6.552  0.00  0.00    +0.121 A 
ATOM      2  C   LIG    1       25.579 -24.621   6.656  0.00  0.00    +0.046 A 
ATOM      3  C   LIG    1       25.823 -23.256   6.861  0.00  0.00    +0.007 A 
ATOM      4  C   LIG    1       24.765 -22.344   6.955  0.00  0.00    -0.038 A 
ATOM      5  C   LIG    1       23.455 -22.819   6.838  0.00  0.00    +0.007 A 
ATOM      6  C   LIG    1       23.214 -24.181   6.639  0.00  0.00    +0.046 A 
ENDROOT
BRANCH   1   7
ATOM      7  O   LIG    1       23.892 -26.389   6.363  0.00  0.00    -0.489 OA
BRANCH   7   8
ATOM      8  C   LIG    1       24.594 -27.145   5.370  0.00  0.00    +0.261 C 
BRANCH   8   9
ATOM      9  C   LIG    1       24.479 -28.648   5.696  0.00  0.00    +0.166 C 
BRANCH   9  10
ATOM     10  O   LIG    1       23.242 -29.205   5.219  0.00  0.00    -0.387 OA
ATOM     11  H   LIG    1       23.322 -30.174   5.238  0.00  0.00    +0.210 HD
ENDBRANCH   9  10
BRANCH   9  12
ATOM     12  C   LIG    1       24.581 -28.875   7.217  0.00  0.00    +0.115 C 
BRANCH  12  13
ATOM     13  N   LIG    1       25.834 -29.556   7.578  0.00  0.00    -0.311 NA
ATOM     14  H   LIG    1       25.830 -30.464   7.103  0.00  0.00    +0.122 HD
BRANCH  13  16
ATOM     15  C   LIG    1       26.608 -28.491   9.628  0.00  0.00    +0.024 C 
ATOM     16  C   LIG    1       25.981 -29.751   9.028  0.00  0.00    +0.048 C 
ATOM     17  C   LIG    1       24.638 -30.024   9.712  0.00  0.00    +0.024 C 
ENDBRANCH  13  16
ENDBRANCH  12  13
ENDBRANCH   9  12
ENDBRANCH   8   9
ENDBRANCH   7   8
ENDBRANCH   1   7
BRANCH   4  18
ATOM     18  C   LIG    1       25.036 -20.879   7.211  0.00  0.00    +0.130 C 
BRANCH  18  19
ATOM     19  C   LIG    1       26.063 -20.650   8.297  0.00  0.00    +0.215 C 
ATOM     20  O   LIG    1       25.847 -20.846   9.496  0.00  0.00    -0.276 OA
ATOM     21  N   LIG    1       27.281 -20.204   7.871  0.00  0.00    -0.329 N 
ATOM     22  H   LIG    1       27.990 -20.020   8.569  0.00  0.00    +0.145 HD
ATOM     23  H   LIG    1       27.492 -20.003   6.900  0.00  0.00    +0.145 HD
ENDBRANCH  18  19
ENDBRANCH   4  18
TORSDOF 9
ENDMDL
MODEL 9
REMARK VINA RESULT:      -7.4      2.629      3.537
REMARK  Name = *****
REMARK                            x       y       z     vdW  Elec       q    Type
REMARK                         _______ _______ _______ _____ _____    ______ ____
ROOT
ATOM      1  C   LIG    1       26.487 -21.108   6.909  0.00  0.00    +0.121 A 
ATOM      2  C   LIG    1       26.786 -22.359   7.447  0.00  0.00    +0.046 A 
ATOM      3  C   LIG    1       25.851 -23.401   7.370  0.00  0.00    +0.007 A 
ATOM      4  C   LIG    1       24.605 -23.203   6.762  0.00  0.00    -0.038 A 
ATOM      5  C   LIG    1       24.306 -21.943   6.235  0.00  0.00    +0.007 A 
ATOM      6  C   LIG    1       25.241 -20.908   6.309  0.00  0.00    +0.046 A 
ENDROOT
BRANCH   1   7
ATOM      7  O   LIG    1       27.305 -20.014   6.906  0.00  0.00    -0.489 OA
BRANCH   7   8
ATOM      8  C   LIG    1       28.186 -19.850   5.790  0.00  0.00    +0.261 C 
BRANCH   8   9
ATOM      9  C   LIG    1       29.288 -18.834   6.154  0.00  0.00    +0.166 C 
BRANCH   9  10
ATOM     10  O   LIG    1       29.666 -18.030   5.024  0.00  0.00    -0.387 OA
ATOM     11  H   LIG    1       29.012 -18.176   4.319  0.00  0.00    +0.210 HD
ENDBRANCH   9  10
BRANCH   9  12
ATOM     12  C   LIG    1       30.533 -19.565   6.692  0.00  0.00    +0.115 C 
BRANCH  12  13
ATOM     13  N   LIG    1       30.168 -20.800   7.404  0.00  0.00    -0.311 NA
ATOM     14  H   LIG    1       29.151 -20.900   7.329  0.00  0.00    +0.122 HD
BRANCH  13  16
ATOM     15  C   LIG    1       31.427 -22.016   9.098  0.00  0.00    +0.024 C 
ATOM     16  C   LIG    1       30.565 -20.783   8.819  0.00  0.00    +0.048 C 
ATOM     17  C   LIG    1       31.354 -19.521   9.181  0.00  0.00    +0.024 C 
ENDBRANCH  13  16
ENDBRANCH  12  13
ENDBRANCH   9  12
ENDBRANCH   8   9
ENDBRANCH   7   8
ENDBRANCH   1   7
BRANCH   4  18
ATOM     18  C   LIG    1       23.617 -24.341   6.652  0.00  0.00    +0.130 C 
BRANCH  18  19
ATOM     19  C   LIG    1       24.137 -25.496   5.827  0.00  0.00    +0.215 C 
ATOM     20  O   LIG    1       23.999 -26.681   6.145  0.00  0.00    -0.276 OA
ATOM     21  N   LIG    1       24.783 -25.153   4.674  0.00  0.00    -0.329 N 
ATOM     22  H   LIG    1       25.163 -25.897   4.103  0.00  0.00    +0.145 HD
ATOM     23  H   LIG    1       24.943 -24.194   4.390  0.00  0.00    +0.145 HD
ENDBRANCH  18  19
ENDBRANCH   4  18
TORSDOF 9
ENDMDL
