MODEL 1
REMARK VINA RESULT:      -8.2      0.000      0.000
REMARK  Name = *****
REMARK                            x       y       z     vdW  Elec       q    Type
REMARK                         _______ _______ _______ _____ _____    ______ ____
ROOT
ATOM      1  N   LIG    1       26.585 -20.787   6.492  0.00  0.00    -0.298 N 
ATOM      2  C   LIG    1       27.888 -20.202   6.496  0.00  0.00    +0.049 A 
ATOM      3  C   LIG    1       28.268 -19.228   5.549  0.00  0.00    +0.034 A 
ATOM      4  C   LIG    1       29.552 -18.645   5.575  0.00  0.00    +0.018 A 
ATOM      5  C   LIG    1       30.495 -19.010   6.530  0.00  0.00    +0.018 A 
ATOM      6  C   LIG    1       30.155 -19.968   7.476  0.00  0.00    +0.040 A 
ATOM      7  S   LIG    1       27.213 -18.636   4.253  0.00  0.00    -0.086 S 
ATOM      8  C   LIG    1       25.691 -19.487   4.574  0.00  0.00    +0.034 A 
ATOM      9  C   LIG    1       24.627 -19.133   3.717  0.00  0.00    +0.017 A 
ATOM     10  C   LIG    1       23.376 -19.721   3.836  0.00  0.00    +0.001 A 
ATOM     11  C   LIG    1       23.185 -20.684   4.811  0.00  0.00    +0.002 A 
ATOM     12  C   LIG    1       24.241 -21.041   5.661  0.00  0.00    +0.024 A 
ATOM     13  C   LIG    1       28.875 -20.543   7.449  0.00  0.00    +0.041 A 
ATOM     14  C   LIG    1       25.525 -20.452   5.592  0.00  0.00    +0.048 A 
ENDROOT
BRANCH   6  15
ATOM     15  S   LIG    1       31.340 -20.411   8.768  0.00  0.00    +0.051 S 
ATOM     16  C   LIG    1       30.722 -22.080   9.103  0.00  0.00    +0.127 C 
ATOM     17  O   LIG    1       30.965 -19.569   9.955  0.00  0.00    -0.252 OA
ENDBRANCH   6  15
BRANCH   1  18
ATOM     18  C   LIG    1       26.301 -21.818   7.528  0.00  0.00    +0.112 C 
BRANCH  18  19
ATOM     19  C   LIG    1       26.637 -23.230   7.017  0.00  0.00    +0.038 C 
BRANCH  19  22
ATOM     20  C   LIG    1       23.129 -24.550   6.526  0.00  0.00    +0.105 C 
ATOM     21  N   LIG    1       24.436 -24.013   6.144  0.00  0.00    -0.302 NA
ATOM     22  C   LIG    1       25.456 -24.217   7.193  0.00  0.00    +0.058 C 
ATOM     23  C   LIG    1       25.942 -25.681   7.256  0.00  0.00    +0.019 C 
ATOM     24  C   LIG    1       26.401 -26.208   5.899  0.00  0.00    +0.003 C 
ATOM     25  C   LIG    1       25.344 -25.960   4.829  0.00  0.00    +0.015 C 
ATOM     26  C   LIG    1       24.868 -24.508   4.830  0.00  0.00    +0.084 C 
ENDBRANCH  19  22
ENDBRANCH  18  19
ENDBRANCH   1  18
TORSDOF 4
ENDMDL
MODEL 2
REMARK VINA RESULT:      -7.4      2.309      5.106
REMARK  Name = *****
REMARK                            x       y       z     vdW  Elec       q    Type
REMARK                         _______ _______ _______ _____ _____    ______ ____
ROOT
ATOM      1  N   LIG    1       27.449 -20.850   6.940  0.00  0.00    -0.298 N 
ATOM      2  C   LIG    1       26.754 -20.184   5.885  0.00  0.00    +0.049 A 
ATOM      3  C   LIG    1       27.365 -19.170   5.117  0.00  0.00    +0.034 A 
ATOM      4  C   LIG    1       26.673 -18.533   4.067  0.00  0.00    +0.018 A 
ATOM      5  C   LIG    1       25.363 -18.874   3.748  0.00  0.00    +0.018 A 
ATOM      6  C   LIG    1       24.731 -19.867   4.485  0.00  0.00    +0.040 A 
ATOM      7  S   LIG    1       29.021 -18.592   5.371  0.00  0.00    -0.086 S 
ATOM      8  C   LIG    1       29.607 -19.651   6.667  0.00  0.00    +0.034 A 
ATOM      9  C   LIG    1       30.960 -19.456   7.020  0.00  0.00    +0.017 A 
ATOM     10  C   LIG    1       31.559 -20.202   8.025  0.00  0.00    +0.001 A 
ATOM     11  C   LIG    1       30.800 -21.143   8.697  0.00  0.00    +0.002 A 
ATOM     12  C   LIG    1       29.455 -21.336   8.351  0.00  0.00    +0.024 A 
ATOM     13  C   LIG    1       25.423 -20.502   5.528  0.00  0.00    +0.041 A 
ATOM     14  C   LIG    1       28.809 -20.617   7.319  0.00  0.00    +0.048 A 
ENDROOT
BRANCH   6  15
ATOM     15  S   LIG    1       23.051 -20.374   4.048  0.00  0.00    +0.051 S 
ATOM     16  C   LIG    1       22.255 -18.757   4.229  0.00  0.00    +0.127 C 
ATOM     17  O   LIG    1       22.579 -21.216   5.201  0.00  0.00    -0.252 OA
ENDBRANCH   6  15
BRANCH   1  18
ATOM     18  C   LIG    1       26.700 -21.893   7.695  0.00  0.00    +0.112 C 
BRANCH  18  19
ATOM     19  C   LIG    1       26.804 -23.264   7.003  0.00  0.00    +0.038 C 
BRANCH  19  22
ATOM     20  C   LIG    1       23.146 -24.160   6.679  0.00  0.00    +0.105 C 
ATOM     21  N   LIG    1       24.480 -23.749   6.239  0.00  0.00    -0.302 NA
ATOM     22  C   LIG    1       25.531 -24.124   7.207  0.00  0.00    +0.058 C 
ATOM     23  C   LIG    1       25.851 -25.634   7.164  0.00  0.00    +0.019 C 
ATOM     24  C   LIG    1       26.165 -26.129   5.755  0.00  0.00    +0.003 C 
ATOM     25  C   LIG    1       25.081 -25.705   4.771  0.00  0.00    +0.015 C 
ATOM     26  C   LIG    1       24.774 -24.212   4.876  0.00  0.00    +0.084 C 
ENDBRANCH  19  22
ENDBRANCH  18  19
ENDBRANCH   1  18
TORSDOF 4
ENDMDL
MODEL 3
REMARK VINA RESULT:      -7.0      1.215      1.870
REMARK  Name = *****
REMARK                            x       y       z     vdW  Elec       q    Type
REMARK                         _______ _______ _______ _____ _____    ______ ____
ROOT
ATOM      1  N   LIG    1       26.283 -21.765   6.960  0.00  0.00    -0.298 N 
ATOM      2  C   LIG    1       27.518 -21.064   6.806  0.00  0.00    +0.049 A 
ATOM      3  C   LIG    1       27.652 -19.982   5.910  0.00  0.00    +0.034 A 
ATOM      4  C   LIG    1       28.872 -19.288   5.781  0.00  0.00    +0.018 A 
ATOM      5  C   LIG    1       29.992 -19.642   6.526  0.00  0.00    +0.018 A 
ATOM      6  C   LIG    1       29.895 -20.704   7.417  0.00  0.00    +0.040 A 
ATOM      7  S   LIG    1       26.347 -19.384   4.871  0.00  0.00    -0.086 S 
ATOM      8  C   LIG    1       24.973 -20.396   5.353  0.00  0.00    +0.034 A 
ATOM      9  C   LIG    1       23.752 -20.071   4.723  0.00  0.00    +0.017 A 
ATOM     10  C   LIG    1       22.590 -20.780   4.989  0.00  0.00    +0.001 A 
ATOM     11  C   LIG    1       22.645 -21.836   5.882  0.00  0.00    +0.002 A 
ATOM     12  C   LIG    1       23.857 -22.163   6.507  0.00  0.00    +0.024 A 
ATOM     13  C   LIG    1       28.678 -21.391   7.545  0.00  0.00    +0.041 A 
ATOM     14  C   LIG    1       25.060 -21.455   6.285  0.00  0.00    +0.048 A 
ENDROOT
BRANCH   6  15
ATOM     15  S   LIG    1       31.316 -21.142   8.445  0.00  0.00    +0.051 S 
ATOM     16  C   LIG    1       30.429 -22.125   9.681  0.00  0.00    +0.127 C 
ATOM     17  O   LIG    1       31.722 -19.864   9.125  0.00  0.00    -0.252 OA
ENDBRANCH   6  15
BRANCH   1  18
ATOM     18  C   LIG    1       26.262 -22.901   7.922  0.00  0.00    +0.112 C 
BRANCH  18  19
ATOM     19  C   LIG    1       25.370 -24.047   7.412  0.00  0.00    +0.038 C 
BRANCH  19  22
ATOM     20  C   LIG    1       27.484 -26.773   5.869  0.00  0.00    +0.105 C 
ATOM     21  N   LIG    1       26.454 -26.185   6.726  0.00  0.00    -0.302 NA
ATOM     22  C   LIG    1       26.036 -24.846   6.265  0.00  0.00    +0.058 C 
ATOM     23  C   LIG    1       25.129 -24.916   5.017  0.00  0.00    +0.019 C 
ATOM     24  C   LIG    1       23.940 -25.854   5.208  0.00  0.00    +0.003 C 
ATOM     25  C   LIG    1       24.394 -27.219   5.711  0.00  0.00    +0.015 C 
ATOM     26  C   LIG    1       25.319 -27.097   6.921  0.00  0.00    +0.084 C 
ENDBRANCH  19  22
ENDBRANCH  18  19
ENDBRANCH   1  18
TORSDOF 4
ENDMDL
MODEL 4
REMARK VINA RESULT:      -6.0      6.884     10.654
REMARK  Name = *****
REMARK                            x       y       z     vdW  Elec       q    Type
REMARK                         _______ _______ _______ _____ _____    ______ ____
ROOT
ATOM      1  N   LIG    1       25.824 -29.925   9.985  0.00  0.00    -0.298 N 
ATOM      2  C   LIG    1       25.401 -29.495   8.690  0.00  0.00    +0.049 A 
ATOM      3  C   LIG    1       24.427 -30.203   7.954  0.00  0.00    +0.034 A 
ATOM      4  C   LIG    1       24.006 -29.758   6.684  0.00  0.00    +0.018 A 
ATOM      5  C   LIG    1       24.536 -28.610   6.105  0.00  0.00    +0.018 A 
ATOM      6  C   LIG    1       25.498 -27.890   6.802  0.00  0.00    +0.040 A 
ATOM      7  S   LIG    1       23.640 -31.688   8.516  0.00  0.00    -0.086 S 
ATOM      8  C   LIG    1       24.318 -31.895  10.142  0.00  0.00    +0.034 A 
ATOM      9  C   LIG    1       23.790 -32.985  10.866  0.00  0.00    +0.017 A 
ATOM     10  C   LIG    1       24.228 -33.282  12.148  0.00  0.00    +0.001 A 
ATOM     11  C   LIG    1       25.216 -32.493  12.712  0.00  0.00    +0.002 A 
ATOM     12  C   LIG    1       25.745 -31.412  11.994  0.00  0.00    +0.024 A 
ATOM     13  C   LIG    1       25.912 -28.334   8.067  0.00  0.00    +0.041 A 
ATOM     14  C   LIG    1       25.312 -31.058  10.695  0.00  0.00    +0.048 A 
ENDROOT
BRANCH   6  15
ATOM     15  S   LIG    1       26.153 -26.358   6.100  0.00  0.00    +0.051 S 
ATOM     16  C   LIG    1       24.624 -25.771   5.328  0.00  0.00    +0.127 C 
ATOM     17  O   LIG    1       27.059 -26.792   4.981  0.00  0.00    -0.252 OA
ENDBRANCH   6  15
BRANCH   1  18
ATOM     18  C   LIG    1       26.870 -29.111  10.663  0.00  0.00    +0.112 C 
BRANCH  18  19
ATOM     19  C   LIG    1       26.265 -27.849  11.305  0.00  0.00    +0.038 C 
BRANCH  19  22
ATOM     20  C   LIG    1       27.463 -26.891  14.760  0.00  0.00    +0.105 C 
ATOM     21  N   LIG    1       26.966 -26.689  13.398  0.00  0.00    -0.302 NA
ATOM     22  C   LIG    1       26.313 -27.896  12.853  0.00  0.00    +0.058 C 
ATOM     23  C   LIG    1       24.911 -28.124  13.459  0.00  0.00    +0.019 C 
ATOM     24  C   LIG    1       24.018 -26.891  13.354  0.00  0.00    +0.003 C 
ATOM     25  C   LIG    1       24.724 -25.654  13.897  0.00  0.00    +0.015 C 
ATOM     26  C   LIG    1       26.120 -25.492  13.297  0.00  0.00    +0.084 C 
ENDBRANCH  19  22
ENDBRANCH  18  19
ENDBRANCH   1  18
TORSDOF 4
ENDMDL
MODEL 5
REMARK VINA RESULT:      -5.8      8.532     11.599
REMARK  Name = *****
REMARK                            x       y       z     vdW  Elec       q    Type
REMARK                         _______ _______ _______ _____ _____    ______ ____
ROOT
ATOM      1  N   LIG    1       23.798 -29.787  11.325  0.00  0.00    -0.298 N 
ATOM      2  C   LIG    1       22.454 -29.906  11.796  0.00  0.00    +0.049 A 
ATOM      3  C   LIG    1       21.966 -29.114  12.857  0.00  0.00    +0.034 A 
ATOM      4  C   LIG    1       20.633 -29.229  13.300  0.00  0.00    +0.018 A 
ATOM      5  C   LIG    1       19.748 -30.130  12.715  0.00  0.00    +0.018 A 
ATOM      6  C   LIG    1       20.197 -30.926  11.670  0.00  0.00    +0.040 A 
ATOM      7  S   LIG    1       22.936 -27.916  13.732  0.00  0.00    -0.086 S 
ATOM      8  C   LIG    1       24.484 -27.966  12.870  0.00  0.00    +0.034 A 
ATOM      9  C   LIG    1       25.440 -27.030  13.320  0.00  0.00    +0.017 A 
ATOM     10  C   LIG    1       26.703 -26.956  12.752  0.00  0.00    +0.001 A 
ATOM     11  C   LIG    1       27.025 -27.833  11.731  0.00  0.00    +0.002 A 
ATOM     12  C   LIG    1       26.079 -28.766  11.284  0.00  0.00    +0.024 A 
ATOM     13  C   LIG    1       21.524 -30.806  11.229  0.00  0.00    +0.041 A 
ATOM     14  C   LIG    1       24.774 -28.863  11.817  0.00  0.00    +0.048 A 
ENDROOT
BRANCH   6  15
ATOM     15  S   LIG    1       19.049 -32.057  10.850  0.00  0.00    +0.051 S 
ATOM     16  C   LIG    1       20.269 -32.982   9.881  0.00  0.00    +0.127 C 
ATOM     17  O   LIG    1       18.284 -31.206   9.875  0.00  0.00    -0.252 OA
ENDBRANCH   6  15
BRANCH   1  18
ATOM     18  C   LIG    1       24.209 -30.685  10.212  0.00  0.00    +0.112 C 
BRANCH  18  19
ATOM     19  C   LIG    1       23.874 -30.066   8.843  0.00  0.00    +0.038 C 
BRANCH  19  22
ATOM     20  C   LIG    1       25.900 -31.214   5.866  0.00  0.00    +0.105 C 
ATOM     21  N   LIG    1       24.725 -30.740   6.597  0.00  0.00    -0.302 NA
ATOM     22  C   LIG    1       25.083 -30.089   7.874  0.00  0.00    +0.058 C 
ATOM     23  C   LIG    1       25.671 -28.677   7.664  0.00  0.00    +0.019 C 
ATOM     24  C   LIG    1       24.779 -27.791   6.800  0.00  0.00    +0.003 C 
ATOM     25  C   LIG    1       24.400 -28.495   5.501  0.00  0.00    +0.015 C 
ATOM     26  C   LIG    1       23.859 -29.901   5.758  0.00  0.00    +0.084 C 
ENDBRANCH  19  22
ENDBRANCH  18  19
ENDBRANCH   1  18
TORSDOF 4
ENDMDL
MODEL 6
REMARK VINA RESULT:      -5.8      9.004     11.662
REMARK  Name = *****
REMARK                            x       y       z     vdW  Elec       q    Type
REMARK                         _______ _______ _______ _____ _____    ______ ____
ROOT
ATOM      1  N   LIG    1       23.749 -29.375  12.094  0.00  0.00    -0.298 N 
ATOM      2  C   LIG    1       22.404 -29.353  12.574  0.00  0.00    +0.049 A 
ATOM      3  C   LIG    1       21.936 -28.328  13.424  0.00  0.00    +0.034 A 
ATOM      4  C   LIG    1       20.601 -28.308  13.877  0.00  0.00    +0.018 A 
ATOM      5  C   LIG    1       19.695 -29.297  13.509  0.00  0.00    +0.018 A 
ATOM      6  C   LIG    1       20.124 -30.322  12.675  0.00  0.00    +0.040 A 
ATOM      7  S   LIG    1       22.936 -26.985  14.007  0.00  0.00    -0.086 S 
ATOM      8  C   LIG    1       24.481 -27.267  13.185  0.00  0.00    +0.034 A 
ATOM      9  C   LIG    1       25.459 -26.276  13.414  0.00  0.00    +0.017 A 
ATOM     10  C   LIG    1       26.723 -26.362  12.849  0.00  0.00    +0.001 A 
ATOM     11  C   LIG    1       27.022 -27.456  12.056  0.00  0.00    +0.002 A 
ATOM     12  C   LIG    1       26.055 -28.444  11.830  0.00  0.00    +0.024 A 
ATOM     13  C   LIG    1       21.452 -30.337  12.224  0.00  0.00    +0.041 A 
ATOM     14  C   LIG    1       24.748 -28.387  12.366  0.00  0.00    +0.048 A 
ENDROOT
BRANCH   6  15
ATOM     15  S   LIG    1       18.948 -31.583  12.130  0.00  0.00    +0.051 S 
ATOM     16  C   LIG    1       19.141 -31.340  10.346  0.00  0.00    +0.127 C 
ATOM     17  O   LIG    1       17.592 -31.043  12.492  0.00  0.00    -0.252 OA
ENDBRANCH   6  15
BRANCH   1  18
ATOM     18  C   LIG    1       24.138 -30.514  11.217  0.00  0.00    +0.112 C 
BRANCH  18  19
ATOM     19  C   LIG    1       23.878 -30.190   9.735  0.00  0.00    +0.038 C 
BRANCH  19  22
ATOM     20  C   LIG    1       26.356 -31.966   7.501  0.00  0.00    +0.105 C 
ATOM     21  N   LIG    1       25.048 -31.503   7.967  0.00  0.00    -0.302 NA
ATOM     22  C   LIG    1       25.154 -30.337   8.868  0.00  0.00    +0.058 C 
ATOM     23  C   LIG    1       25.476 -29.036   8.102  0.00  0.00    +0.019 C 
ATOM     24  C   LIG    1       24.513 -28.782   6.945  0.00  0.00    +0.003 C 
ATOM     25  C   LIG    1       24.400 -30.008   6.046  0.00  0.00    +0.015 C 
ATOM     26  C   LIG    1       24.119 -31.276   6.852  0.00  0.00    +0.084 C 
ENDBRANCH  19  22
ENDBRANCH  18  19
ENDBRANCH   1  18
TORSDOF 4
ENDMDL
MODEL 7
REMARK VINA RESULT:      -5.7      8.093     10.926
REMARK  Name = *****
REMARK                            x       y       z     vdW  Elec       q    Type
REMARK                         _______ _______ _______ _____ _____    ______ ____
ROOT
ATOM      1  N   LIG    1       22.585 -30.473  11.413  0.00  0.00    -0.298 N 
ATOM      2  C   LIG    1       23.083 -29.363  12.161  0.00  0.00    +0.049 A 
ATOM      3  C   LIG    1       22.257 -28.628  13.038  0.00  0.00    +0.034 A 
ATOM      4  C   LIG    1       22.766 -27.545  13.784  0.00  0.00    +0.018 A 
ATOM      5  C   LIG    1       24.097 -27.155  13.683  0.00  0.00    +0.018 A 
ATOM      6  C   LIG    1       24.937 -27.857  12.827  0.00  0.00    +0.040 A 
ATOM      7  S   LIG    1       20.537 -28.964  13.300  0.00  0.00    -0.086 S 
ATOM      8  C   LIG    1       20.268 -30.408  12.306  0.00  0.00    +0.034 A 
ATOM      9  C   LIG    1       18.968 -30.950  12.394  0.00  0.00    +0.017 A 
ATOM     10  C   LIG    1       18.602 -32.073  11.667  0.00  0.00    +0.001 A 
ATOM     11  C   LIG    1       19.537 -32.657  10.830  0.00  0.00    +0.002 A 
ATOM     12  C   LIG    1       20.828 -32.119  10.738  0.00  0.00    +0.024 A 
ATOM     13  C   LIG    1       24.429 -28.936  12.089  0.00  0.00    +0.041 A 
ATOM     14  C   LIG    1       21.253 -30.991  11.477  0.00  0.00    +0.048 A 
ENDROOT
BRANCH   6  15
ATOM     15  S   LIG    1       26.687 -27.411  12.728  0.00  0.00    +0.051 S 
ATOM     16  C   LIG    1       26.503 -25.636  13.034  0.00  0.00    +0.127 C 
ATOM     17  O   LIG    1       27.052 -27.561  11.278  0.00  0.00    -0.252 OA
ENDBRANCH   6  15
BRANCH   1  18
ATOM     18  C   LIG    1       23.542 -31.165  10.506  0.00  0.00    +0.112 C 
BRANCH  18  19
ATOM     19  C   LIG    1       23.545 -30.526   9.105  0.00  0.00    +0.038 C 
BRANCH  19  22
ATOM     20  C   LIG    1       26.290 -31.918   6.912  0.00  0.00    +0.105 C 
ATOM     21  N   LIG    1       24.943 -31.469   7.269  0.00  0.00    -0.302 NA
ATOM     22  C   LIG    1       24.943 -30.570   8.440  0.00  0.00    +0.058 C 
ATOM     23  C   LIG    1       25.452 -29.155   8.089  0.00  0.00    +0.019 C 
ATOM     24  C   LIG    1       24.718 -28.546   6.898  0.00  0.00    +0.003 C 
ATOM     25  C   LIG    1       24.707 -29.503   5.712  0.00  0.00    +0.015 C 
ATOM     26  C   LIG    1       24.233 -30.899   6.117  0.00  0.00    +0.084 C 
ENDBRANCH  19  22
ENDBRANCH  18  19
ENDBRANCH   1  18
TORSDOF 4
ENDMDL
MODEL 8
REMARK VINA RESULT:      -5.7      8.507     10.064
REMARK  Name = *****
REMARK                            x       y       z     vdW  Elec       q    Type
REMARK                         _______ _______ _______ _____ _____    ______ ____
ROOT
ATOM      1  N   LIG    1       24.718 -29.003  13.072  0.00  0.00    -0.298 N 
ATOM      2  C   LIG    1       25.905 -28.451  13.644  0.00  0.00    +0.049 A 
ATOM      3  C   LIG    1       25.925 -27.157  14.206  0.00  0.00    +0.034 A 
ATOM      4  C   LIG    1       27.099 -26.630  14.784  0.00  0.00    +0.018 A 
ATOM      5  C   LIG    1       28.282 -27.361  14.819  0.00  0.00    +0.018 A 
ATOM      6  C   LIG    1       28.297 -28.638  14.273  0.00  0.00    +0.040 A 
ATOM      7  S   LIG    1       24.525 -26.070  14.253  0.00  0.00    -0.086 S 
ATOM      8  C   LIG    1       23.238 -27.067  13.550  0.00  0.00    +0.034 A 
ATOM      9  C   LIG    1       21.964 -26.460  13.539  0.00  0.00    +0.017 A 
ATOM     10  C   LIG    1       20.858 -27.110  13.011  0.00  0.00    +0.001 A 
ATOM     11  C   LIG    1       21.025 -28.375  12.473  0.00  0.00    +0.002 A 
ATOM     12  C   LIG    1       22.290 -28.978  12.479  0.00  0.00    +0.024 A 
ATOM     13  C   LIG    1       27.127 -29.160  13.702  0.00  0.00    +0.041 A 
ATOM     14  C   LIG    1       23.439 -28.364  13.027  0.00  0.00    +0.048 A 
ENDROOT
BRANCH   6  15
ATOM     15  S   LIG    1       29.804 -29.632  14.365  0.00  0.00    +0.051 S 
ATOM     16  C   LIG    1       30.844 -28.419  15.217  0.00  0.00    +0.127 C 
ATOM     17  O   LIG    1       30.311 -29.715  12.952  0.00  0.00    -0.252 OA
ENDBRANCH   6  15
BRANCH   1  18
ATOM     18  C   LIG    1       24.818 -30.371  12.493  0.00  0.00    +0.112 C 
BRANCH  18  19
ATOM     19  C   LIG    1       24.474 -30.368  10.992  0.00  0.00    +0.038 C 
BRANCH  19  22
ATOM     20  C   LIG    1       26.262 -31.601   7.899  0.00  0.00    +0.105 C 
ATOM     21  N   LIG    1       25.309 -30.817   8.686  0.00  0.00    -0.302 NA
ATOM     22  C   LIG    1       25.695 -30.728  10.109  0.00  0.00    +0.058 C 
ATOM     23  C   LIG    1       26.870 -29.752  10.335  0.00  0.00    +0.019 C 
ATOM     24  C   LIG    1       26.618 -28.377   9.722  0.00  0.00    +0.003 C 
ATOM     25  C   LIG    1       26.194 -28.497   8.263  0.00  0.00    +0.015 C 
ATOM     26  C   LIG    1       25.056 -29.501   8.085  0.00  0.00    +0.084 C 
ENDBRANCH  19  22
ENDBRANCH  18  19
ENDBRANCH   1  18
TORSDOF 4
ENDMDL
MODEL 9
REMARK VINA RESULT:      -5.6      6.807      9.926
REMARK  Name = *****
REMARK                            x       y       z     vdW  Elec       q    Type
REMARK                         _______ _______ _______ _____ _____    ______ ____
ROOT
ATOM      1  N   LIG    1       25.847 -28.749   7.889  0.00  0.00    -0.298 N 
ATOM      2  C   LIG    1       25.356 -30.076   7.692  0.00  0.00    +0.049 A 
ATOM      3  C   LIG    1       24.454 -30.387   6.653  0.00  0.00    +0.034 A 
ATOM      4  C   LIG    1       23.991 -31.705   6.459  0.00  0.00    +0.018 A 
ATOM      5  C   LIG    1       24.400 -32.747   7.283  0.00  0.00    +0.018 A 
ATOM      6  C   LIG    1       25.287 -32.475   8.317  0.00  0.00    +0.040 A 
ATOM      7  S   LIG    1       23.812 -29.200   5.504  0.00  0.00    -0.086 S 
ATOM      8  C   LIG    1       24.658 -27.713   5.970  0.00  0.00    +0.034 A 
ATOM      9  C   LIG    1       24.387 -26.599   5.146  0.00  0.00    +0.017 A 
ATOM     10  C   LIG    1       24.966 -25.362   5.390  0.00  0.00    +0.001 A 
ATOM     11  C   LIG    1       25.814 -25.228   6.476  0.00  0.00    +0.002 A 
ATOM     12  C   LIG    1       26.082 -26.331   7.297  0.00  0.00    +0.024 A 
ATOM     13  C   LIG    1       25.748 -31.164   8.506  0.00  0.00    +0.041 A 
ATOM     14  C   LIG    1       25.534 -27.615   7.074  0.00  0.00    +0.048 A 
ENDROOT
BRANCH   6  15
ATOM     15  S   LIG    1       25.885 -33.825   9.361  0.00  0.00    +0.051 S 
ATOM     16  C   LIG    1       25.223 -33.224  10.937  0.00  0.00    +0.127 C 
ATOM     17  O   LIG    1       27.376 -33.644   9.427  0.00  0.00    -0.252 OA
ENDBRANCH   6  15
BRANCH   1  18
ATOM     18  C   LIG    1       26.782 -28.533   9.027  0.00  0.00    +0.112 C 
BRANCH  18  19
ATOM     19  C   LIG    1       26.034 -28.539  10.372  0.00  0.00    +0.038 C 
BRANCH  19  22
ATOM     20  C   LIG    1       26.881 -26.399  13.371  0.00  0.00    +0.105 C 
ATOM     21  N   LIG    1       26.089 -27.306  12.540  0.00  0.00    -0.302 NA
ATOM     22  C   LIG    1       26.911 -28.011  11.536  0.00  0.00    +0.058 C 
ATOM     23  C   LIG    1       27.761 -29.137  12.164  0.00  0.00    +0.019 C 
ATOM     24  C   LIG    1       26.928 -30.101  13.005  0.00  0.00    +0.003 C 
ATOM     25  C   LIG    1       26.068 -29.349  14.013  0.00  0.00    +0.015 C 
ATOM     26  C   LIG    1       25.276 -28.222  13.351  0.00  0.00    +0.084 C 
ENDBRANCH  19  22
ENDBRANCH  18  19
ENDBRANCH   1  18
TORSDOF 4
ENDMDL
