MODEL 1
REMARK VINA RESULT:      -4.1      0.000      0.000
REMARK  Name = *****
REMARK                            x       y       z     vdW  Elec       q    Type
REMARK                         _______ _______ _______ _____ _____    ______ ____
ROOT
ATOM      1  C   UNK    1       24.374 -12.946   2.475  0.00  0.00    +0.170 C 
ENDROOT
BRANCH   1   2
ATOM      2  N   UNK    1       23.778 -11.583   2.291  0.00  0.00    -0.318 NA
ATOM      3  H   UNK    1       22.861 -11.682   1.840  0.00  0.00    +0.119 HD
ATOM      4  H   UNK    1       23.542 -11.224   3.223  0.00  0.00    +0.119 HD
ENDBRANCH   1   2
BRANCH   1   5
ATOM      5  C   UNK    1       24.100 -13.401   3.916  0.00  0.00    +0.323 C 
ATOM      6  O   UNK    1       23.633 -14.497   4.230  0.00  0.00    -0.249 OA
BRANCH   5   7
ATOM      7  O   UNK    1       24.427 -12.450   4.825  0.00  0.00    -0.479 OA
ATOM      8  H   UNK    1       25.053 -11.834   4.370  0.00  0.00    +0.295 HD
ENDBRANCH   5   7
ENDBRANCH   1   5
BRANCH   1   9
ATOM      9  C   UNK    1       25.892 -12.966   2.215  0.00  0.00    +0.099 C 
BRANCH   9  10
ATOM     10  S   UNK    1       26.825 -14.390   2.946  0.00  0.00    -0.147 S 
BRANCH  10  11
ATOM     11  C   UNK    1       28.269 -13.537   3.688  0.00  0.00    +0.189 C 
BRANCH  11  12
ATOM     12  C   UNK    1       27.997 -12.987   5.082  0.00  0.00    +0.315 C 
ATOM     13  O   UNK    1       27.058 -13.373   5.767  0.00  0.00    -0.250 OA
BRANCH  12  14
ATOM     14  O   UNK    1       28.850 -12.038   5.528  0.00  0.00    -0.480 OA
ATOM     15  H   UNK    1       29.468 -11.745   4.825  0.00  0.00    +0.295 HD
ENDBRANCH  12  14
ENDBRANCH  11  12
ENDBRANCH  10  11
ENDBRANCH   9  10
ENDBRANCH   1   9
TORSDOF 8
ENDMDL
MODEL 2
REMARK VINA RESULT:      -4.0      7.256      7.741
REMARK  Name = *****
REMARK                            x       y       z     vdW  Elec       q    Type
REMARK                         _______ _______ _______ _____ _____    ______ ____
ROOT
ATOM      1  C   UNK    1       24.046 -20.633   4.157  0.00  0.00    +0.170 C 
ENDROOT
BRANCH   1   2
ATOM      2  N   UNK    1       24.825 -19.386   3.868  0.00  0.00    -0.318 NA
ATOM      3  H   UNK    1       25.793 -19.522   4.184  0.00  0.00    +0.119 HD
ATOM      4  H   UNK    1       24.919 -19.313   2.850  0.00  0.00    +0.119 HD
ENDBRANCH   1   2
BRANCH   1   5
ATOM      5  C   UNK    1       22.691 -20.226   4.757  0.00  0.00    +0.323 C 
ATOM      6  O   UNK    1       22.333 -19.065   4.958  0.00  0.00    -0.249 OA
BRANCH   5   7
ATOM      7  O   UNK    1       21.918 -21.300   5.051  0.00  0.00    -0.479 OA
ATOM      8  H   UNK    1       21.915 -21.378   6.038  0.00  0.00    +0.295 HD
ENDBRANCH   5   7
ENDBRANCH   1   5
BRANCH   1   9
ATOM      9  C   UNK    1       24.774 -21.572   5.138  0.00  0.00    +0.099 C 
BRANCH   9  10
ATOM     10  S   UNK    1       25.221 -20.845   6.782  0.00  0.00    -0.147 S 
BRANCH  10  11
ATOM     11  C   UNK    1       27.004 -21.262   6.891  0.00  0.00    +0.189 C 
BRANCH  11  12
ATOM     12  C   UNK    1       27.911 -20.214   6.257  0.00  0.00    +0.315 C 
ATOM     13  O   UNK    1       28.790 -19.641   6.887  0.00  0.00    -0.250 OA
BRANCH  12  14
ATOM     14  O   UNK    1       27.689 -19.942   4.951  0.00  0.00    -0.480 OA
ATOM     15  H   UNK    1       27.610 -20.761   4.418  0.00  0.00    +0.295 HD
ENDBRANCH  12  14
ENDBRANCH  11  12
ENDBRANCH  10  11
ENDBRANCH   9  10
ENDBRANCH   1   9
TORSDOF 8
ENDMDL
MODEL 3
REMARK VINA RESULT:      -3.9      7.127      8.453
REMARK  Name = *****
REMARK                            x       y       z     vdW  Elec       q    Type
REMARK                         _______ _______ _______ _____ _____    ______ ____
ROOT
ATOM      1  C   UNK    1       26.031 -20.203   5.560  0.00  0.00    +0.170 C 
ENDROOT
BRANCH   1   2
ATOM      2  N   UNK    1       26.070 -20.087   4.066  0.00  0.00    -0.318 NA
ATOM      3  H   UNK    1       25.378 -20.733   3.667  0.00  0.00    +0.119 HD
ATOM      4  H   UNK    1       25.696 -19.164   3.821  0.00  0.00    +0.119 HD
ENDBRANCH   1   2
BRANCH   1   5
ATOM      5  C   UNK    1       27.455 -20.494   6.058  0.00  0.00    +0.323 C 
ATOM      6  O   UNK    1       27.726 -21.154   7.062  0.00  0.00    -0.249 OA
BRANCH   5   7
ATOM      7  O   UNK    1       28.400 -19.933   5.265  0.00  0.00    -0.479 OA
ATOM      8  H   UNK    1       27.995 -19.112   4.888  0.00  0.00    +0.295 HD
ENDBRANCH   5   7
ENDBRANCH   1   5
BRANCH   1   9
ATOM      9  C   UNK    1       25.086 -21.320   6.042  0.00  0.00    +0.099 C 
BRANCH   9  10
ATOM     10  S   UNK    1       23.437 -20.772   6.683  0.00  0.00    -0.147 S 
BRANCH  10  11
ATOM     11  C   UNK    1       22.498 -20.542   5.124  0.00  0.00    +0.189 C 
BRANCH  11  12
ATOM     12  C   UNK    1       22.663 -19.154   4.516  0.00  0.00    +0.315 C 
ATOM     13  O   UNK    1       22.057 -18.179   4.938  0.00  0.00    -0.250 OA
BRANCH  12  14
ATOM     14  O   UNK    1       23.518 -19.056   3.474  0.00  0.00    -0.480 OA
ATOM     15  H   UNK    1       23.277 -18.320   2.874  0.00  0.00    +0.295 HD
ENDBRANCH  12  14
ENDBRANCH  11  12
ENDBRANCH  10  11
ENDBRANCH   9  10
ENDBRANCH   1   9
TORSDOF 8
ENDMDL
MODEL 4
REMARK VINA RESULT:      -3.9      7.201      8.788
REMARK  Name = *****
REMARK                            x       y       z     vdW  Elec       q    Type
REMARK                         _______ _______ _______ _____ _____    ______ ____
ROOT
ATOM      1  C   UNK    1       28.399 -20.293   5.890  0.00  0.00    +0.170 C 
ENDROOT
BRANCH   1   2
ATOM      2  N   UNK    1       29.298 -21.160   6.718  0.00  0.00    -0.318 NA
ATOM      3  H   UNK    1       29.849 -21.758   6.091  0.00  0.00    +0.119 HD
ATOM      4  H   UNK    1       30.006 -20.551   7.142  0.00  0.00    +0.119 HD
ENDBRANCH   1   2
BRANCH   1   5
ATOM      5  C   UNK    1       28.939 -18.856   5.937  0.00  0.00    +0.323 C 
ATOM      6  O   UNK    1       29.474 -18.339   6.918  0.00  0.00    -0.249 OA
BRANCH   5   7
ATOM      7  O   UNK    1       28.757 -18.201   4.764  0.00  0.00    -0.479 OA
ATOM      8  H   UNK    1       27.929 -18.568   4.367  0.00  0.00    +0.295 HD
ENDBRANCH   5   7
ENDBRANCH   1   5
BRANCH   1   9
ATOM      9  C   UNK    1       26.941 -20.305   6.389  0.00  0.00    +0.099 C 
BRANCH   9  10
ATOM     10  S   UNK    1       25.635 -20.464   5.086  0.00  0.00    -0.147 S 
BRANCH  10  11
ATOM     11  C   UNK    1       24.146 -20.803   6.103  0.00  0.00    +0.189 C 
BRANCH  11  12
ATOM     12  C   UNK    1       22.846 -20.375   5.434  0.00  0.00    +0.315 C 
ATOM     13  O   UNK    1       22.573 -19.200   5.224  0.00  0.00    -0.250 OA
BRANCH  12  14
ATOM     14  O   UNK    1       21.998 -21.368   5.085  0.00  0.00    -0.480 OA
ATOM     15  H   UNK    1       21.246 -21.440   5.710  0.00  0.00    +0.295 HD
ENDBRANCH  12  14
ENDBRANCH  11  12
ENDBRANCH  10  11
ENDBRANCH   9  10
ENDBRANCH   1   9
TORSDOF 8
ENDMDL
MODEL 5
REMARK VINA RESULT:      -3.8      1.932      2.241
REMARK  Name = *****
REMARK                            x       y       z     vdW  Elec       q    Type
REMARK                         _______ _______ _______ _____ _____    ______ ____
ROOT
ATOM      1  C   UNK    1       24.484 -14.093   4.139  0.00  0.00    +0.170 C 
ENDROOT
BRANCH   1   2
ATOM      2  N   UNK    1       23.274 -14.911   4.476  0.00  0.00    -0.318 NA
ATOM      3  H   UNK    1       22.824 -15.210   3.603  0.00  0.00    +0.119 HD
ATOM      4  H   UNK    1       23.605 -15.793   4.883  0.00  0.00    +0.119 HD
ENDBRANCH   1   2
BRANCH   1   5
ATOM      5  C   UNK    1       24.014 -12.784   3.487  0.00  0.00    +0.323 C 
ATOM      6  O   UNK    1       23.730 -11.756   4.103  0.00  0.00    -0.249 OA
BRANCH   5   7
ATOM      7  O   UNK    1       23.937 -12.882   2.138  0.00  0.00    -0.479 OA
ATOM      8  H   UNK    1       23.792 -11.963   1.800  0.00  0.00    +0.295 HD
ENDBRANCH   5   7
ENDBRANCH   1   5
BRANCH   1   9
ATOM      9  C   UNK    1       25.442 -14.823   3.179  0.00  0.00    +0.099 C 
BRANCH   9  10
ATOM     10  S   UNK    1       27.207 -14.948   3.727  0.00  0.00    -0.147 S 
BRANCH  10  11
ATOM     11  C   UNK    1       27.388 -13.418   4.722  0.00  0.00    +0.189 C 
BRANCH  11  12
ATOM     12  C   UNK    1       28.730 -12.723   4.523  0.00  0.00    +0.315 C 
ATOM     13  O   UNK    1       29.475 -12.991   3.589  0.00  0.00    -0.250 OA
BRANCH  12  14
ATOM     14  O   UNK    1       29.061 -11.789   5.443  0.00  0.00    -0.480 OA
ATOM     15  H   UNK    1       29.194 -12.184   6.330  0.00  0.00    +0.295 HD
ENDBRANCH  12  14
ENDBRANCH  11  12
ENDBRANCH  10  11
ENDBRANCH   9  10
ENDBRANCH   1   9
TORSDOF 8
ENDMDL
MODEL 6
REMARK VINA RESULT:      -3.8      7.224      7.750
REMARK  Name = *****
REMARK                            x       y       z     vdW  Elec       q    Type
REMARK                         _______ _______ _______ _____ _____    ______ ____
ROOT
ATOM      1  C   UNK    1       22.713 -20.649   5.431  0.00  0.00    +0.170 C 
ENDROOT
BRANCH   1   2
ATOM      2  N   UNK    1       21.675 -21.560   4.849  0.00  0.00    -0.318 NA
ATOM      3  H   UNK    1       20.765 -21.335   5.269  0.00  0.00    +0.119 HD
ATOM      4  H   UNK    1       21.550 -21.293   3.866  0.00  0.00    +0.119 HD
ENDBRANCH   1   2
BRANCH   1   5
ATOM      5  C   UNK    1       22.852 -19.427   4.511  0.00  0.00    +0.323 C 
ATOM      6  O   UNK    1       22.018 -18.527   4.408  0.00  0.00    -0.249 OA
BRANCH   5   7
ATOM      7  O   UNK    1       24.010 -19.445   3.807  0.00  0.00    -0.479 OA
ATOM      8  H   UNK    1       24.731 -19.234   4.451  0.00  0.00    +0.295 HD
ENDBRANCH   5   7
ENDBRANCH   1   5
BRANCH   1   9
ATOM      9  C   UNK    1       24.085 -21.334   5.577  0.00  0.00    +0.099 C 
BRANCH   9  10
ATOM     10  S   UNK    1       25.087 -20.844   7.056  0.00  0.00    -0.147 S 
BRANCH  10  11
ATOM     11  C   UNK    1       26.785 -21.253   6.496  0.00  0.00    +0.189 C 
BRANCH  11  12
ATOM     12  C   UNK    1       27.462 -20.119   5.737  0.00  0.00    +0.315 C 
ATOM     13  O   UNK    1       28.465 -19.556   6.157  0.00  0.00    -0.250 OA
BRANCH  12  14
ATOM     14  O   UNK    1       26.891 -19.758   4.566  0.00  0.00    -0.480 OA
ATOM     15  H   UNK    1       26.481 -18.869   4.620  0.00  0.00    +0.295 HD
ENDBRANCH  12  14
ENDBRANCH  11  12
ENDBRANCH  10  11
ENDBRANCH   9  10
ENDBRANCH   1   9
TORSDOF 8
ENDMDL
MODEL 7
REMARK VINA RESULT:      -3.6      1.829      4.284
REMARK  Name = *****
REMARK                            x       y       z     vdW  Elec       q    Type
REMARK                         _______ _______ _______ _____ _____    ______ ____
ROOT
ATOM      1  C   UNK    1       27.598 -13.921   4.744  0.00  0.00    +0.170 C 
ENDROOT
BRANCH   1   2
ATOM      2  N   UNK    1       26.682 -13.212   5.696  0.00  0.00    -0.318 NA
ATOM      3  H   UNK    1       25.737 -13.601   5.595  0.00  0.00    +0.119 HD
ATOM      4  H   UNK    1       26.950 -13.494   6.645  0.00  0.00    +0.119 HD
ENDBRANCH   1   2
BRANCH   1   5
ATOM      5  C   UNK    1       28.745 -12.966   4.379  0.00  0.00    +0.323 C 
ATOM      6  O   UNK    1       29.474 -13.090   3.394  0.00  0.00    -0.249 OA
BRANCH   5   7
ATOM      7  O   UNK    1       28.876 -11.957   5.274  0.00  0.00    -0.479 OA
ATOM      8  H   UNK    1       29.496 -11.303   4.866  0.00  0.00    +0.295 HD
ENDBRANCH   5   7
ENDBRANCH   1   5
BRANCH   1   9
ATOM      9  C   UNK    1       26.880 -14.369   3.457  0.00  0.00    +0.099 C 
BRANCH   9  10
ATOM     10  S   UNK    1       26.185 -13.018   2.398  0.00  0.00    -0.147 S 
BRANCH  10  11
ATOM     11  C   UNK    1       24.387 -13.362   2.502  0.00  0.00    +0.189 C 
BRANCH  11  12
ATOM     12  C   UNK    1       23.890 -13.561   3.929  0.00  0.00    +0.315 C 
ATOM     13  O   UNK    1       23.478 -14.641   4.334  0.00  0.00    -0.250 OA
BRANCH  12  14
ATOM     14  O   UNK    1       23.924 -12.474   4.732  0.00  0.00    -0.480 OA
ATOM     15  H   UNK    1       23.369 -12.595   5.531  0.00  0.00    +0.295 HD
ENDBRANCH  12  14
ENDBRANCH  11  12
ENDBRANCH  10  11
ENDBRANCH   9  10
ENDBRANCH   1   9
TORSDOF 8
ENDMDL
MODEL 8
REMARK VINA RESULT:      -3.4      7.196      8.456
REMARK  Name = *****
REMARK                            x       y       z     vdW  Elec       q    Type
REMARK                         _______ _______ _______ _____ _____    ______ ____
ROOT
ATOM      1  C   UNK    1       26.665 -20.453   5.197  0.00  0.00    +0.170 C 
ENDROOT
BRANCH   1   2
ATOM      2  N   UNK    1       27.979 -19.736   5.132  0.00  0.00    -0.318 NA
ATOM      3  H   UNK    1       27.803 -18.737   4.967  0.00  0.00    +0.119 HD
ATOM      4  H   UNK    1       28.382 -19.749   6.075  0.00  0.00    +0.119 HD
ENDBRANCH   1   2
BRANCH   1   5
ATOM      5  C   UNK    1       25.751 -19.886   4.100  0.00  0.00    +0.323 C 
ATOM      6  O   UNK    1       24.833 -20.505   3.562  0.00  0.00    -0.249 OA
BRANCH   5   7
ATOM      7  O   UNK    1       26.071 -18.609   3.777  0.00  0.00    -0.479 OA
ATOM      8  H   UNK    1       26.707 -18.297   4.468  0.00  0.00    +0.295 HD
ENDBRANCH   5   7
ENDBRANCH   1   5
BRANCH   1   9
ATOM      9  C   UNK    1       25.974 -20.297   6.566  0.00  0.00    +0.099 C 
BRANCH   9  10
ATOM     10  S   UNK    1       24.696 -21.571   6.983  0.00  0.00    -0.147 S 
BRANCH  10  11
ATOM     11  C   UNK    1       23.175 -20.549   7.059  0.00  0.00    +0.189 C 
BRANCH  11  12
ATOM     12  C   UNK    1       22.561 -20.275   5.692  0.00  0.00    +0.315 C 
ATOM     13  O   UNK    1       22.334 -19.140   5.292  0.00  0.00    -0.250 OA
BRANCH  12  14
ATOM     14  O   UNK    1       22.271 -21.359   4.938  0.00  0.00    -0.480 OA
ATOM     15  H   UNK    1       23.060 -21.925   4.797  0.00  0.00    +0.295 HD
ENDBRANCH  12  14
ENDBRANCH  11  12
ENDBRANCH  10  11
ENDBRANCH   9  10
ENDBRANCH   1   9
TORSDOF 8
ENDMDL
MODEL 9
REMARK VINA RESULT:      -3.4      1.929      3.855
REMARK  Name = *****
REMARK                            x       y       z     vdW  Elec       q    Type
REMARK                         _______ _______ _______ _____ _____    ______ ____
ROOT
ATOM      1  C   UNK    1       27.040 -14.088   2.940  0.00  0.00    +0.170 C 
ENDROOT
BRANCH   1   2
ATOM      2  N   UNK    1       26.090 -15.197   3.276  0.00  0.00    -0.318 NA
ATOM      3  H   UNK    1       25.574 -15.458   2.427  0.00  0.00    +0.119 HD
ATOM      4  H   UNK    1       26.652 -16.033   3.473  0.00  0.00    +0.119 HD
ENDBRANCH   1   2
BRANCH   1   5
ATOM      5  C   UNK    1       27.639 -13.553   4.249  0.00  0.00    +0.323 C 
ATOM      6  O   UNK    1       27.110 -13.655   5.357  0.00  0.00    -0.249 OA
BRANCH   5   7
ATOM      7  O   UNK    1       28.832 -12.941   4.055  0.00  0.00    -0.479 OA
ATOM      8  H   UNK    1       29.475 -13.654   3.816  0.00  0.00    +0.295 HD
ENDBRANCH   5   7
ENDBRANCH   1   5
BRANCH   1   9
ATOM      9  C   UNK    1       26.356 -12.932   2.185  0.00  0.00    +0.099 C 
BRANCH   9  10
ATOM     10  S   UNK    1       24.524 -13.081   1.955  0.00  0.00    -0.147 S 
BRANCH  10  11
ATOM     11  C   UNK    1       23.907 -11.792   3.104  0.00  0.00    +0.189 C 
BRANCH  11  12
ATOM     12  C   UNK    1       23.901 -12.234   4.563  0.00  0.00    +0.315 C 
ATOM     13  O   UNK    1       23.728 -11.447   5.484  0.00  0.00    -0.250 OA
BRANCH  12  14
ATOM     14  O   UNK    1       24.104 -13.551   4.789  0.00  0.00    -0.480 OA
ATOM     15  H   UNK    1       25.040 -13.805   4.642  0.00  0.00    +0.295 HD
ENDBRANCH  12  14
ENDBRANCH  11  12
ENDBRANCH  10  11
ENDBRANCH   9  10
ENDBRANCH   1   9
TORSDOF 8
ENDMDL
