MODEL 1
REMARK VINA RESULT:      -9.3      0.000      0.000
REMARK  Name = *****
REMARK                            x       y       z     vdW  Elec       q    Type
REMARK                         _______ _______ _______ _____ _____    ______ ____
ROOT
ATOM      1  C   LIG    1       26.206 -20.506   8.893  0.00  0.00    +0.061 C 
ATOM      2  C   LIG    1       26.419 -21.079   7.461  0.00  0.00    +0.020 C 
ATOM      3  C   LIG    1       25.474 -22.042   7.205  0.00  0.00    +0.013 C 
ENDROOT
BRANCH   2   4
ATOM      4  N   LIG    1       27.608 -20.649   6.745  0.00  0.00    -0.273 N 
ATOM      5  C   LIG    1       27.459 -19.804   5.597  0.00  0.00    +0.333 C 
ATOM      6  O   LIG    1       28.357 -19.371   4.869  0.00  0.00    -0.279 OA
BRANCH   4   7
ATOM      7  C   LIG    1       29.089 -21.041   6.949  0.00  0.00    +0.153 C 
BRANCH   7   8
ATOM      8  C   LIG    1       30.111 -20.254   7.735  0.00  0.00    +0.028 A 
ATOM      9  C   LIG    1       31.095 -20.518   8.619  0.00  0.00    +0.124 A 
ATOM     10  N   LIG    1       31.859 -19.585   9.331  0.00  0.00    -0.218 NA
ATOM     11  C   LIG    1       31.772 -18.305   8.952  0.00  0.00    +0.128 A 
ATOM     12  C   LIG    1       32.384 -17.087   9.601  0.00  0.00    +0.088 C 
ATOM     13  N   LIG    1       31.304 -18.103   7.758  0.00  0.00    -0.240 NA
ATOM     14  C   LIG    1       30.556 -19.107   7.242  0.00  0.00    +0.121 A 
BRANCH   9  15
ATOM     15  N   LIG    1       31.600 -21.820   8.600  0.00  0.00    -0.343 N 
ATOM     16  H   LIG    1       31.251 -22.262   7.747  0.00  0.00    +0.144 HD
ATOM     17  H   LIG    1       32.594 -21.622   8.517  0.00  0.00    +0.144 HD
ENDBRANCH   9  15
ENDBRANCH   7   8
ENDBRANCH   4   7
ENDBRANCH   2   4
BRANCH   3  18
ATOM     18  S   LIG    1       25.336 -23.355   6.165  0.00  0.00    -0.050 S 
BRANCH  18  19
ATOM     19  C   LIG    1       24.324 -24.764   6.412  0.00  0.00    +0.224 C 
ATOM     20  O   LIG    1       23.175 -24.615   6.489  0.00  0.00    -0.279 OA
BRANCH  19  21
ATOM     21  C   LIG    1       24.930 -26.160   6.417  0.00  0.00    +0.029 A 
ATOM     22  C   LIG    1       24.327 -26.990   5.517  0.00  0.00    +0.012 A 
ATOM     23  C   LIG    1       24.401 -28.357   5.755  0.00  0.00    +0.001 A 
ATOM     24  C   LIG    1       25.122 -28.867   6.843  0.00  0.00    +0.000 A 
ATOM     25  C   LIG    1       25.950 -28.046   7.560  0.00  0.00    +0.001 A 
ATOM     26  C   LIG    1       25.927 -26.716   7.238  0.00  0.00    +0.012 A 
ENDBRANCH  19  21
ENDBRANCH  18  19
ENDBRANCH   3  18
BRANCH   3  27
ATOM     27  C   LIG    1       24.114 -22.116   7.938  0.00  0.00    +0.072 C 
BRANCH  27  28
ATOM     28  C   LIG    1       22.909 -21.365   7.246  0.00  0.00    +0.177 C 
BRANCH  28  29
ATOM     29  O   LIG    1       23.455 -20.339   6.442  0.00  0.00    -0.286 OA
BRANCH  29  30
ATOM     30  P   LIG    1       22.804 -20.063   5.016  0.00  0.00    +0.472 P 
ATOM     31  O   LIG    1       22.212 -18.746   4.674  0.00  0.00    -0.228 OA
BRANCH  30  32
ATOM     32  O   LIG    1       21.926 -21.357   4.728  0.00  0.00    -0.303 OA
ATOM     33  H   LIG    1       22.263 -22.111   5.237  0.00  0.00    +0.222 HD
ENDBRANCH  30  32
BRANCH  30  34
ATOM     34  O   LIG    1       24.063 -20.379   4.073  0.00  0.00    -0.303 OA
ATOM     35  H   LIG    1       23.981 -21.292   3.735  0.00  0.00    +0.222 HD
ENDBRANCH  30  34
ENDBRANCH  29  30
ENDBRANCH  28  29
ENDBRANCH  27  28
ENDBRANCH   3  27
TORSDOF 13
ENDMDL
MODEL 2
REMARK VINA RESULT:      -9.1      2.516      3.874
REMARK  Name = *****
REMARK                            x       y       z     vdW  Elec       q    Type
REMARK                         _______ _______ _______ _____ _____    ______ ____
ROOT
ATOM      1  C   LIG    1       28.009 -18.554   4.989  0.00  0.00    +0.061 C 
ATOM      2  C   LIG    1       27.197 -19.764   5.539  0.00  0.00    +0.020 C 
ATOM      3  C   LIG    1       25.993 -19.846   4.882  0.00  0.00    +0.013 C 
ENDROOT
BRANCH   2   4
ATOM      4  N   LIG    1       27.738 -20.456   6.696  0.00  0.00    -0.273 N 
ATOM      5  C   LIG    1       26.887 -20.694   7.823  0.00  0.00    +0.333 C 
ATOM      6  O   LIG    1       27.193 -21.244   8.886  0.00  0.00    -0.279 OA
BRANCH   4   7
ATOM      7  C   LIG    1       29.182 -20.923   6.990  0.00  0.00    +0.153 C 
BRANCH   7   8
ATOM      8  C   LIG    1       30.216 -20.155   7.779  0.00  0.00    +0.028 A 
ATOM      9  C   LIG    1       31.202 -20.438   8.655  0.00  0.00    +0.124 A 
ATOM     10  N   LIG    1       31.979 -19.520   9.373  0.00  0.00    -0.218 NA
ATOM     11  C   LIG    1       31.903 -18.236   9.008  0.00  0.00    +0.128 A 
ATOM     12  C   LIG    1       32.530 -17.031   9.667  0.00  0.00    +0.088 C 
ATOM     13  N   LIG    1       31.430 -18.016   7.819  0.00  0.00    -0.240 NA
ATOM     14  C   LIG    1       30.669 -19.007   7.297  0.00  0.00    +0.121 A 
BRANCH   9  15
ATOM     15  N   LIG    1       31.695 -21.745   8.619  0.00  0.00    -0.343 N 
ATOM     16  H   LIG    1       32.101 -21.884   7.691  0.00  0.00    +0.144 HD
ATOM     17  H   LIG    1       32.427 -21.676   9.321  0.00  0.00    +0.144 HD
ENDBRANCH   9  15
ENDBRANCH   7   8
ENDBRANCH   4   7
ENDBRANCH   2   4
BRANCH   3  18
ATOM     18  S   LIG    1       24.486 -20.518   5.199  0.00  0.00    -0.050 S 
BRANCH  18  19
ATOM     19  C   LIG    1       24.009 -21.331   6.676  0.00  0.00    +0.224 C 
ATOM     20  O   LIG    1       23.499 -20.707   7.512  0.00  0.00    -0.279 OA
BRANCH  19  21
ATOM     21  C   LIG    1       24.166 -22.838   6.815  0.00  0.00    +0.029 A 
ATOM     22  C   LIG    1       25.464 -23.209   7.015  0.00  0.00    +0.012 A 
ATOM     23  C   LIG    1       25.825 -24.501   6.653  0.00  0.00    +0.001 A 
ATOM     24  C   LIG    1       24.878 -25.410   6.163  0.00  0.00    +0.000 A 
ATOM     25  C   LIG    1       23.544 -25.117   6.241  0.00  0.00    +0.001 A 
ATOM     26  C   LIG    1       23.214 -23.867   6.692  0.00  0.00    +0.012 A 
ENDBRANCH  19  21
ENDBRANCH  18  19
ENDBRANCH   3  18
BRANCH   3  27
ATOM     27  C   LIG    1       25.747 -19.245   3.478  0.00  0.00    +0.072 C 
BRANCH  27  28
ATOM     28  C   LIG    1       25.218 -17.758   3.440  0.00  0.00    +0.177 C 
BRANCH  28  29
ATOM     29  O   LIG    1       26.284 -16.941   3.000  0.00  0.00    -0.286 OA
BRANCH  29  30
ATOM     30  P   LIG    1       26.257 -15.392   3.367  0.00  0.00    +0.472 P 
ATOM     31  O   LIG    1       25.200 -14.820   4.239  0.00  0.00    -0.228 OA
BRANCH  30  32
ATOM     32  O   LIG    1       26.545 -14.657   1.987  0.00  0.00    -0.303 OA
ATOM     33  H   LIG    1       25.957 -13.892   1.885  0.00  0.00    +0.222 HD
ENDBRANCH  30  32
BRANCH  30  34
ATOM     34  O   LIG    1       27.699 -15.246   4.054  0.00  0.00    -0.303 OA
ATOM     35  H   LIG    1       27.620 -15.468   5.002  0.00  0.00    +0.222 HD
ENDBRANCH  30  34
ENDBRANCH  29  30
ENDBRANCH  28  29
ENDBRANCH  27  28
ENDBRANCH   3  27
TORSDOF 13
ENDMDL
MODEL 3
REMARK VINA RESULT:      -9.1      3.526      8.170
REMARK  Name = *****
REMARK                            x       y       z     vdW  Elec       q    Type
REMARK                         _______ _______ _______ _____ _____    ______ ____
ROOT
ATOM      1  C   LIG    1       23.058 -24.412   6.647  0.00  0.00    +0.061 C 
ATOM      2  C   LIG    1       24.611 -24.315   6.574  0.00  0.00    +0.020 C 
ATOM      3  C   LIG    1       25.006 -23.032   6.864  0.00  0.00    +0.013 C 
ENDROOT
BRANCH   2   4
ATOM      4  N   LIG    1       25.326 -25.479   6.078  0.00  0.00    -0.273 N 
ATOM      5  C   LIG    1       25.431 -25.678   4.663  0.00  0.00    +0.333 C 
ATOM      6  O   LIG    1       25.980 -26.619   4.081  0.00  0.00    -0.279 OA
BRANCH   4   7
ATOM      7  C   LIG    1       25.947 -26.668   6.847  0.00  0.00    +0.153 C 
BRANCH   7   8
ATOM      8  C   LIG    1       25.233 -27.943   7.228  0.00  0.00    +0.028 A 
ATOM      9  C   LIG    1       24.479 -28.877   6.611  0.00  0.00    +0.124 A 
ATOM     10  N   LIG    1       23.801 -29.944   7.214  0.00  0.00    -0.218 NA
ATOM     11  C   LIG    1       24.092 -30.211   8.492  0.00  0.00    +0.128 A 
ATOM     12  C   LIG    1       23.443 -31.213   9.416  0.00  0.00    +0.088 C 
ATOM     13  N   LIG    1       25.213 -29.722   8.928  0.00  0.00    -0.240 NA
ATOM     14  C   LIG    1       25.702 -28.665   8.235  0.00  0.00    +0.121 A 
BRANCH   9  15
ATOM     15  N   LIG    1       24.631 -28.966   5.225  0.00  0.00    -0.343 N 
ATOM     16  H   LIG    1       24.187 -29.839   4.933  0.00  0.00    +0.144 HD
ATOM     17  H   LIG    1       24.071 -28.168   4.936  0.00  0.00    +0.144 HD
ENDBRANCH   9  15
ENDBRANCH   7   8
ENDBRANCH   4   7
ENDBRANCH   2   4
BRANCH   3  18
ATOM     18  S   LIG    1       26.357 -22.083   6.551  0.00  0.00    -0.050 S 
BRANCH  18  19
ATOM     19  C   LIG    1       27.511 -21.508   7.738  0.00  0.00    +0.224 C 
ATOM     20  O   LIG    1       27.306 -21.724   8.860  0.00  0.00    -0.279 OA
BRANCH  19  21
ATOM     21  C   LIG    1       28.802 -20.834   7.297  0.00  0.00    +0.029 A 
ATOM     22  C   LIG    1       29.856 -21.155   8.103  0.00  0.00    +0.012 A 
ATOM     23  C   LIG    1       30.921 -20.264   8.152  0.00  0.00    +0.001 A 
ATOM     24  C   LIG    1       30.942 -19.112   7.355  0.00  0.00    +0.000 A 
ATOM     25  C   LIG    1       30.023 -18.957   6.352  0.00  0.00    +0.001 A 
ATOM     26  C   LIG    1       29.038 -19.904   6.268  0.00  0.00    +0.012 A 
ENDBRANCH  19  21
ENDBRANCH  18  19
ENDBRANCH   3  18
BRANCH   3  27
ATOM     27  C   LIG    1       24.147 -22.042   7.685  0.00  0.00    +0.072 C 
BRANCH  27  28
ATOM     28  C   LIG    1       24.148 -20.543   7.189  0.00  0.00    +0.177 C 
BRANCH  28  29
ATOM     29  O   LIG    1       22.902 -20.303   6.566  0.00  0.00    -0.286 OA
BRANCH  29  30
ATOM     30  P   LIG    1       22.805 -20.440   4.983  0.00  0.00    +0.472 P 
ATOM     31  O   LIG    1       23.974 -20.852   4.166  0.00  0.00    -0.228 OA
BRANCH  30  32
ATOM     32  O   LIG    1       22.013 -19.139   4.524  0.00  0.00    -0.303 OA
ATOM     33  H   LIG    1       21.650 -19.264   3.634  0.00  0.00    +0.222 HD
ENDBRANCH  30  32
BRANCH  30  34
ATOM     34  O   LIG    1       21.626 -21.523   4.872  0.00  0.00    -0.303 OA
ATOM     35  H   LIG    1       20.949 -21.189   4.252  0.00  0.00    +0.222 HD
ENDBRANCH  30  34
ENDBRANCH  29  30
ENDBRANCH  28  29
ENDBRANCH  27  28
ENDBRANCH   3  27
TORSDOF 13
ENDMDL
MODEL 4
REMARK VINA RESULT:      -8.9      2.871      4.901
REMARK  Name = *****
REMARK                            x       y       z     vdW  Elec       q    Type
REMARK                         _______ _______ _______ _____ _____    ______ ____
ROOT
ATOM      1  C   LIG    1       29.016 -22.015   6.900  0.00  0.00    +0.061 C 
ATOM      2  C   LIG    1       28.194 -20.810   7.447  0.00  0.00    +0.020 C 
ATOM      3  C   LIG    1       26.926 -21.227   7.768  0.00  0.00    +0.013 C 
ENDROOT
BRANCH   2   4
ATOM      4  N   LIG    1       28.812 -19.496   7.371  0.00  0.00    -0.273 N 
ATOM      5  C   LIG    1       29.522 -19.132   6.181  0.00  0.00    +0.333 C 
ATOM      6  O   LIG    1       30.118 -18.072   5.964  0.00  0.00    -0.279 OA
BRANCH   4   7
ATOM      7  C   LIG    1       28.933 -18.390   8.443  0.00  0.00    +0.153 C 
BRANCH   7   8
ATOM      8  C   LIG    1       30.171 -18.072   9.247  0.00  0.00    +0.028 A 
ATOM      9  C   LIG    1       31.459 -18.473   9.281  0.00  0.00    +0.124 A 
ATOM     10  N   LIG    1       32.428 -18.113  10.225  0.00  0.00    -0.218 NA
ATOM     11  C   LIG    1       32.132 -17.107  11.054  0.00  0.00    +0.128 A 
ATOM     12  C   LIG    1       32.927 -16.588  12.228  0.00  0.00    +0.088 C 
ATOM     13  N   LIG    1       31.164 -16.329  10.672  0.00  0.00    -0.240 NA
ATOM     14  C   LIG    1       30.301 -16.864   9.776  0.00  0.00    +0.121 A 
BRANCH   9  15
ATOM     15  N   LIG    1       31.947 -19.055   8.109  0.00  0.00    -0.343 N 
ATOM     16  H   LIG    1       32.962 -18.932   8.116  0.00  0.00    +0.144 HD
ATOM     17  H   LIG    1       31.706 -20.028   8.283  0.00  0.00    +0.144 HD
ENDBRANCH   9  15
ENDBRANCH   7   8
ENDBRANCH   4   7
ENDBRANCH   2   4
BRANCH   3  18
ATOM     18  S   LIG    1       25.423 -20.498   7.948  0.00  0.00    -0.050 S 
BRANCH  18  19
ATOM     19  C   LIG    1       23.927 -21.020   7.200  0.00  0.00    +0.224 C 
ATOM     20  O   LIG    1       23.208 -21.696   7.811  0.00  0.00    -0.279 OA
BRANCH  19  21
ATOM     21  C   LIG    1       23.534 -20.510   5.821  0.00  0.00    +0.029 A 
ATOM     22  C   LIG    1       24.385 -20.943   4.845  0.00  0.00    +0.012 A 
ATOM     23  C   LIG    1       24.470 -20.184   3.684  0.00  0.00    +0.001 A 
ATOM     24  C   LIG    1       23.664 -19.053   3.495  0.00  0.00    +0.000 A 
ATOM     25  C   LIG    1       22.623 -18.805   4.348  0.00  0.00    +0.001 A 
ATOM     26  C   LIG    1       22.508 -19.629   5.435  0.00  0.00    +0.012 A 
ENDBRANCH  19  21
ENDBRANCH  18  19
ENDBRANCH   3  18
BRANCH   3  27
ATOM     27  C   LIG    1       26.571 -22.696   8.097  0.00  0.00    +0.072 C 
BRANCH  27  28
ATOM     28  C   LIG    1       26.225 -23.621   6.866  0.00  0.00    +0.177 C 
BRANCH  28  29
ATOM     29  O   LIG    1       25.212 -24.516   7.279  0.00  0.00    -0.286 OA
BRANCH  29  30
ATOM     30  P   LIG    1       24.264 -25.156   6.172  0.00  0.00    +0.472 P 
ATOM     31  O   LIG    1       23.996 -26.615   6.128  0.00  0.00    -0.228 OA
BRANCH  30  32
ATOM     32  O   LIG    1       24.712 -24.452   4.818  0.00  0.00    -0.303 OA
ATOM     33  H   LIG    1       24.225 -23.623   4.693  0.00  0.00    +0.222 HD
ENDBRANCH  30  32
BRANCH  30  34
ATOM     34  O   LIG    1       22.913 -24.340   6.462  0.00  0.00    -0.303 OA
ATOM     35  H   LIG    1       22.518 -24.671   7.292  0.00  0.00    +0.222 HD
ENDBRANCH  30  34
ENDBRANCH  29  30
ENDBRANCH  28  29
ENDBRANCH  27  28
ENDBRANCH   3  27
TORSDOF 13
ENDMDL
MODEL 5
REMARK VINA RESULT:      -8.9      2.252      3.904
REMARK  Name = *****
REMARK                            x       y       z     vdW  Elec       q    Type
REMARK                         _______ _______ _______ _____ _____    ______ ____
ROOT
ATOM      1  C   LIG    1       29.314 -18.511   5.992  0.00  0.00    +0.061 C 
ATOM      2  C   LIG    1       29.590 -19.686   6.976  0.00  0.00    +0.020 C 
ATOM      3  C   LIG    1       28.532 -20.562   6.955  0.00  0.00    +0.013 C 
ENDROOT
BRANCH   2   4
ATOM      4  N   LIG    1       30.766 -19.580   7.822  0.00  0.00    -0.273 N 
ATOM      5  C   LIG    1       31.165 -20.714   8.602  0.00  0.00    +0.333 C 
ATOM      6  O   LIG    1       32.119 -20.784   9.383  0.00  0.00    -0.279 OA
BRANCH   4   7
ATOM      7  C   LIG    1       31.665 -18.360   8.130  0.00  0.00    +0.153 C 
BRANCH   7   8
ATOM      8  C   LIG    1       31.905 -17.763   9.495  0.00  0.00    +0.028 A 
ATOM      9  C   LIG    1       32.638 -16.759  10.020  0.00  0.00    +0.124 A 
ATOM     10  N   LIG    1       32.802 -16.457  11.378  0.00  0.00    -0.218 NA
ATOM     11  C   LIG    1       31.990 -17.071  12.244  0.00  0.00    +0.128 A 
ATOM     12  C   LIG    1       32.015 -17.027  13.753  0.00  0.00    +0.088 C 
ATOM     13  N   LIG    1       30.908 -17.581  11.737  0.00  0.00    -0.240 NA
ATOM     14  C   LIG    1       30.948 -17.839  10.408  0.00  0.00    +0.121 A 
BRANCH   9  15
ATOM     15  N   LIG    1       33.024 -15.754   9.129  0.00  0.00    -0.343 N 
ATOM     16  H   LIG    1       33.484 -16.216   8.342  0.00  0.00    +0.144 HD
ATOM     17  H   LIG    1       32.110 -15.405   8.853  0.00  0.00    +0.144 HD
ENDBRANCH   9  15
ENDBRANCH   7   8
ENDBRANCH   4   7
ENDBRANCH   2   4
BRANCH   3  18
ATOM     18  S   LIG    1       27.902 -21.722   7.995  0.00  0.00    -0.050 S 
BRANCH  18  19
ATOM     19  C   LIG    1       26.203 -22.057   8.258  0.00  0.00    +0.224 C 
ATOM     20  O   LIG    1       25.657 -21.510   9.125  0.00  0.00    -0.279 OA
BRANCH  19  21
ATOM     21  C   LIG    1       25.437 -22.964   7.305  0.00  0.00    +0.029 A 
ATOM     22  C   LIG    1       24.108 -22.658   7.254  0.00  0.00    +0.012 A 
ATOM     23  C   LIG    1       23.232 -23.664   6.864  0.00  0.00    +0.001 A 
ATOM     24  C   LIG    1       23.702 -24.925   6.475  0.00  0.00    +0.000 A 
ATOM     25  C   LIG    1       25.039 -25.120   6.258  0.00  0.00    +0.001 A 
ATOM     26  C   LIG    1       25.871 -24.076   6.562  0.00  0.00    +0.012 A 
ENDBRANCH  19  21
ENDBRANCH  18  19
ENDBRANCH   3  18
BRANCH   3  27
ATOM     27  C   LIG    1       27.552 -20.685   5.765  0.00  0.00    +0.072 C 
BRANCH  27  28
ATOM     28  C   LIG    1       26.161 -19.956   5.930  0.00  0.00    +0.177 C 
BRANCH  28  29
ATOM     29  O   LIG    1       25.571 -19.873   4.648  0.00  0.00    -0.286 OA
BRANCH  29  30
ATOM     30  P   LIG    1       24.023 -20.213   4.500  0.00  0.00    +0.472 P 
ATOM     31  O   LIG    1       23.055 -19.909   5.583  0.00  0.00    -0.228 OA
BRANCH  30  32
ATOM     32  O   LIG    1       24.000 -21.681   3.889  0.00  0.00    -0.303 OA
ATOM     33  H   LIG    1       24.300 -21.665   2.967  0.00  0.00    +0.222 HD
ENDBRANCH  30  32
BRANCH  30  34
ATOM     34  O   LIG    1       23.680 -19.369   3.180  0.00  0.00    -0.303 OA
ATOM     35  H   LIG    1       24.453 -19.391   2.583  0.00  0.00    +0.222 HD
ENDBRANCH  30  34
ENDBRANCH  29  30
ENDBRANCH  28  29
ENDBRANCH  27  28
ENDBRANCH   3  27
TORSDOF 13
ENDMDL
MODEL 6
REMARK VINA RESULT:      -8.9      3.456      8.011
REMARK  Name = *****
REMARK                            x       y       z     vdW  Elec       q    Type
REMARK                         _______ _______ _______ _____ _____    ______ ____
ROOT
ATOM      1  C   LIG    1       24.041 -20.657   3.706  0.00  0.00    +0.061 C 
ATOM      2  C   LIG    1       24.947 -20.520   4.965  0.00  0.00    +0.020 C 
ATOM      3  C   LIG    1       26.041 -19.748   4.662  0.00  0.00    +0.013 C 
ENDROOT
BRANCH   2   4
ATOM      4  N   LIG    1       24.594 -21.320   6.126  0.00  0.00    -0.273 N 
ATOM      5  C   LIG    1       23.524 -20.880   6.972  0.00  0.00    +0.333 C 
ATOM      6  O   LIG    1       23.116 -21.426   8.002  0.00  0.00    -0.279 OA
BRANCH   4   7
ATOM      7  C   LIG    1       25.269 -22.583   6.706  0.00  0.00    +0.153 C 
BRANCH   7   8
ATOM      8  C   LIG    1       24.905 -24.011   6.372  0.00  0.00    +0.028 A 
ATOM      9  C   LIG    1       23.827 -24.812   6.497  0.00  0.00    +0.124 A 
ATOM     10  N   LIG    1       23.759 -26.182   6.216  0.00  0.00    -0.218 NA
ATOM     11  C   LIG    1       24.785 -26.723   5.552  0.00  0.00    +0.128 A 
ATOM     12  C   LIG    1       25.032 -28.174   5.219  0.00  0.00    +0.088 C 
ATOM     13  N   LIG    1       25.546 -25.885   4.913  0.00  0.00    -0.240 NA
ATOM     14  C   LIG    1       25.505 -24.604   5.350  0.00  0.00    +0.121 A 
BRANCH   9  15
ATOM     15  N   LIG    1       22.596 -24.163   6.631  0.00  0.00    -0.343 N 
ATOM     16  H   LIG    1       22.538 -23.833   7.597  0.00  0.00    +0.144 HD
ATOM     17  H   LIG    1       22.740 -23.382   5.996  0.00  0.00    +0.144 HD
ENDBRANCH   9  15
ENDBRANCH   7   8
ENDBRANCH   4   7
ENDBRANCH   2   4
BRANCH   3  18
ATOM     18  S   LIG    1       27.590 -19.549   5.283  0.00  0.00    -0.050 S 
BRANCH  18  19
ATOM     19  C   LIG    1       28.074 -19.799   6.948  0.00  0.00    +0.224 C 
ATOM     20  O   LIG    1       27.292 -20.218   7.696  0.00  0.00    -0.279 OA
BRANCH  19  21
ATOM     21  C   LIG    1       29.517 -19.570   7.376  0.00  0.00    +0.029 A 
ATOM     22  C   LIG    1       30.064 -20.674   7.964  0.00  0.00    +0.012 A 
ATOM     23  C   LIG    1       31.129 -20.476   8.834  0.00  0.00    +0.001 A 
ATOM     24  C   LIG    1       31.663 -19.199   9.050  0.00  0.00    +0.000 A 
ATOM     25  C   LIG    1       31.294 -18.157   8.242  0.00  0.00    +0.001 A 
ATOM     26  C   LIG    1       30.307 -18.408   7.327  0.00  0.00    +0.012 A 
ENDBRANCH  19  21
ENDBRANCH  18  19
ENDBRANCH   3  18
BRANCH   3  27
ATOM     27  C   LIG    1       26.066 -18.725   3.502  0.00  0.00    +0.072 C 
BRANCH  27  28
ATOM     28  C   LIG    1       26.824 -17.369   3.786  0.00  0.00    +0.177 C 
BRANCH  28  29
ATOM     29  O   LIG    1       26.203 -16.366   3.006  0.00  0.00    -0.286 OA
BRANCH  29  30
ATOM     30  P   LIG    1       26.508 -14.841   3.347  0.00  0.00    +0.472 P 
ATOM     31  O   LIG    1       25.621 -14.053   4.240  0.00  0.00    -0.228 OA
BRANCH  30  32
ATOM     32  O   LIG    1       26.896 -14.196   1.946  0.00  0.00    -0.303 OA
ATOM     33  H   LIG    1       26.442 -14.659   1.226  0.00  0.00    +0.222 HD
ENDBRANCH  30  32
BRANCH  30  34
ATOM     34  O   LIG    1       27.970 -14.989   3.988  0.00  0.00    -0.303 OA
ATOM     35  H   LIG    1       28.386 -14.106   4.030  0.00  0.00    +0.222 HD
ENDBRANCH  30  34
ENDBRANCH  29  30
ENDBRANCH  28  29
ENDBRANCH  27  28
ENDBRANCH   3  27
TORSDOF 13
ENDMDL
MODEL 7
REMARK VINA RESULT:      -8.7      3.889      8.119
REMARK  Name = *****
REMARK                            x       y       z     vdW  Elec       q    Type
REMARK                         _______ _______ _______ _____ _____    ______ ____
ROOT
ATOM      1  C   LIG    1       25.622 -21.642   8.725  0.00  0.00    +0.061 C 
ATOM      2  C   LIG    1       25.772 -21.918   7.199  0.00  0.00    +0.020 C 
ATOM      3  C   LIG    1       26.619 -20.990   6.646  0.00  0.00    +0.013 C 
ENDROOT
BRANCH   2   4
ATOM      4  N   LIG    1       24.914 -22.940   6.622  0.00  0.00    -0.273 N 
ATOM      5  C   LIG    1       23.571 -23.070   7.104  0.00  0.00    +0.333 C 
ATOM      6  O   LIG    1       22.726 -23.894   6.740  0.00  0.00    -0.279 OA
BRANCH   4   7
ATOM      7  C   LIG    1       25.237 -24.043   5.590  0.00  0.00    +0.153 C 
BRANCH   7   8
ATOM      8  C   LIG    1       25.278 -25.527   5.867  0.00  0.00    +0.028 A 
ATOM      9  C   LIG    1       25.262 -26.669   5.147  0.00  0.00    +0.124 A 
ATOM     10  N   LIG    1       25.185 -27.976   5.644  0.00  0.00    -0.218 NA
ATOM     11  C   LIG    1       25.364 -28.143   6.958  0.00  0.00    +0.128 A 
ATOM     12  C   LIG    1       25.224 -29.405   7.774  0.00  0.00    +0.088 C 
ATOM     13  N   LIG    1       25.954 -27.164   7.575  0.00  0.00    -0.240 NA
ATOM     14  C   LIG    1       25.895 -25.960   6.957  0.00  0.00    +0.121 A 
BRANCH   9  15
ATOM     15  N   LIG    1       25.659 -26.554   3.812  0.00  0.00    -0.343 N 
ATOM     16  H   LIG    1       26.478 -25.943   3.797  0.00  0.00    +0.144 HD
ATOM     17  H   LIG    1       25.929 -27.517   3.627  0.00  0.00    +0.144 HD
ENDBRANCH   9  15
ENDBRANCH   7   8
ENDBRANCH   4   7
ENDBRANCH   2   4
BRANCH   3  18
ATOM     18  S   LIG    1       26.891 -20.366   5.109  0.00  0.00    -0.050 S 
BRANCH  18  19
ATOM     19  C   LIG    1       25.812 -19.313   4.218  0.00  0.00    +0.224 C 
ATOM     20  O   LIG    1       26.264 -18.409   3.648  0.00  0.00    -0.279 OA
BRANCH  19  21
ATOM     21  C   LIG    1       24.329 -19.639   4.108  0.00  0.00    +0.029 A 
ATOM     22  C   LIG    1       23.566 -18.525   3.909  0.00  0.00    +0.012 A 
ATOM     23  C   LIG    1       22.232 -18.584   4.294  0.00  0.00    +0.001 A 
ATOM     24  C   LIG    1       21.675 -19.763   4.807  0.00  0.00    +0.000 A 
ATOM     25  C   LIG    1       22.371 -20.939   4.729  0.00  0.00    +0.001 A 
ATOM     26  C   LIG    1       23.654 -20.864   4.256  0.00  0.00    +0.012 A 
ENDBRANCH  19  21
ENDBRANCH  18  19
ENDBRANCH   3  18
BRANCH   3  27
ATOM     27  C   LIG    1       27.680 -20.212   7.460  0.00  0.00    +0.072 C 
BRANCH  27  28
ATOM     28  C   LIG    1       29.123 -20.850   7.512  0.00  0.00    +0.177 C 
BRANCH  28  29
ATOM     29  O   LIG    1       29.716 -20.457   8.734  0.00  0.00    -0.286 OA
BRANCH  29  30
ATOM     30  P   LIG    1       31.250 -20.032   8.732  0.00  0.00    +0.472 P 
ATOM     31  O   LIG    1       31.760 -18.963   9.626  0.00  0.00    -0.228 OA
BRANCH  30  32
ATOM     32  O   LIG    1       31.631 -19.942   7.191  0.00  0.00    -0.303 OA
ATOM     33  H   LIG    1       32.221 -20.672   6.948  0.00  0.00    +0.222 HD
ENDBRANCH  30  32
BRANCH  30  34
ATOM     34  O   LIG    1       31.926 -21.442   9.092  0.00  0.00    -0.303 OA
ATOM     35  H   LIG    1       31.232 -22.053   9.405  0.00  0.00    +0.222 HD
ENDBRANCH  30  34
ENDBRANCH  29  30
ENDBRANCH  28  29
ENDBRANCH  27  28
ENDBRANCH   3  27
TORSDOF 13
ENDMDL
MODEL 8
REMARK VINA RESULT:      -8.7      2.565      5.378
REMARK  Name = *****
REMARK                            x       y       z     vdW  Elec       q    Type
REMARK                         _______ _______ _______ _____ _____    ______ ____
ROOT
ATOM      1  C   LIG    1       27.028 -22.216   8.167  0.00  0.00    +0.061 C 
ATOM      2  C   LIG    1       26.732 -21.341   6.913  0.00  0.00    +0.020 C 
ATOM      3  C   LIG    1       25.476 -21.630   6.437  0.00  0.00    +0.013 C 
ENDROOT
BRANCH   2   4
ATOM      4  N   LIG    1       27.825 -20.541   6.389  0.00  0.00    -0.273 N 
ATOM      5  C   LIG    1       27.525 -19.429   5.536  0.00  0.00    +0.333 C 
ATOM      6  O   LIG    1       28.331 -18.667   4.993  0.00  0.00    -0.279 OA
BRANCH   4   7
ATOM      7  C   LIG    1       29.353 -20.742   6.511  0.00  0.00    +0.153 C 
BRANCH   7   8
ATOM      8  C   LIG    1       30.256 -20.058   7.510  0.00  0.00    +0.028 A 
ATOM      9  C   LIG    1       31.058 -20.424   8.531  0.00  0.00    +0.124 A 
ATOM     10  N   LIG    1       31.727 -19.576   9.423  0.00  0.00    -0.218 NA
ATOM     11  C   LIG    1       31.767 -18.275   9.117  0.00  0.00    +0.128 A 
ATOM     12  C   LIG    1       32.310 -17.131   9.938  0.00  0.00    +0.088 C 
ATOM     13  N   LIG    1       31.524 -17.981   7.875  0.00  0.00    -0.240 NA
ATOM     14  C   LIG    1       30.832 -18.912   7.176  0.00  0.00    +0.121 A 
BRANCH   9  15
ATOM     15  N   LIG    1       31.499 -21.750   8.516  0.00  0.00    -0.343 N 
ATOM     16  H   LIG    1       30.829 -22.292   9.066  0.00  0.00    +0.144 HD
ATOM     17  H   LIG    1       31.396 -21.958   7.526  0.00  0.00    +0.144 HD
ENDBRANCH   9  15
ENDBRANCH   7   8
ENDBRANCH   4   7
ENDBRANCH   2   4
BRANCH   3  18
ATOM     18  S   LIG    1       24.676 -21.480   4.967  0.00  0.00    -0.050 S 
BRANCH  18  19
ATOM     19  C   LIG    1       23.118 -20.721   4.714  0.00  0.00    +0.224 C 
ATOM     20  O   LIG    1       22.159 -21.324   4.969  0.00  0.00    -0.279 OA
BRANCH  19  21
ATOM     21  C   LIG    1       23.029 -19.267   4.270  0.00  0.00    +0.029 A 
ATOM     22  C   LIG    1       24.175 -18.838   3.667  0.00  0.00    +0.012 A 
ATOM     23  C   LIG    1       24.435 -17.473   3.681  0.00  0.00    +0.001 A 
ATOM     24  C   LIG    1       23.523 -16.565   4.236  0.00  0.00    +0.000 A 
ATOM     25  C   LIG    1       22.263 -16.981   4.572  0.00  0.00    +0.001 A 
ATOM     26  C   LIG    1       22.006 -18.320   4.457  0.00  0.00    +0.012 A 
ENDBRANCH  19  21
ENDBRANCH  18  19
ENDBRANCH   3  18
BRANCH   3  27
ATOM     27  C   LIG    1       24.355 -22.243   7.309  0.00  0.00    +0.072 C 
BRANCH  27  28
ATOM     28  C   LIG    1       23.860 -23.684   6.895  0.00  0.00    +0.177 C 
BRANCH  28  29
ATOM     29  O   LIG    1       24.989 -24.535   6.890  0.00  0.00    -0.286 OA
BRANCH  29  30
ATOM     30  P   LIG    1       25.130 -25.605   5.720  0.00  0.00    +0.472 P 
ATOM     31  O   LIG    1       26.287 -26.531   5.649  0.00  0.00    -0.228 OA
BRANCH  30  32
ATOM     32  O   LIG    1       24.757 -24.796   4.402  0.00  0.00    -0.303 OA
ATOM     33  H   LIG    1       23.803 -24.849   4.234  0.00  0.00    +0.222 HD
ENDBRANCH  30  32
BRANCH  30  34
ATOM     34  O   LIG    1       23.764 -26.421   5.927  0.00  0.00    -0.303 OA
ATOM     35  H   LIG    1       23.016 -25.793   5.901  0.00  0.00    +0.222 HD
ENDBRANCH  30  34
ENDBRANCH  29  30
ENDBRANCH  28  29
ENDBRANCH  27  28
ENDBRANCH   3  27
TORSDOF 13
ENDMDL
MODEL 9
REMARK VINA RESULT:      -8.4      3.711      7.949
REMARK  Name = *****
REMARK                            x       y       z     vdW  Elec       q    Type
REMARK                         _______ _______ _______ _____ _____    ______ ____
ROOT
ATOM      1  C   LIG    1       27.424 -19.955   8.479  0.00  0.00    +0.061 C 
ATOM      2  C   LIG    1       26.706 -20.641   7.278  0.00  0.00    +0.020 C 
ATOM      3  C   LIG    1       27.258 -20.200   6.100  0.00  0.00    +0.013 C 
ENDROOT
BRANCH   2   4
ATOM      4  N   LIG    1       25.537 -21.449   7.578  0.00  0.00    -0.273 N 
ATOM      5  C   LIG    1       24.244 -20.832   7.561  0.00  0.00    +0.333 C 
ATOM      6  O   LIG    1       23.159 -21.367   7.812  0.00  0.00    -0.279 OA
BRANCH   4   7
ATOM      7  C   LIG    1       25.436 -22.921   8.038  0.00  0.00    +0.153 C 
BRANCH   7   8
ATOM      8  C   LIG    1       25.116 -24.103   7.153  0.00  0.00    +0.028 A 
ATOM      9  C   LIG    1       24.018 -24.648   6.590  0.00  0.00    +0.124 A 
ATOM     10  N   LIG    1       23.945 -25.855   5.883  0.00  0.00    -0.218 NA
ATOM     11  C   LIG    1       25.100 -26.429   5.531  0.00  0.00    +0.128 A 
ATOM     12  C   LIG    1       25.324 -27.769   4.874  0.00  0.00    +0.088 C 
ATOM     13  N   LIG    1       26.140 -25.650   5.538  0.00  0.00    -0.240 NA
ATOM     14  C   LIG    1       26.039 -24.542   6.309  0.00  0.00    +0.121 A 
BRANCH   9  15
ATOM     15  N   LIG    1       22.921 -23.796   6.440  0.00  0.00    -0.343 N 
ATOM     16  H   LIG    1       23.026 -23.333   5.535  0.00  0.00    +0.144 HD
ATOM     17  H   LIG    1       22.170 -24.481   6.406  0.00  0.00    +0.144 HD
ENDBRANCH   9  15
ENDBRANCH   7   8
ENDBRANCH   4   7
ENDBRANCH   2   4
BRANCH   3  18
ATOM     18  S   LIG    1       26.766 -20.104   4.496  0.00  0.00    -0.050 S 
BRANCH  18  19
ATOM     19  C   LIG    1       25.541 -19.028   3.856  0.00  0.00    +0.224 C 
ATOM     20  O   LIG    1       25.880 -18.038   3.353  0.00  0.00    -0.279 OA
BRANCH  19  21
ATOM     21  C   LIG    1       24.074 -19.434   3.865  0.00  0.00    +0.029 A 
ATOM     22  C   LIG    1       23.238 -18.359   3.773  0.00  0.00    +0.012 A 
ATOM     23  C   LIG    1       21.948 -18.505   4.271  0.00  0.00    +0.001 A 
ATOM     24  C   LIG    1       21.504 -19.729   4.789  0.00  0.00    +0.000 A 
ATOM     25  C   LIG    1       22.253 -20.861   4.609  0.00  0.00    +0.001 A 
ATOM     26  C   LIG    1       23.482 -20.699   4.027  0.00  0.00    +0.012 A 
ENDBRANCH  19  21
ENDBRANCH  18  19
ENDBRANCH   3  18
BRANCH   3  27
ATOM     27  C   LIG    1       28.687 -19.618   5.995  0.00  0.00    +0.072 C 
BRANCH  27  28
ATOM     28  C   LIG    1       29.775 -20.267   6.938  0.00  0.00    +0.177 C 
BRANCH  28  29
ATOM     29  O   LIG    1       30.829 -19.335   7.073  0.00  0.00    -0.286 OA
BRANCH  29  30
ATOM     30  P   LIG    1       31.370 -19.006   8.533  0.00  0.00    +0.472 P 
ATOM     31  O   LIG    1       32.179 -19.986   9.300  0.00  0.00    -0.228 OA
BRANCH  30  32
ATOM     32  O   LIG    1       30.128 -18.344   9.273  0.00  0.00    -0.303 OA
ATOM     33  H   LIG    1       29.522 -19.031   9.592  0.00  0.00    +0.222 HD
ENDBRANCH  30  32
BRANCH  30  34
ATOM     34  O   LIG    1       32.228 -17.687   8.219  0.00  0.00    -0.303 OA
ATOM     35  H   LIG    1       31.614 -16.945   8.053  0.00  0.00    +0.222 HD
ENDBRANCH  30  34
ENDBRANCH  29  30
ENDBRANCH  28  29
ENDBRANCH  27  28
ENDBRANCH   3  27
TORSDOF 13
ENDMDL
