MODEL 1
REMARK VINA RESULT:       6.2      0.000      0.000
REMARK  Name = *****
REMARK                            x       y       z     vdW  Elec       q    Type
REMARK                         _______ _______ _______ _____ _____    ______ ____
ROOT
ATOM      1  CA  LIG    1       23.796 -17.000   3.183  0.00  0.00    +0.191 C 
ATOM      2  C   LIG    1       22.951 -15.768   3.660  0.00  0.00    +0.169 C 
ATOM      3  N   LIG    1       23.935 -14.891   3.020  0.00  0.00    -0.249 N 
ATOM      4  CA  LIG    1       24.329 -13.681   3.539  0.00  0.00    +0.123 C 
ATOM      5  C   LIG    1       24.503 -13.491   4.866  0.00  0.00    -0.021 C 
ATOM      6  C   LIG    1       24.200 -14.599   5.837  0.00  0.00    +0.104 C 
ATOM      7  S   LIG    1       22.715 -15.536   5.436  0.00  0.00    -0.131 S 
ATOM      8  C   LIG    1       24.880 -15.908   2.898  0.00  0.00    +0.244 C 
ATOM      9  O   LIG    1       26.065 -15.826   2.753  0.00  0.00    -0.273 OA
ENDROOT
BRANCH   1  11
ATOM     10  C   LIG    1       24.837 -19.209   3.755  0.00  0.00    +0.268 C 
ATOM     11  N   LIG    1       24.122 -18.087   4.161  0.00  0.00    -0.296 N 
ATOM     12  H   LIG    1       23.477 -18.288   4.941  0.00  0.00    +0.150 HD
ATOM     13  O   LIG    1       25.299 -19.342   2.633  0.00  0.00    -0.268 OA
BRANCH  10  15
ATOM     14  N   LIG    1       24.078 -21.187   5.084  0.00  0.00    -0.078 NA
ATOM     15  C   LIG    1       25.018 -20.326   4.799  0.00  0.00    +0.190 C 
BRANCH  15  16
ATOM     16  C   LIG    1       26.299 -20.502   5.507  0.00  0.00    +0.107 A 
ATOM     17  N   LIG    1       27.304 -19.523   5.461  0.00  0.00    -0.223 NA
ATOM     18  C   LIG    1       28.310 -19.847   6.235  0.00  0.00    +0.156 A 
ATOM     19  S   LIG    1       28.154 -21.344   7.052  0.00  0.00    -0.060 S 
ATOM     20  C   LIG    1       26.619 -21.571   6.327  0.00  0.00    +0.078 A 
BRANCH  18  21
ATOM     21  N   LIG    1       29.384 -19.062   6.424  0.00  0.00    -0.338 N 
ATOM     22  H   LIG    1       29.927 -19.267   7.255  0.00  0.00    +0.144 HD
ATOM     23  H   LIG    1       29.947 -18.838   5.612  0.00  0.00    +0.144 HD
ENDBRANCH  18  21
ENDBRANCH  15  16
BRANCH  14  25
ATOM     24  C   LIG    1       21.829 -20.795   5.173  0.00  0.00    +0.313 C 
ATOM     25  O   LIG    1       22.928 -21.046   4.300  0.00  0.00    -0.396 OA
ENDBRANCH  14  25
ENDBRANCH  10  15
ENDBRANCH   1  11
BRANCH   4  26
ATOM     26  C   LIG    1       24.678 -12.635   2.513  0.00  0.00    +0.351 C 
ATOM     27  O   LIG    1       23.940 -11.838   1.969  0.00  0.00    -0.244 OA
BRANCH  26  28
ATOM     28  OXT LIG    1       25.987 -12.700   2.180  0.00  0.00    -0.476 OA
ATOM     29  HXT LIG    1       26.416 -13.089   2.970  0.00  0.00    +0.295 HD
ENDBRANCH  26  28
ENDBRANCH   4  26
BRANCH   5  30
ATOM     30  C   LIG    1       25.226 -12.315   5.494  0.00  0.00    +0.111 C 
BRANCH  30  31
ATOM     31  S   LIG    1       26.762 -12.799   6.330  0.00  0.00    -0.080 S 
BRANCH  31  32
ATOM     32  C   LIG    1       27.794 -12.941   4.944  0.00  0.00    +0.209 A 
ATOM     33  N   LIG    1       28.112 -14.114   4.326  0.00  0.00    -0.223 N 
ATOM     34  C   LIG    1       27.714 -15.458   4.629  0.00  0.00    +0.177 C 
ATOM     35  N   LIG    1       28.937 -13.867   3.291  0.00  0.00    -0.043 NA
ATOM     36  N   LIG    1       29.108 -12.551   3.290  0.00  0.00    -0.022 NA
ATOM     37  N   LIG    1       28.401 -11.962   4.312  0.00  0.00    -0.102 NA
ENDBRANCH  31  32
ENDBRANCH  30  31
ENDBRANCH   5  30
TORSDOF 10
ENDMDL
MODEL 2
REMARK VINA RESULT:       9.1      2.490      7.052
REMARK  Name = *****
REMARK                            x       y       z     vdW  Elec       q    Type
REMARK                         _______ _______ _______ _____ _____    ______ ____
ROOT
ATOM      1  CA  LIG    1       22.573 -16.888   4.084  0.00  0.00    +0.191 C 
ATOM      2  C   LIG    1       22.786 -18.216   3.277  0.00  0.00    +0.169 C 
ATOM      3  N   LIG    1       22.416 -18.965   4.482  0.00  0.00    -0.249 N 
ATOM      4  CA  LIG    1       23.001 -20.153   4.849  0.00  0.00    +0.123 C 
ATOM      5  C   LIG    1       24.323 -20.384   4.687  0.00  0.00    -0.021 C 
ATOM      6  C   LIG    1       25.197 -19.355   4.024  0.00  0.00    +0.104 C 
ATOM      7  S   LIG    1       24.430 -18.548   2.607  0.00  0.00    -0.131 S 
ATOM      8  C   LIG    1       22.569 -17.857   5.313  0.00  0.00    +0.244 C 
ATOM      9  O   LIG    1       22.744 -17.818   6.497  0.00  0.00    -0.273 OA
ENDROOT
BRANCH   1  11
ATOM     10  C   LIG    1       23.419 -14.599   4.663  0.00  0.00    +0.268 C 
ATOM     11  N   LIG    1       23.621 -15.819   4.025  0.00  0.00    -0.296 N 
ATOM     12  H   LIG    1       24.227 -15.738   3.194  0.00  0.00    +0.150 HD
ATOM     13  O   LIG    1       22.443 -14.355   5.354  0.00  0.00    -0.268 OA
BRANCH  10  15
ATOM     14  N   LIG    1       24.271 -12.248   4.624  0.00  0.00    -0.078 NA
ATOM     15  C   LIG    1       24.498 -13.522   4.444  0.00  0.00    +0.190 C 
BRANCH  15  16
ATOM     16  C   LIG    1       25.870 -13.891   4.056  0.00  0.00    +0.107 A 
ATOM     17  N   LIG    1       26.620 -14.817   4.798  0.00  0.00    -0.223 NA
ATOM     18  C   LIG    1       27.769 -15.062   4.219  0.00  0.00    +0.156 A 
ATOM     19  S   LIG    1       28.059 -14.196   2.770  0.00  0.00    -0.060 S 
ATOM     20  C   LIG    1       26.527 -13.446   2.920  0.00  0.00    +0.078 A 
BRANCH  18  21
ATOM     21  N   LIG    1       28.660 -15.953   4.684  0.00  0.00    -0.338 N 
ATOM     22  H   LIG    1       28.843 -15.901   5.679  0.00  0.00    +0.144 HD
ATOM     23  H   LIG    1       28.604 -16.900   4.327  0.00  0.00    +0.144 HD
ENDBRANCH  18  21
ENDBRANCH  15  16
BRANCH  14  25
ATOM     24  C   LIG    1       23.117 -11.460   6.432  0.00  0.00    +0.313 C 
ATOM     25  O   LIG    1       22.988 -11.966   5.105  0.00  0.00    -0.396 OA
ENDBRANCH  14  25
ENDBRANCH  10  15
ENDBRANCH   1  11
BRANCH   4  26
ATOM     26  C   LIG    1       22.087 -21.114   5.564  0.00  0.00    +0.351 C 
ATOM     27  O   LIG    1       21.028 -21.571   5.183  0.00  0.00    -0.244 OA
BRANCH  26  28
ATOM     28  OXT LIG    1       22.562 -21.409   6.795  0.00  0.00    -0.476 OA
ATOM     29  HXT LIG    1       23.523 -21.540   6.657  0.00  0.00    +0.295 HD
ENDBRANCH  26  28
ENDBRANCH   4  26
BRANCH   5  30
ATOM     30  C   LIG    1       25.101 -21.512   5.337  0.00  0.00    +0.111 C 
BRANCH  30  31
ATOM     31  S   LIG    1       25.656 -21.105   7.016  0.00  0.00    -0.080 S 
BRANCH  31  32
ATOM     32  C   LIG    1       27.335 -20.822   6.686  0.00  0.00    +0.209 A 
ATOM     33  N   LIG    1       27.822 -19.763   5.978  0.00  0.00    -0.223 N 
ATOM     34  C   LIG    1       27.133 -18.671   5.354  0.00  0.00    +0.177 C 
ATOM     35  N   LIG    1       29.164 -19.852   5.904  0.00  0.00    -0.043 NA
ATOM     36  N   LIG    1       29.475 -20.958   6.567  0.00  0.00    -0.022 NA
ATOM     37  N   LIG    1       28.347 -21.571   7.061  0.00  0.00    -0.102 NA
ENDBRANCH  31  32
ENDBRANCH  30  31
ENDBRANCH   5  30
TORSDOF 10
ENDMDL
