MODEL 1
REMARK VINA RESULT:       0.2      0.000      0.000
REMARK  Name = *****
REMARK                            x       y       z     vdW  Elec       q    Type
REMARK                         _______ _______ _______ _____ _____    ______ ____
ROOT
ATOM      1  C   LIG    1       25.391 -13.572   4.171  0.00  0.00    +0.066 C 
ATOM      2  C   LIG    1       25.875 -13.548   2.721  0.00  0.00    +0.045 C 
ATOM      3  C   LIG    1       25.330 -12.437   1.847  0.00  0.00    +0.063 C 
ATOM      4  N   LIG    1       26.591 -14.449   2.148  0.00  0.00    -0.158 NA
ATOM      5  N   LIG    1       27.156 -15.472   2.900  0.00  0.00    -0.149 NA
ATOM      6  C   LIG    1       26.430 -16.258   3.629  0.00  0.00    +0.101 C 
ATOM      7  C   LIG    1       24.981 -16.065   3.926  0.00  0.00    +0.010 A 
ATOM      8  C   LIG    1       24.096 -17.149   3.912  0.00  0.00    +0.059 A 
ATOM      9  C   LIG    1       22.796 -17.021   4.422  0.00  0.00    +0.162 A 
ATOM     10  C   LIG    1       22.370 -15.785   4.932  0.00  0.00    +0.162 A 
ATOM     11  C   LIG    1       23.246 -14.690   4.877  0.00  0.00    +0.054 A 
ATOM     12  C   LIG    1       24.538 -14.809   4.347  0.00  0.00    -0.026 A 
ENDROOT
BRANCH   6  13
ATOM     13  C   LIG    1       27.130 -17.424   4.286  0.00  0.00    +0.006 A 
ATOM     14  C   LIG    1       26.494 -18.648   4.537  0.00  0.00    +0.059 A 
ATOM     15  C   LIG    1       27.201 -19.732   5.091  0.00  0.00    +0.162 A 
ATOM     16  C   LIG    1       28.562 -19.578   5.398  0.00  0.00    +0.162 A 
ATOM     17  C   LIG    1       29.164 -18.322   5.238  0.00  0.00    +0.050 A 
ATOM     18  C   LIG    1       28.459 -17.258   4.682  0.00  0.00    +0.014 A 
BRANCH  15  19
ATOM     19  O   LIG    1       26.422 -20.852   5.246  0.00  0.00    -0.491 OA
ATOM     20  C   LIG    1       25.464 -20.861   6.298  0.00  0.00    +0.277 C 
ENDBRANCH  15  19
BRANCH  16  21
ATOM     21  O   LIG    1       29.280 -20.634   5.895  0.00  0.00    -0.491 OA
ATOM     22  C   LIG    1       28.728 -21.240   7.062  0.00  0.00    +0.277 C 
ENDBRANCH  16  21
ENDBRANCH   6  13
BRANCH   1  24
ATOM     23  C   LIG    1       27.751 -12.737   4.592  0.00  0.00    +0.005 C 
ATOM     24  C   LIG    1       26.501 -13.360   5.206  0.00  0.00    +0.011 C 
ENDBRANCH   1  24
BRANCH   9  25
ATOM     25  O   LIG    1       22.111 -18.209   4.414  0.00  0.00    -0.491 OA
ATOM     26  C   LIG    1       22.856 -19.407   4.573  0.00  0.00    +0.277 C 
ENDBRANCH   9  25
BRANCH  10  27
ATOM     27  O   LIG    1       21.149 -15.686   5.543  0.00  0.00    -0.491 OA
ATOM     28  C   LIG    1       21.128 -14.973   6.777  0.00  0.00    +0.277 C 
ENDBRANCH  10  27
TORSDOF 6
ENDMDL
MODEL 2
REMARK VINA RESULT:       2.5      2.291      6.651
REMARK  Name = *****
REMARK                            x       y       z     vdW  Elec       q    Type
REMARK                         _______ _______ _______ _____ _____    ______ ____
ROOT
ATOM      1  C   LIG    1       23.300 -19.930   5.046  0.00  0.00    +0.066 C 
ATOM      2  C   LIG    1       22.966 -20.157   3.572  0.00  0.00    +0.045 C 
ATOM      3  C   LIG    1       22.417 -21.521   3.208  0.00  0.00    +0.063 C 
ATOM      4  N   LIG    1       23.229 -19.351   2.605  0.00  0.00    -0.158 NA
ATOM      5  N   LIG    1       23.695 -18.069   2.873  0.00  0.00    -0.149 NA
ATOM      6  C   LIG    1       24.770 -17.871   3.566  0.00  0.00    +0.101 C 
ATOM      7  C   LIG    1       25.513 -18.919   4.324  0.00  0.00    +0.010 A 
ATOM      8  C   LIG    1       26.912 -18.958   4.307  0.00  0.00    +0.059 A 
ATOM      9  C   LIG    1       27.619 -19.778   5.199  0.00  0.00    +0.162 A 
ATOM     10  C   LIG    1       26.913 -20.586   6.104  0.00  0.00    +0.162 A 
ATOM     11  C   LIG    1       25.511 -20.586   6.063  0.00  0.00    +0.054 A 
ATOM     12  C   LIG    1       24.803 -19.785   5.157  0.00  0.00    -0.026 A 
ENDROOT
BRANCH   6  13
ATOM     13  C   LIG    1       25.264 -16.448   3.671  0.00  0.00    +0.006 A 
ATOM     14  C   LIG    1       24.407 -15.361   3.899  0.00  0.00    +0.059 A 
ATOM     15  C   LIG    1       24.916 -14.058   4.057  0.00  0.00    +0.162 A 
ATOM     16  C   LIG    1       26.302 -13.849   3.979  0.00  0.00    +0.162 A 
ATOM     17  C   LIG    1       27.142 -14.923   3.651  0.00  0.00    +0.050 A 
ATOM     18  C   LIG    1       26.630 -16.210   3.505  0.00  0.00    +0.014 A 
BRANCH  15  19
ATOM     19  O   LIG    1       23.933 -13.128   4.292  0.00  0.00    -0.491 OA
ATOM     20  C   LIG    1       23.968 -11.914   3.550  0.00  0.00    +0.277 C 
ENDBRANCH  15  19
BRANCH  16  21
ATOM     21  O   LIG    1       26.822 -12.596   4.175  0.00  0.00    -0.491 OA
ATOM     22  C   LIG    1       28.232 -12.556   4.375  0.00  0.00    +0.277 C 
ENDBRANCH  16  21
ENDBRANCH   6  13
BRANCH   1  24
ATOM     23  C   LIG    1       21.401 -18.267   4.782  0.00  0.00    +0.005 C 
ATOM     24  C   LIG    1       22.462 -18.837   5.718  0.00  0.00    +0.011 C 
ENDBRANCH   1  24
BRANCH   9  25
ATOM     25  O   LIG    1       28.976 -19.611   5.102  0.00  0.00    -0.491 OA
ATOM     26  C   LIG    1       29.475 -18.289   4.964  0.00  0.00    +0.277 C 
ENDBRANCH   9  25
BRANCH  10  27
ATOM     27  O   LIG    1       27.594 -21.293   7.059  0.00  0.00    -0.491 OA
ATOM     28  C   LIG    1       29.015 -21.182   7.017  0.00  0.00    +0.277 C 
ENDBRANCH  10  27
TORSDOF 6
ENDMDL
MODEL 3
REMARK VINA RESULT:       2.7      2.466      6.863
REMARK  Name = *****
REMARK                            x       y       z     vdW  Elec       q    Type
REMARK                         _______ _______ _______ _____ _____    ______ ____
ROOT
ATOM      1  C   LIG    1       23.711 -20.079   4.641  0.00  0.00    +0.066 C 
ATOM      2  C   LIG    1       23.582 -20.184   3.121  0.00  0.00    +0.045 C 
ATOM      3  C   LIG    1       23.351 -21.572   2.559  0.00  0.00    +0.063 C 
ATOM      4  N   LIG    1       23.779 -19.234   2.278  0.00  0.00    -0.158 NA
ATOM      5  N   LIG    1       23.955 -17.929   2.727  0.00  0.00    -0.149 NA
ATOM      6  C   LIG    1       24.892 -17.622   3.565  0.00  0.00    +0.101 C 
ATOM      7  C   LIG    1       25.745 -18.599   4.302  0.00  0.00    +0.010 A 
ATOM      8  C   LIG    1       27.119 -18.378   4.455  0.00  0.00    +0.059 A 
ATOM      9  C   LIG    1       27.876 -19.156   5.344  0.00  0.00    +0.162 A 
ATOM     10  C   LIG    1       27.253 -20.182   6.070  0.00  0.00    +0.162 A 
ATOM     11  C   LIG    1       25.890 -20.435   5.855  0.00  0.00    +0.054 A 
ATOM     12  C   LIG    1       25.136 -19.675   4.951  0.00  0.00    -0.026 A 
ENDROOT
BRANCH   6  13
ATOM     13  C   LIG    1       25.085 -16.155   3.869  0.00  0.00    +0.006 A 
ATOM     14  C   LIG    1       26.289 -15.480   3.622  0.00  0.00    +0.059 A 
ATOM     15  C   LIG    1       26.407 -14.097   3.857  0.00  0.00    +0.162 A 
ATOM     16  C   LIG    1       25.300 -13.390   4.351  0.00  0.00    +0.162 A 
ATOM     17  C   LIG    1       24.132 -14.090   4.690  0.00  0.00    +0.050 A 
ATOM     18  C   LIG    1       24.023 -15.456   4.446  0.00  0.00    +0.014 A 
BRANCH  15  19
ATOM     19  O   LIG    1       27.649 -13.607   3.539  0.00  0.00    -0.491 OA
ATOM     20  C   LIG    1       28.387 -12.941   4.557  0.00  0.00    +0.277 C 
ENDBRANCH  15  19
BRANCH  16  21
ATOM     21  O   LIG    1       25.378 -12.036   4.545  0.00  0.00    -0.491 OA
ATOM     22  C   LIG    1       24.284 -11.467   5.260  0.00  0.00    +0.277 C 
ENDBRANCH  16  21
ENDBRANCH   6  13
BRANCH   1  24
ATOM     23  C   LIG    1       21.273 -19.372   4.581  0.00  0.00    +0.005 C 
ATOM     24  C   LIG    1       22.609 -19.247   5.307  0.00  0.00    +0.011 C 
ENDBRANCH   1  24
BRANCH   9  25
ATOM     25  O   LIG    1       29.177 -18.732   5.433  0.00  0.00    -0.491 OA
ATOM     26  C   LIG    1       29.473 -17.682   6.341  0.00  0.00    +0.277 C 
ENDBRANCH   9  25
BRANCH  10  27
ATOM     27  O   LIG    1       27.958 -20.862   7.028  0.00  0.00    -0.491 OA
ATOM     28  C   LIG    1       29.316 -21.153   6.709  0.00  0.00    +0.277 C 
ENDBRANCH  10  27
TORSDOF 6
ENDMDL
MODEL 4
REMARK VINA RESULT:       2.8      1.072      1.828
REMARK  Name = *****
REMARK                            x       y       z     vdW  Elec       q    Type
REMARK                         _______ _______ _______ _____ _____    ______ ____
ROOT
ATOM      1  C   LIG    1       26.050 -13.017   4.077  0.00  0.00    +0.066 C 
ATOM      2  C   LIG    1       26.214 -13.047   2.557  0.00  0.00    +0.045 C 
ATOM      3  C   LIG    1       25.830 -11.784   1.813  0.00  0.00    +0.063 C 
ATOM      4  N   LIG    1       26.519 -14.076   1.849  0.00  0.00    -0.158 NA
ATOM      5  N   LIG    1       26.922 -15.254   2.470  0.00  0.00    -0.149 NA
ATOM      6  C   LIG    1       26.172 -15.851   3.339  0.00  0.00    +0.101 C 
ATOM      7  C   LIG    1       24.926 -15.289   3.937  0.00  0.00    +0.010 A 
ATOM      8  C   LIG    1       23.792 -16.090   4.116  0.00  0.00    +0.059 A 
ATOM      9  C   LIG    1       22.712 -15.642   4.889  0.00  0.00    +0.162 A 
ATOM     10  C   LIG    1       22.759 -14.366   5.472  0.00  0.00    +0.162 A 
ATOM     11  C   LIG    1       23.873 -13.549   5.227  0.00  0.00    +0.054 A 
ATOM     12  C   LIG    1       24.943 -13.985   4.436  0.00  0.00    -0.026 A 
ENDROOT
BRANCH   6  13
ATOM     13  C   LIG    1       26.642 -17.197   3.839  0.00  0.00    +0.006 A 
ATOM     14  C   LIG    1       27.865 -17.376   4.501  0.00  0.00    +0.059 A 
ATOM     15  C   LIG    1       28.236 -18.635   5.010  0.00  0.00    +0.162 A 
ATOM     16  C   LIG    1       27.366 -19.724   4.846  0.00  0.00    +0.162 A 
ATOM     17  C   LIG    1       26.192 -19.559   4.096  0.00  0.00    +0.050 A 
ATOM     18  C   LIG    1       25.831 -18.309   3.603  0.00  0.00    +0.014 A 
BRANCH  15  19
ATOM     19  O   LIG    1       29.455 -18.616   5.643  0.00  0.00    -0.491 OA
ATOM     20  C   LIG    1       29.474 -18.713   7.062  0.00  0.00    +0.277 C 
ENDBRANCH  15  19
BRANCH  16  21
ATOM     21  O   LIG    1       27.687 -20.948   5.373  0.00  0.00    -0.491 OA
ATOM     22  C   LIG    1       27.163 -21.196   6.675  0.00  0.00    +0.277 C 
ENDBRANCH  16  21
ENDBRANCH   6  13
BRANCH   1  24
ATOM     23  C   LIG    1       28.539 -12.520   4.129  0.00  0.00    +0.005 C 
ATOM     24  C   LIG    1       27.364 -13.171   4.851  0.00  0.00    +0.011 C 
ENDBRANCH   1  24
BRANCH   9  25
ATOM     25  O   LIG    1       21.738 -16.597   5.032  0.00  0.00    -0.491 OA
ATOM     26  C   LIG    1       22.042 -17.922   4.624  0.00  0.00    +0.277 C 
ENDBRANCH   9  25
BRANCH  10  27
ATOM     27  O   LIG    1       21.765 -13.972   6.328  0.00  0.00    -0.491 OA
ATOM     28  C   LIG    1       21.000 -15.022   6.916  0.00  0.00    +0.277 C 
ENDBRANCH  10  27
TORSDOF 6
ENDMDL
