MODEL 1
REMARK VINA RESULT:      -8.6      0.000      0.000
REMARK  Name = *****
REMARK                            x       y       z     vdW  Elec       q    Type
REMARK                         _______ _______ _______ _____ _____    ______ ____
ROOT
ATOM      1  C   LIG    1       24.390 -20.440   4.859  0.00  0.00    +0.037 A 
ATOM      2  C   LIG    1       25.386 -20.370   5.819  0.00  0.00    +0.070 A 
ATOM      3  C   LIG    1       26.802 -20.017   5.697  0.00  0.00    +0.256 C 
ATOM      4  N   LIG    1       27.338 -20.081   6.956  0.00  0.00    -0.222 N 
ATOM      5  C   LIG    1       26.421 -20.531   7.865  0.00  0.00    +0.255 C 
ATOM      6  O   LIG    1       26.575 -20.793   9.043  0.00  0.00    -0.270 OA
ATOM      7  O   LIG    1       27.362 -19.749   4.650  0.00  0.00    -0.269 OA
ATOM      8  C   LIG    1       25.160 -20.692   7.147  0.00  0.00    +0.051 A 
ATOM      9  C   LIG    1       23.920 -21.085   7.608  0.00  0.00    +0.014 A 
ATOM     10  C   LIG    1       22.882 -21.124   6.676  0.00  0.00    +0.003 A 
ATOM     11  C   LIG    1       23.112 -20.785   5.325  0.00  0.00    +0.023 A 
ENDROOT
BRANCH   4  12
ATOM     12  C   LIG    1       28.760 -19.920   7.219  0.00  0.00    +0.171 C 
ATOM     13  C   LIG    1       29.369 -21.283   7.563  0.00  0.00    +0.240 C 
ATOM     14  O   LIG    1       28.904 -22.355   7.184  0.00  0.00    -0.273 OA
ATOM     15  N   LIG    1       30.553 -21.246   8.267  0.00  0.00    -0.255 N 
ATOM     16  H   LIG    1       30.976 -22.143   8.469  0.00  0.00    +0.158 HD
ATOM     17  C   LIG    1       31.209 -20.146   8.760  0.00  0.00    +0.219 C 
ATOM     18  O   LIG    1       32.281 -20.260   9.349  0.00  0.00    -0.275 OA
ATOM     19  C   LIG    1       30.591 -18.798   8.467  0.00  0.00    +0.098 C 
ATOM     20  C   LIG    1       29.081 -18.903   8.311  0.00  0.00    +0.042 C 
ENDBRANCH   4  12
BRANCH   1  21
ATOM     21  N   LIG    1       24.563 -19.967   3.556  0.00  0.00    -0.357 N 
ATOM     22  H   LIG    1       23.983 -19.151   3.342  0.00  0.00    +0.142 HD
ATOM     23  H   LIG    1       25.528 -19.841   3.269  0.00  0.00    +0.142 HD
ENDBRANCH   1  21
TORSDOF 2
ENDMDL
MODEL 2
REMARK VINA RESULT:      -8.0      2.414      5.831
REMARK  Name = *****
REMARK                            x       y       z     vdW  Elec       q    Type
REMARK                         _______ _______ _______ _____ _____    ______ ____
ROOT
ATOM      1  C   LIG    1       29.414 -18.733   6.232  0.00  0.00    +0.037 A 
ATOM      2  C   LIG    1       28.521 -19.741   6.558  0.00  0.00    +0.070 A 
ATOM      3  C   LIG    1       27.335 -20.227   5.851  0.00  0.00    +0.256 C 
ATOM      4  N   LIG    1       26.824 -21.258   6.594  0.00  0.00    -0.222 N 
ATOM      5  C   LIG    1       27.516 -21.422   7.762  0.00  0.00    +0.255 C 
ATOM      6  O   LIG    1       27.286 -22.173   8.691  0.00  0.00    -0.270 OA
ATOM      7  O   LIG    1       26.906 -19.757   4.813  0.00  0.00    -0.269 OA
ATOM      8  C   LIG    1       28.623 -20.469   7.732  0.00  0.00    +0.051 A 
ATOM      9  C   LIG    1       29.634 -20.255   8.647  0.00  0.00    +0.014 A 
ATOM     10  C   LIG    1       30.577 -19.276   8.329  0.00  0.00    +0.003 A 
ATOM     11  C   LIG    1       30.478 -18.541   7.128  0.00  0.00    +0.023 A 
ENDROOT
BRANCH   4  12
ATOM     12  C   LIG    1       25.564 -21.913   6.276  0.00  0.00    +0.171 C 
ATOM     13  C   LIG    1       24.481 -21.425   7.244  0.00  0.00    +0.240 C 
ATOM     14  O   LIG    1       24.512 -20.337   7.814  0.00  0.00    -0.273 OA
ATOM     15  N   LIG    1       23.388 -22.254   7.382  0.00  0.00    -0.255 N 
ATOM     16  H   LIG    1       22.656 -21.921   7.995  0.00  0.00    +0.158 HD
ATOM     17  C   LIG    1       23.189 -23.490   6.820  0.00  0.00    +0.219 C 
ATOM     18  O   LIG    1       22.145 -24.109   7.009  0.00  0.00    -0.275 OA
ATOM     19  C   LIG    1       24.274 -24.001   5.901  0.00  0.00    +0.098 C 
ATOM     20  C   LIG    1       25.635 -23.437   6.282  0.00  0.00    +0.042 C 
ENDBRANCH   4  12
BRANCH   1  21
ATOM     21  N   LIG    1       29.417 -18.102   4.986  0.00  0.00    -0.357 N 
ATOM     22  H   LIG    1       29.779 -17.144   5.019  0.00  0.00    +0.142 HD
ATOM     23  H   LIG    1       29.827 -18.644   4.232  0.00  0.00    +0.142 HD
ENDBRANCH   1  21
TORSDOF 2
ENDMDL
MODEL 3
REMARK VINA RESULT:      -7.8      2.338      6.076
REMARK  Name = *****
REMARK                            x       y       z     vdW  Elec       q    Type
REMARK                         _______ _______ _______ _____ _____    ______ ____
ROOT
ATOM      1  C   LIG    1       30.141 -20.180   7.608  0.00  0.00    +0.037 A 
ATOM      2  C   LIG    1       28.807 -20.385   7.294  0.00  0.00    +0.070 A 
ATOM      3  C   LIG    1       27.791 -21.209   7.951  0.00  0.00    +0.256 C 
ATOM      4  N   LIG    1       26.626 -21.039   7.251  0.00  0.00    -0.222 N 
ATOM      5  C   LIG    1       26.819 -20.253   6.148  0.00  0.00    +0.255 C 
ATOM      6  O   LIG    1       26.035 -19.970   5.261  0.00  0.00    -0.270 OA
ATOM      7  O   LIG    1       27.994 -21.916   8.921  0.00  0.00    -0.269 OA
ATOM      8  C   LIG    1       28.210 -19.809   6.185  0.00  0.00    +0.051 A 
ATOM      9  C   LIG    1       28.898 -18.973   5.329  0.00  0.00    +0.014 A 
ATOM     10  C   LIG    1       30.233 -18.709   5.640  0.00  0.00    +0.003 A 
ATOM     11  C   LIG    1       30.838 -19.289   6.776  0.00  0.00    +0.023 A 
ENDROOT
BRANCH   4  12
ATOM     12  C   LIG    1       25.419 -21.800   7.528  0.00  0.00    +0.171 C 
ATOM     13  C   LIG    1       25.501 -23.157   6.819  0.00  0.00    +0.240 C 
ATOM     14  O   LIG    1       26.557 -23.712   6.526  0.00  0.00    -0.273 OA
ATOM     15  N   LIG    1       24.296 -23.787   6.597  0.00  0.00    -0.255 N 
ATOM     16  H   LIG    1       24.347 -24.697   6.158  0.00  0.00    +0.158 HD
ATOM     17  C   LIG    1       23.034 -23.317   6.863  0.00  0.00    +0.219 C 
ATOM     18  O   LIG    1       22.043 -24.005   6.638  0.00  0.00    -0.275 OA
ATOM     19  C   LIG    1       22.940 -21.959   7.520  0.00  0.00    +0.098 C 
ATOM     20  C   LIG    1       24.127 -21.081   7.150  0.00  0.00    +0.042 C 
ENDBRANCH   4  12
BRANCH   1  21
ATOM     21  N   LIG    1       30.712 -20.623   8.803  0.00  0.00    -0.357 N 
ATOM     22  H   LIG    1       31.189 -21.524   8.713  0.00  0.00    +0.142 HD
ATOM     23  H   LIG    1       31.276 -19.934   9.290  0.00  0.00    +0.142 HD
ENDBRANCH   1  21
TORSDOF 2
ENDMDL
MODEL 4
REMARK VINA RESULT:      -7.7      2.419      5.668
REMARK  Name = *****
REMARK                            x       y       z     vdW  Elec       q    Type
REMARK                         _______ _______ _______ _____ _____    ______ ____
ROOT
ATOM      1  C   LIG    1       29.119 -18.870   5.755  0.00  0.00    +0.037 A 
ATOM      2  C   LIG    1       28.427 -19.837   6.467  0.00  0.00    +0.070 A 
ATOM      3  C   LIG    1       27.048 -20.310   6.337  0.00  0.00    +0.256 C 
ATOM      4  N   LIG    1       26.876 -21.297   7.270  0.00  0.00    -0.222 N 
ATOM      5  C   LIG    1       27.988 -21.441   8.053  0.00  0.00    +0.255 C 
ATOM      6  O   LIG    1       28.153 -22.152   9.027  0.00  0.00    -0.270 OA
ATOM      7  O   LIG    1       26.234 -19.864   5.549  0.00  0.00    -0.269 OA
ATOM      8  C   LIG    1       28.996 -20.526   7.525  0.00  0.00    +0.051 A 
ATOM      9  C   LIG    1       30.298 -20.311   7.929  0.00  0.00    +0.014 A 
ATOM     10  C   LIG    1       31.038 -19.375   7.205  0.00  0.00    +0.003 A 
ATOM     11  C   LIG    1       30.460 -18.680   6.121  0.00  0.00    +0.023 A 
ENDROOT
BRANCH   4  12
ATOM     12  C   LIG    1       25.589 -21.922   7.531  0.00  0.00    +0.171 C 
ATOM     13  C   LIG    1       25.541 -23.291   6.842  0.00  0.00    +0.240 C 
ATOM     14  O   LIG    1       26.538 -23.959   6.581  0.00  0.00    -0.273 OA
ATOM     15  N   LIG    1       24.281 -23.794   6.603  0.00  0.00    -0.255 N 
ATOM     16  H   LIG    1       24.245 -24.711   6.177  0.00  0.00    +0.158 HD
ATOM     17  C   LIG    1       23.071 -23.188   6.834  0.00  0.00    +0.219 C 
ATOM     18  O   LIG    1       22.017 -23.771   6.596  0.00  0.00    -0.275 OA
ATOM     19  C   LIG    1       23.108 -21.818   7.470  0.00  0.00    +0.098 C 
ATOM     20  C   LIG    1       24.389 -21.076   7.115  0.00  0.00    +0.042 C 
ENDBRANCH   4  12
BRANCH   1  21
ATOM     21  N   LIG    1       28.614 -18.284   4.592  0.00  0.00    -0.357 N 
ATOM     22  H   LIG    1       29.334 -18.100   3.888  0.00  0.00    +0.142 HD
ATOM     23  H   LIG    1       27.798 -18.741   4.200  0.00  0.00    +0.142 HD
ENDBRANCH   1  21
TORSDOF 2
ENDMDL
MODEL 5
REMARK VINA RESULT:      -7.4      2.066      3.081
REMARK  Name = *****
REMARK                            x       y       z     vdW  Elec       q    Type
REMARK                         _______ _______ _______ _____ _____    ______ ____
ROOT
ATOM      1  C   LIG    1       26.074 -21.607   6.901  0.00  0.00    +0.037 A 
ATOM      2  C   LIG    1       27.097 -20.689   6.733  0.00  0.00    +0.070 A 
ATOM      3  C   LIG    1       28.186 -20.301   7.632  0.00  0.00    +0.256 C 
ATOM      4  N   LIG    1       28.936 -19.366   6.969  0.00  0.00    -0.222 N 
ATOM      5  C   LIG    1       28.379 -19.047   5.761  0.00  0.00    +0.255 C 
ATOM      6  O   LIG    1       28.724 -18.200   4.959  0.00  0.00    -0.270 OA
ATOM      7  O   LIG    1       28.341 -20.735   8.759  0.00  0.00    -0.269 OA
ATOM      8  C   LIG    1       27.215 -19.911   5.593  0.00  0.00    +0.051 A 
ATOM      9  C   LIG    1       26.333 -20.016   4.536  0.00  0.00    +0.014 A 
ATOM     10  C   LIG    1       25.315 -20.964   4.654  0.00  0.00    +0.003 A 
ATOM     11  C   LIG    1       25.202 -21.762   5.813  0.00  0.00    +0.023 A 
ENDROOT
BRANCH   4  12
ATOM     12  C   LIG    1       30.036 -18.648   7.594  0.00  0.00    +0.171 C 
ATOM     13  C   LIG    1       31.082 -19.654   8.087  0.00  0.00    +0.240 C 
ATOM     14  O   LIG    1       31.239 -20.771   7.600  0.00  0.00    -0.273 OA
ATOM     15  N   LIG    1       31.928 -19.198   9.075  0.00  0.00    -0.255 N 
ATOM     16  H   LIG    1       32.641 -19.847   9.381  0.00  0.00    +0.158 HD
ATOM     17  C   LIG    1       31.897 -17.988   9.722  0.00  0.00    +0.219 C 
ATOM     18  O   LIG    1       32.738 -17.704  10.570  0.00  0.00    -0.275 OA
ATOM     19  C   LIG    1       30.838 -17.006   9.276  0.00  0.00    +0.098 C 
ATOM     20  C   LIG    1       29.611 -17.724   8.732  0.00  0.00    +0.042 C 
ENDBRANCH   4  12
BRANCH   1  21
ATOM     21  N   LIG    1       26.034 -22.505   7.970  0.00  0.00    -0.357 N 
ATOM     22  H   LIG    1       25.463 -23.334   7.781  0.00  0.00    +0.142 HD
ATOM     23  H   LIG    1       26.938 -22.742   8.367  0.00  0.00    +0.142 HD
ENDBRANCH   1  21
TORSDOF 2
ENDMDL
MODEL 6
REMARK VINA RESULT:      -7.3      1.032      2.299
REMARK  Name = *****
REMARK                            x       y       z     vdW  Elec       q    Type
REMARK                         _______ _______ _______ _____ _____    ______ ____
ROOT
ATOM      1  C   LIG    1       23.986 -21.009   7.075  0.00  0.00    +0.037 A 
ATOM      2  C   LIG    1       25.254 -20.624   6.672  0.00  0.00    +0.070 A 
ATOM      3  C   LIG    1       26.519 -20.592   7.409  0.00  0.00    +0.256 C 
ATOM      4  N   LIG    1       27.477 -20.150   6.536  0.00  0.00    -0.222 N 
ATOM      5  C   LIG    1       26.931 -19.806   5.330  0.00  0.00    +0.255 C 
ATOM      6  O   LIG    1       27.467 -19.297   4.363  0.00  0.00    -0.270 OA
ATOM      7  O   LIG    1       26.644 -20.888   8.583  0.00  0.00    -0.269 OA
ATOM      8  C   LIG    1       25.510 -20.133   5.402  0.00  0.00    +0.051 A 
ATOM      9  C   LIG    1       24.523 -20.016   4.445  0.00  0.00    +0.014 A 
ATOM     10  C   LIG    1       23.241 -20.437   4.804  0.00  0.00    +0.003 A 
ATOM     11  C   LIG    1       22.983 -20.946   6.095  0.00  0.00    +0.023 A 
ENDROOT
BRANCH   4  12
ATOM     12  C   LIG    1       28.844 -19.865   6.942  0.00  0.00    +0.171 C 
ATOM     13  C   LIG    1       29.522 -21.165   7.389  0.00  0.00    +0.240 C 
ATOM     14  O   LIG    1       29.189 -22.280   6.995  0.00  0.00    -0.273 OA
ATOM     15  N   LIG    1       30.617 -21.013   8.212  0.00  0.00    -0.255 N 
ATOM     16  H   LIG    1       31.087 -21.867   8.484  0.00  0.00    +0.158 HD
ATOM     17  C   LIG    1       31.124 -19.852   8.739  0.00  0.00    +0.219 C 
ATOM     18  O   LIG    1       32.132 -19.864   9.441  0.00  0.00    -0.275 OA
ATOM     19  C   LIG    1       30.434 -18.568   8.342  0.00  0.00    +0.098 C 
ATOM     20  C   LIG    1       28.962 -18.802   8.032  0.00  0.00    +0.042 C 
ENDBRANCH   4  12
BRANCH   1  21
ATOM     21  N   LIG    1       23.744 -21.651   8.292  0.00  0.00    -0.357 N 
ATOM     22  H   LIG    1       24.572 -22.115   8.676  0.00  0.00    +0.142 HD
ATOM     23  H   LIG    1       23.259 -21.090   8.985  0.00  0.00    +0.142 HD
ENDBRANCH   1  21
TORSDOF 2
ENDMDL
MODEL 7
REMARK VINA RESULT:      -6.6      1.627      1.955
REMARK  Name = *****
REMARK                            x       y       z     vdW  Elec       q    Type
REMARK                         _______ _______ _______ _____ _____    ______ ____
ROOT
ATOM      1  C   LIG    1       23.317 -20.410   4.675  0.00  0.00    +0.037 A 
ATOM      2  C   LIG    1       24.448 -20.694   5.423  0.00  0.00    +0.070 A 
ATOM      3  C   LIG    1       25.778 -20.082   5.407  0.00  0.00    +0.256 C 
ATOM      4  N   LIG    1       26.523 -20.722   6.362  0.00  0.00    -0.222 N 
ATOM      5  C   LIG    1       25.825 -21.752   6.930  0.00  0.00    +0.255 C 
ATOM      6  O   LIG    1       26.202 -22.579   7.738  0.00  0.00    -0.270 OA
ATOM      7  O   LIG    1       26.121 -19.191   4.651  0.00  0.00    -0.269 OA
ATOM      8  C   LIG    1       24.485 -21.722   6.351  0.00  0.00    +0.051 A 
ATOM      9  C   LIG    1       23.388 -22.520   6.609  0.00  0.00    +0.014 A 
ATOM     10  C   LIG    1       22.218 -22.233   5.905  0.00  0.00    +0.003 A 
ATOM     11  C   LIG    1       22.179 -21.179   4.967  0.00  0.00    +0.023 A 
ENDROOT
BRANCH   4  12
ATOM     12  C   LIG    1       27.943 -20.474   6.553  0.00  0.00    +0.171 C 
ATOM     13  C   LIG    1       28.173 -19.896   7.954  0.00  0.00    +0.240 C 
ATOM     14  O   LIG    1       27.421 -20.093   8.907  0.00  0.00    -0.273 OA
ATOM     15  N   LIG    1       29.347 -19.196   8.125  0.00  0.00    -0.255 N 
ATOM     16  H   LIG    1       29.518 -18.840   9.057  0.00  0.00    +0.158 HD
ATOM     17  C   LIG    1       30.293 -18.889   7.180  0.00  0.00    +0.219 C 
ATOM     18  O   LIG    1       31.314 -18.277   7.483  0.00  0.00    -0.275 OA
ATOM     19  C   LIG    1       30.053 -19.414   5.783  0.00  0.00    +0.098 C 
ATOM     20  C   LIG    1       28.566 -19.567   5.496  0.00  0.00    +0.042 C 
ENDBRANCH   4  12
BRANCH   1  21
ATOM     21  N   LIG    1       23.217 -19.283   3.856  0.00  0.00    -0.357 N 
ATOM     22  H   LIG    1       22.270 -18.895   3.818  0.00  0.00    +0.142 HD
ATOM     23  H   LIG    1       23.921 -18.570   4.019  0.00  0.00    +0.142 HD
ENDBRANCH   1  21
TORSDOF 2
ENDMDL
MODEL 8
REMARK VINA RESULT:      -6.6      1.752      2.686
REMARK  Name = *****
REMARK                            x       y       z     vdW  Elec       q    Type
REMARK                         _______ _______ _______ _____ _____    ______ ____
ROOT
ATOM      1  C   LIG    1       24.708 -21.769   5.529  0.00  0.00    +0.037 A 
ATOM      2  C   LIG    1       25.907 -21.088   5.654  0.00  0.00    +0.070 A 
ATOM      3  C   LIG    1       27.049 -21.326   6.540  0.00  0.00    +0.256 C 
ATOM      4  N   LIG    1       27.989 -20.375   6.242  0.00  0.00    -0.222 N 
ATOM      5  C   LIG    1       27.522 -19.489   5.310  0.00  0.00    +0.255 C 
ATOM      6  O   LIG    1       28.047 -18.478   4.883  0.00  0.00    -0.270 OA
ATOM      7  O   LIG    1       27.100 -22.201   7.385  0.00  0.00    -0.269 OA
ATOM      8  C   LIG    1       26.198 -19.957   4.910  0.00  0.00    +0.051 A 
ATOM      9  C   LIG    1       25.321 -19.445   3.976  0.00  0.00    +0.014 A 
ATOM     10  C   LIG    1       24.120 -20.132   3.792  0.00  0.00    +0.003 A 
ATOM     11  C   LIG    1       23.829 -21.290   4.545  0.00  0.00    +0.023 A 
ENDROOT
BRANCH   4  12
ATOM     12  C   LIG    1       29.215 -20.209   7.006  0.00  0.00    +0.171 C 
ATOM     13  C   LIG    1       28.893 -19.526   8.340  0.00  0.00    +0.240 C 
ATOM     14  O   LIG    1       27.796 -19.585   8.891  0.00  0.00    -0.273 OA
ATOM     15  N   LIG    1       29.951 -18.895   8.957  0.00  0.00    -0.255 N 
ATOM     16  H   LIG    1       29.750 -18.470   9.853  0.00  0.00    +0.158 HD
ATOM     17  C   LIG    1       31.232 -18.739   8.489  0.00  0.00    +0.219 C 
ATOM     18  O   LIG    1       32.087 -18.174   9.165  0.00  0.00    -0.275 OA
ATOM     19  C   LIG    1       31.548 -19.368   7.152  0.00  0.00    +0.098 C 
ATOM     20  C   LIG    1       30.311 -19.444   6.269  0.00  0.00    +0.042 C 
ENDBRANCH   4  12
BRANCH   1  21
ATOM     21  N   LIG    1       24.467 -22.995   6.154  0.00  0.00    -0.357 N 
ATOM     22  H   LIG    1       24.547 -23.795   5.520  0.00  0.00    +0.142 HD
ATOM     23  H   LIG    1       24.971 -23.140   7.023  0.00  0.00    +0.142 HD
ENDBRANCH   1  21
TORSDOF 2
ENDMDL
MODEL 9
REMARK VINA RESULT:      -6.3      2.337      2.875
REMARK  Name = *****
REMARK                            x       y       z     vdW  Elec       q    Type
REMARK                         _______ _______ _______ _____ _____    ______ ____
ROOT
ATOM      1  C   LIG    1       24.751 -24.413   6.372  0.00  0.00    +0.037 A 
ATOM      2  C   LIG    1       25.282 -23.204   6.790  0.00  0.00    +0.070 A 
ATOM      3  C   LIG    1       26.670 -22.739   6.839  0.00  0.00    +0.256 C 
ATOM      4  N   LIG    1       26.643 -21.455   7.313  0.00  0.00    -0.222 N 
ATOM      5  C   LIG    1       25.375 -21.079   7.662  0.00  0.00    +0.255 C 
ATOM      6  O   LIG    1       24.999 -20.052   8.195  0.00  0.00    -0.270 OA
ATOM      7  O   LIG    1       27.636 -23.412   6.530  0.00  0.00    -0.269 OA
ATOM      8  C   LIG    1       24.494 -22.186   7.304  0.00  0.00    +0.051 A 
ATOM      9  C   LIG    1       23.123 -22.301   7.413  0.00  0.00    +0.014 A 
ATOM     10  C   LIG    1       22.549 -23.490   6.959  0.00  0.00    +0.003 A 
ATOM     11  C   LIG    1       23.353 -24.522   6.427  0.00  0.00    +0.023 A 
ENDROOT
BRANCH   4  12
ATOM     12  C   LIG    1       27.848 -20.702   7.623  0.00  0.00    +0.171 C 
ATOM     13  C   LIG    1       28.328 -19.972   6.362  0.00  0.00    +0.240 C 
ATOM     14  O   LIG    1       27.588 -19.647   5.437  0.00  0.00    -0.273 OA
ATOM     15  N   LIG    1       29.656 -19.607   6.354  0.00  0.00    -0.255 N 
ATOM     16  H   LIG    1       29.970 -19.097   5.539  0.00  0.00    +0.158 HD
ATOM     17  C   LIG    1       30.614 -19.883   7.298  0.00  0.00    +0.219 C 
ATOM     18  O   LIG    1       31.763 -19.466   7.173  0.00  0.00    -0.275 OA
ATOM     19  C   LIG    1       30.162 -20.643   8.523  0.00  0.00    +0.098 C 
ATOM     20  C   LIG    1       28.977 -21.545   8.210  0.00  0.00    +0.042 C 
ENDBRANCH   4  12
BRANCH   1  21
ATOM     21  N   LIG    1       25.509 -25.381   5.709  0.00  0.00    -0.357 N 
ATOM     22  H   LIG    1       26.478 -25.093   5.546  0.00  0.00    +0.142 HD
ATOM     23  H   LIG    1       25.443 -26.317   6.096  0.00  0.00    +0.142 HD
ENDBRANCH   1  21
TORSDOF 2
ENDMDL
