MODEL 1
REMARK VINA RESULT:      -6.7      0.000      0.000
REMARK  Name = *****
REMARK                            x       y       z     vdW  Elec       q    Type
REMARK                         _______ _______ _______ _____ _____    ______ ____
ROOT
ATOM      1  C   LIG    1       22.958 -23.248   6.837  0.00  0.00    +0.027 C 
ATOM      2  C   LIG    1       24.124 -22.607   6.060  0.00  0.00    +0.086 C 
ATOM      3  N   LIG    1       24.250 -21.137   6.266  0.00  0.00    -0.298 NA
ATOM      4  C   LIG    1       23.046 -20.386   5.933  0.00  0.00    +0.105 C 
ATOM      5  C   LIG    1       24.715 -20.835   7.633  0.00  0.00    +0.112 C 
ATOM      6  C   LIG    1       26.002 -21.603   7.975  0.00  0.00    +0.176 C 
ATOM      7  O   LIG    1       25.850 -23.014   7.778  0.00  0.00    -0.369 OA
ATOM      8  C   LIG    1       25.494 -23.285   6.405  0.00  0.00    +0.165 C 
ENDROOT
BRANCH   8   9
ATOM      9  C   LIG    1       25.526 -24.780   6.127  0.00  0.00    -0.017 A 
ATOM     10  C   LIG    1       25.836 -25.716   7.126  0.00  0.00    +0.006 A 
ATOM     11  C   LIG    1       25.842 -27.083   6.845  0.00  0.00    +0.000 A 
ATOM     12  C   LIG    1       25.540 -27.535   5.563  0.00  0.00    +0.000 A 
ATOM     13  C   LIG    1       25.231 -26.620   4.560  0.00  0.00    +0.000 A 
ATOM     14  C   LIG    1       25.224 -25.252   4.838  0.00  0.00    +0.006 A 
ENDBRANCH   8   9
TORSDOF 1
ENDMDL
MODEL 2
REMARK VINA RESULT:      -6.5      2.268      5.481
REMARK  Name = *****
REMARK                            x       y       z     vdW  Elec       q    Type
REMARK                         _______ _______ _______ _____ _____    ______ ____
ROOT
ATOM      1  C   LIG    1       25.269 -20.511   7.827  0.00  0.00    +0.027 C 
ATOM      2  C   LIG    1       26.020 -21.126   6.630  0.00  0.00    +0.086 C 
ATOM      3  N   LIG    1       26.930 -22.246   7.001  0.00  0.00    -0.298 NA
ATOM      4  C   LIG    1       27.930 -21.892   8.001  0.00  0.00    +0.105 C 
ATOM      5  C   LIG    1       26.160 -23.438   7.404  0.00  0.00    +0.112 C 
ATOM      6  C   LIG    1       25.127 -23.832   6.336  0.00  0.00    +0.176 C 
ATOM      7  O   LIG    1       24.259 -22.741   6.006  0.00  0.00    -0.369 OA
ATOM      8  C   LIG    1       25.033 -21.624   5.519  0.00  0.00    +0.165 C 
ENDROOT
BRANCH   8   9
ATOM      9  C   LIG    1       24.122 -20.535   4.976  0.00  0.00    -0.017 A 
ATOM     10  C   LIG    1       22.765 -20.457   5.326  0.00  0.00    +0.006 A 
ATOM     11  C   LIG    1       21.956 -19.437   4.823  0.00  0.00    +0.000 A 
ATOM     12  C   LIG    1       22.490 -18.479   3.964  0.00  0.00    +0.000 A 
ATOM     13  C   LIG    1       23.834 -18.542   3.606  0.00  0.00    +0.000 A 
ATOM     14  C   LIG    1       24.645 -19.562   4.107  0.00  0.00    +0.006 A 
ENDBRANCH   8   9
TORSDOF 1
ENDMDL
MODEL 3
REMARK VINA RESULT:      -6.4      3.137      5.448
REMARK  Name = *****
REMARK                            x       y       z     vdW  Elec       q    Type
REMARK                         _______ _______ _______ _____ _____    ______ ____
ROOT
ATOM      1  C   LIG    1       25.536 -20.596   8.033  0.00  0.00    +0.027 C 
ATOM      2  C   LIG    1       25.870 -21.578   6.893  0.00  0.00    +0.086 C 
ATOM      3  N   LIG    1       24.673 -22.091   6.169  0.00  0.00    -0.298 NA
ATOM      4  C   LIG    1       23.694 -22.744   7.028  0.00  0.00    +0.105 C 
ATOM      5  C   LIG    1       24.055 -21.026   5.356  0.00  0.00    +0.112 C 
ATOM      6  C   LIG    1       25.081 -20.357   4.426  0.00  0.00    +0.176 C 
ATOM      7  O   LIG    1       26.215 -19.865   5.149  0.00  0.00    -0.369 OA
ATOM      8  C   LIG    1       26.859 -20.948   5.854  0.00  0.00    +0.165 C 
ENDROOT
BRANCH   8   9
ATOM      9  C   LIG    1       28.175 -20.488   6.461  0.00  0.00    -0.017 A 
ATOM     10  C   LIG    1       28.823 -21.216   7.470  0.00  0.00    +0.006 A 
ATOM     11  C   LIG    1       30.039 -20.777   7.998  0.00  0.00    +0.000 A 
ATOM     12  C   LIG    1       30.624 -19.604   7.526  0.00  0.00    +0.000 A 
ATOM     13  C   LIG    1       29.993 -18.869   6.525  0.00  0.00    +0.000 A 
ATOM     14  C   LIG    1       28.778 -19.307   5.996  0.00  0.00    +0.006 A 
ENDBRANCH   8   9
TORSDOF 1
ENDMDL
MODEL 4
REMARK VINA RESULT:      -6.3      2.504      5.114
REMARK  Name = *****
REMARK                            x       y       z     vdW  Elec       q    Type
REMARK                         _______ _______ _______ _____ _____    ______ ____
ROOT
ATOM      1  C   LIG    1       26.086 -23.159   7.807  0.00  0.00    +0.027 C 
ATOM      2  C   LIG    1       25.541 -22.672   6.450  0.00  0.00    +0.086 C 
ATOM      3  N   LIG    1       24.188 -23.202   6.118  0.00  0.00    -0.298 NA
ATOM      4  C   LIG    1       24.104 -24.657   6.120  0.00  0.00    +0.105 C 
ATOM      5  C   LIG    1       23.160 -22.600   6.988  0.00  0.00    +0.112 C 
ATOM      6  C   LIG    1       23.227 -21.064   6.963  0.00  0.00    +0.176 C 
ATOM      7  O   LIG    1       24.534 -20.582   7.295  0.00  0.00    -0.369 OA
ATOM      8  C   LIG    1       25.505 -21.108   6.364  0.00  0.00    +0.165 C 
ENDROOT
BRANCH   8   9
ATOM      9  C   LIG    1       26.861 -20.452   6.574  0.00  0.00    -0.017 A 
ATOM     10  C   LIG    1       27.459 -20.370   7.841  0.00  0.00    +0.006 A 
ATOM     11  C   LIG    1       28.712 -19.776   8.001  0.00  0.00    +0.000 A 
ATOM     12  C   LIG    1       29.385 -19.253   6.899  0.00  0.00    +0.000 A 
ATOM     13  C   LIG    1       28.805 -19.325   5.635  0.00  0.00    +0.000 A 
ATOM     14  C   LIG    1       27.552 -19.920   5.473  0.00  0.00    +0.006 A 
ENDBRANCH   8   9
TORSDOF 1
ENDMDL
MODEL 5
REMARK VINA RESULT:      -6.3      4.502      6.490
REMARK  Name = *****
REMARK                            x       y       z     vdW  Elec       q    Type
REMARK                         _______ _______ _______ _____ _____    ______ ____
ROOT
ATOM      1  C   LIG    1       29.219 -18.563   8.764  0.00  0.00    +0.027 C 
ATOM      2  C   LIG    1       29.904 -19.428   7.689  0.00  0.00    +0.086 C 
ATOM      3  N   LIG    1       31.367 -19.612   7.906  0.00  0.00    -0.298 NA
ATOM      4  C   LIG    1       32.115 -18.365   7.996  0.00  0.00    +0.105 C 
ATOM      5  C   LIG    1       31.621 -20.480   9.071  0.00  0.00    +0.112 C 
ATOM      6  C   LIG    1       30.857 -21.810   8.963  0.00  0.00    +0.176 C 
ATOM      7  O   LIG    1       29.453 -21.605   8.765  0.00  0.00    -0.369 OA
ATOM      8  C   LIG    1       29.232 -20.838   7.562  0.00  0.00    +0.165 C 
ENDROOT
BRANCH   8   9
ATOM      9  C   LIG    1       27.750 -20.781   7.226  0.00  0.00    -0.017 A 
ATOM     10  C   LIG    1       27.287 -20.369   5.967  0.00  0.00    +0.006 A 
ATOM     11  C   LIG    1       25.921 -20.342   5.682  0.00  0.00    +0.000 A 
ATOM     12  C   LIG    1       24.997 -20.725   6.651  0.00  0.00    +0.000 A 
ATOM     13  C   LIG    1       25.438 -21.135   7.906  0.00  0.00    +0.000 A 
ATOM     14  C   LIG    1       26.804 -21.164   8.193  0.00  0.00    +0.006 A 
ENDBRANCH   8   9
TORSDOF 1
ENDMDL
MODEL 6
REMARK VINA RESULT:      -6.2      1.925      5.317
REMARK  Name = *****
REMARK                            x       y       z     vdW  Elec       q    Type
REMARK                         _______ _______ _______ _____ _____    ______ ____
ROOT
ATOM      1  C   LIG    1       24.605 -23.423   4.375  0.00  0.00    +0.027 C 
ATOM      2  C   LIG    1       24.091 -23.152   5.802  0.00  0.00    +0.086 C 
ATOM      3  N   LIG    1       24.499 -24.185   6.796  0.00  0.00    -0.298 NA
ATOM      4  C   LIG    1       24.097 -25.540   6.443  0.00  0.00    +0.105 C 
ATOM      5  C   LIG    1       25.946 -24.106   7.073  0.00  0.00    +0.112 C 
ATOM      6  C   LIG    1       26.368 -22.683   7.476  0.00  0.00    +0.176 C 
ATOM      7  O   LIG    1       25.973 -21.713   6.499  0.00  0.00    -0.369 OA
ATOM      8  C   LIG    1       24.540 -21.744   6.324  0.00  0.00    +0.165 C 
ENDROOT
BRANCH   8   9
ATOM      9  C   LIG    1       24.080 -20.591   5.446  0.00  0.00    -0.017 A 
ATOM     10  C   LIG    1       24.908 -20.031   4.461  0.00  0.00    +0.006 A 
ATOM     11  C   LIG    1       24.453 -18.982   3.659  0.00  0.00    +0.000 A 
ATOM     12  C   LIG    1       23.166 -18.478   3.830  0.00  0.00    +0.000 A 
ATOM     13  C   LIG    1       22.333 -19.021   4.804  0.00  0.00    +0.000 A 
ATOM     14  C   LIG    1       22.785 -20.070   5.607  0.00  0.00    +0.006 A 
ENDBRANCH   8   9
TORSDOF 1
ENDMDL
MODEL 7
REMARK VINA RESULT:      -6.0      3.967      5.749
REMARK  Name = *****
REMARK                            x       y       z     vdW  Elec       q    Type
REMARK                         _______ _______ _______ _____ _____    ______ ____
ROOT
ATOM      1  C   LIG    1       29.201 -21.706   7.599  0.00  0.00    +0.027 C 
ATOM      2  C   LIG    1       28.879 -20.238   7.939  0.00  0.00    +0.086 C 
ATOM      3  N   LIG    1       30.073 -19.347   7.954  0.00  0.00    -0.298 NA
ATOM      4  C   LIG    1       31.125 -19.779   8.865  0.00  0.00    +0.105 C 
ATOM      5  C   LIG    1       30.592 -19.140   6.589  0.00  0.00    +0.112 C 
ATOM      6  C   LIG    1       29.491 -18.653   5.633  0.00  0.00    +0.176 C 
ATOM      7  O   LIG    1       28.360 -19.532   5.630  0.00  0.00    -0.369 OA
ATOM      8  C   LIG    1       27.812 -19.636   6.962  0.00  0.00    +0.165 C 
ENDROOT
BRANCH   8   9
ATOM      9  C   LIG    1       26.497 -20.400   6.944  0.00  0.00    -0.017 A 
ATOM     10  C   LIG    1       25.848 -20.790   8.125  0.00  0.00    +0.006 A 
ATOM     11  C   LIG    1       24.634 -21.477   8.078  0.00  0.00    +0.000 A 
ATOM     12  C   LIG    1       24.051 -21.786   6.851  0.00  0.00    +0.000 A 
ATOM     13  C   LIG    1       24.683 -21.406   5.669  0.00  0.00    +0.000 A 
ATOM     14  C   LIG    1       25.897 -20.719   5.714  0.00  0.00    +0.006 A 
ENDBRANCH   8   9
TORSDOF 1
ENDMDL
MODEL 8
REMARK VINA RESULT:      -6.0      1.261      2.117
REMARK  Name = *****
REMARK                            x       y       z     vdW  Elec       q    Type
REMARK                         _______ _______ _______ _____ _____    ______ ____
ROOT
ATOM      1  C   LIG    1       26.858 -22.300   6.832  0.00  0.00    +0.027 C 
ATOM      2  C   LIG    1       25.606 -22.633   7.667  0.00  0.00    +0.086 C 
ATOM      3  N   LIG    1       24.923 -21.435   8.231  0.00  0.00    -0.298 NA
ATOM      4  C   LIG    1       25.781 -20.596   9.058  0.00  0.00    +0.105 C 
ATOM      5  C   LIG    1       24.267 -20.653   7.166  0.00  0.00    +0.112 C 
ATOM      6  C   LIG    1       23.336 -21.529   6.312  0.00  0.00    +0.176 C 
ATOM      7  O   LIG    1       24.020 -22.667   5.774  0.00  0.00    -0.369 OA
ATOM      8  C   LIG    1       24.565 -23.468   6.845  0.00  0.00    +0.165 C 
ENDROOT
BRANCH   8   9
ATOM      9  C   LIG    1       25.118 -24.779   6.308  0.00  0.00    -0.017 A 
ATOM     10  C   LIG    1       25.722 -25.729   7.146  0.00  0.00    +0.006 A 
ATOM     11  C   LIG    1       26.207 -26.931   6.627  0.00  0.00    +0.000 A 
ATOM     12  C   LIG    1       26.096 -27.201   5.265  0.00  0.00    +0.000 A 
ATOM     13  C   LIG    1       25.500 -26.268   4.420  0.00  0.00    +0.000 A 
ATOM     14  C   LIG    1       25.014 -25.066   4.937  0.00  0.00    +0.006 A 
ENDBRANCH   8   9
TORSDOF 1
ENDMDL
MODEL 9
REMARK VINA RESULT:      -6.0      3.220      4.806
REMARK  Name = *****
REMARK                            x       y       z     vdW  Elec       q    Type
REMARK                         _______ _______ _______ _____ _____    ______ ____
ROOT
ATOM      1  C   LIG    1       25.091 -20.764   4.332  0.00  0.00    +0.027 C 
ATOM      2  C   LIG    1       24.577 -20.229   5.683  0.00  0.00    +0.086 C 
ATOM      3  N   LIG    1       23.106 -20.380   5.871  0.00  0.00    -0.298 NA
ATOM      4  C   LIG    1       22.306 -19.753   4.826  0.00  0.00    +0.105 C 
ATOM      5  C   LIG    1       22.743 -21.798   6.053  0.00  0.00    +0.112 C 
ATOM      6  C   LIG    1       23.563 -22.453   7.176  0.00  0.00    +0.176 C 
ATOM      7  O   LIG    1       24.972 -22.301   6.965  0.00  0.00    -0.369 OA
ATOM      8  C   LIG    1       25.313 -20.900   6.893  0.00  0.00    +0.165 C 
ENDROOT
BRANCH   8   9
ATOM      9  C   LIG    1       26.821 -20.714   6.872  0.00  0.00    -0.017 A 
ATOM     10  C   LIG    1       27.448 -19.815   5.995  0.00  0.00    +0.006 A 
ATOM     11  C   LIG    1       28.834 -19.653   6.009  0.00  0.00    +0.000 A 
ATOM     12  C   LIG    1       29.615 -20.388   6.898  0.00  0.00    +0.000 A 
ATOM     13  C   LIG    1       29.010 -21.286   7.774  0.00  0.00    +0.000 A 
ATOM     14  C   LIG    1       27.624 -21.448   7.762  0.00  0.00    +0.006 A 
ENDBRANCH   8   9
TORSDOF 1
ENDMDL
