MODEL 1
REMARK VINA RESULT:     -10.0      0.000      0.000
REMARK  Name = *****
REMARK                            x       y       z     vdW  Elec       q    Type
REMARK                         _______ _______ _______ _____ _____    ______ ____
ROOT
ATOM      1  C   LIG    1       24.478 -21.514   7.293  0.00  0.00    +0.213 C 
ENDROOT
BRANCH   1   2
ATOM      2  C   LIG    1       24.680 -23.007   6.990  0.00  0.00    -0.001 A 
ATOM      3  C   LIG    1       23.573 -23.814   6.659  0.00  0.00    +0.007 A 
ATOM      4  C   LIG    1       23.738 -25.161   6.337  0.00  0.00    +0.000 A 
ATOM      5  C   LIG    1       25.008 -25.730   6.354  0.00  0.00    +0.000 A 
ATOM      6  C   LIG    1       26.116 -24.952   6.681  0.00  0.00    +0.000 A 
ATOM      7  C   LIG    1       25.954 -23.600   6.991  0.00  0.00    +0.007 A 
ENDBRANCH   1   2
BRANCH   1   8
ATOM      8  C   LIG    1       24.308 -20.682   6.009  0.00  0.00    -0.001 A 
ATOM      9  C   LIG    1       23.079 -20.045   5.728  0.00  0.00    +0.007 A 
ATOM     10  C   LIG    1       22.914 -19.260   4.584  0.00  0.00    +0.000 A 
ATOM     11  C   LIG    1       23.961 -19.114   3.681  0.00  0.00    +0.000 A 
ATOM     12  C   LIG    1       25.167 -19.769   3.914  0.00  0.00    +0.000 A 
ATOM     13  C   LIG    1       25.337 -20.551   5.061  0.00  0.00    +0.007 A 
ENDBRANCH   1   8
BRANCH   1  14
ATOM     14  C   LIG    1       25.588 -20.990   8.269  0.00  0.00    +0.349 C 
ATOM     15  O   LIG    1       25.573 -21.066   9.498  0.00  0.00    -0.247 OA
BRANCH  14  16
ATOM     16  O   LIG    1       26.687 -20.536   7.576  0.00  0.00    -0.453 OA
BRANCH  16  20
ATOM     17  C   LIG    1       30.225 -17.665   8.417  0.00  0.00    +0.192 C 
ATOM     18  N   LIG    1       29.741 -19.011   7.902  0.00  0.00    +0.244 N 
ATOM     19  C   LIG    1       28.537 -19.496   8.749  0.00  0.00    +0.178 C 
ATOM     20  C   LIG    1       27.976 -20.807   8.154  0.00  0.00    +0.225 C 
ATOM     21  C   LIG    1       28.911 -21.295   7.029  0.00  0.00    +0.045 C 
ATOM     22  C   LIG    1       30.333 -21.416   7.582  0.00  0.00    +0.058 C 
ATOM     23  C   LIG    1       28.927 -20.253   5.896  0.00  0.00    +0.058 C 
ATOM     24  C   LIG    1       30.872 -20.046   7.996  0.00  0.00    +0.133 C 
ATOM     25  C   LIG    1       29.295 -18.872   6.438  0.00  0.00    +0.133 C 
ENDBRANCH  16  20
ENDBRANCH  14  16
ENDBRANCH   1  14
BRANCH   1  26
ATOM     26  O   LIG    1       23.278 -21.353   8.099  0.00  0.00    -0.370 OA
ATOM     27  H   LIG    1       23.217 -22.143   8.667  0.00  0.00    +0.212 HD
ENDBRANCH   1  26
TORSDOF 6
ENDMDL
MODEL 2
REMARK VINA RESULT:      -9.0      0.894      3.787
REMARK  Name = *****
REMARK                            x       y       z     vdW  Elec       q    Type
REMARK                         _______ _______ _______ _____ _____    ______ ____
ROOT
ATOM      1  C   LIG    1       25.571 -21.278   6.313  0.00  0.00    +0.213 C 
ENDROOT
BRANCH   1   2
ATOM      2  C   LIG    1       24.544 -20.403   5.578  0.00  0.00    -0.001 A 
ATOM      3  C   LIG    1       24.866 -19.838   4.329  0.00  0.00    +0.007 A 
ATOM      4  C   LIG    1       23.934 -19.076   3.624  0.00  0.00    +0.000 A 
ATOM      5  C   LIG    1       22.669 -18.853   4.160  0.00  0.00    +0.000 A 
ATOM      6  C   LIG    1       22.330 -19.401   5.394  0.00  0.00    +0.000 A 
ATOM      7  C   LIG    1       23.257 -20.174   6.096  0.00  0.00    +0.007 A 
ENDBRANCH   1   2
BRANCH   1   8
ATOM      8  C   LIG    1       25.102 -22.740   6.435  0.00  0.00    -0.001 A 
ATOM      9  C   LIG    1       23.726 -23.045   6.505  0.00  0.00    +0.007 A 
ATOM     10  C   LIG    1       23.278 -24.367   6.585  0.00  0.00    +0.000 A 
ATOM     11  C   LIG    1       24.195 -25.412   6.625  0.00  0.00    +0.000 A 
ATOM     12  C   LIG    1       25.559 -25.133   6.604  0.00  0.00    +0.000 A 
ATOM     13  C   LIG    1       26.009 -23.811   6.518  0.00  0.00    +0.007 A 
ENDBRANCH   1   8
BRANCH   1  14
ATOM     14  C   LIG    1       26.000 -20.615   7.668  0.00  0.00    +0.349 C 
ATOM     15  O   LIG    1       25.449 -20.768   8.760  0.00  0.00    -0.247 OA
BRANCH  14  16
ATOM     16  O   LIG    1       27.181 -19.923   7.534  0.00  0.00    -0.453 OA
BRANCH  16  20
ATOM     17  C   LIG    1       30.805 -17.469   9.053  0.00  0.00    +0.192 C 
ATOM     18  N   LIG    1       30.268 -18.772   8.485  0.00  0.00    +0.244 N 
ATOM     19  C   LIG    1       28.856 -19.054   9.056  0.00  0.00    +0.178 C 
ATOM     20  C   LIG    1       28.266 -20.318   8.392  0.00  0.00    +0.225 C 
ATOM     21  C   LIG    1       29.349 -20.983   7.518  0.00  0.00    +0.045 C 
ATOM     22  C   LIG    1       30.587 -21.247   8.377  0.00  0.00    +0.058 C 
ATOM     23  C   LIG    1       29.749 -20.020   6.386  0.00  0.00    +0.058 C 
ATOM     24  C   LIG    1       31.202 -19.932   8.859  0.00  0.00    +0.133 C 
ATOM     25  C   LIG    1       30.173 -18.666   6.954  0.00  0.00    +0.133 C 
ENDBRANCH  16  20
ENDBRANCH  14  16
ENDBRANCH   1  14
BRANCH   1  26
ATOM     26  O   LIG    1       26.822 -21.265   5.571  0.00  0.00    -0.370 OA
ATOM     27  H   LIG    1       26.583 -21.217   4.627  0.00  0.00    +0.212 HD
ENDBRANCH   1  26
TORSDOF 6
ENDMDL
MODEL 3
REMARK VINA RESULT:      -8.1      0.827      1.531
REMARK  Name = *****
REMARK                            x       y       z     vdW  Elec       q    Type
REMARK                         _______ _______ _______ _____ _____    ______ ____
ROOT
ATOM      1  C   LIG    1       24.973 -21.549   7.208  0.00  0.00    +0.213 C 
ENDROOT
BRANCH   1   2
ATOM      2  C   LIG    1       24.957 -23.058   6.915  0.00  0.00    -0.001 A 
ATOM      3  C   LIG    1       23.732 -23.724   6.720  0.00  0.00    +0.007 A 
ATOM      4  C   LIG    1       23.696 -25.084   6.410  0.00  0.00    +0.000 A 
ATOM      5  C   LIG    1       24.882 -25.804   6.303  0.00  0.00    +0.000 A 
ATOM      6  C   LIG    1       26.105 -25.166   6.494  0.00  0.00    +0.000 A 
ATOM      7  C   LIG    1       26.143 -23.802   6.792  0.00  0.00    +0.007 A 
ENDBRANCH   1   2
BRANCH   1   8
ATOM      8  C   LIG    1       24.560 -20.717   5.980  0.00  0.00    -0.001 A 
ATOM      9  C   LIG    1       23.283 -20.119   5.918  0.00  0.00    +0.007 A 
ATOM     10  C   LIG    1       22.900 -19.336   4.826  0.00  0.00    +0.000 A 
ATOM     11  C   LIG    1       23.773 -19.153   3.759  0.00  0.00    +0.000 A 
ATOM     12  C   LIG    1       25.020 -19.770   3.776  0.00  0.00    +0.000 A 
ATOM     13  C   LIG    1       25.408 -20.551   4.871  0.00  0.00    +0.007 A 
ENDBRANCH   1   8
BRANCH   1  14
ATOM     14  C   LIG    1       26.335 -21.122   7.857  0.00  0.00    +0.349 C 
ATOM     15  O   LIG    1       26.912 -21.694   8.783  0.00  0.00    -0.247 OA
BRANCH  14  16
ATOM     16  O   LIG    1       26.910 -20.077   7.170  0.00  0.00    -0.453 OA
BRANCH  16  20
ATOM     17  C   LIG    1       30.818 -21.642   9.102  0.00  0.00    +0.192 C 
ATOM     18  N   LIG    1       30.140 -20.659   8.163  0.00  0.00    +0.244 N 
ATOM     19  C   LIG    1       28.954 -21.351   7.444  0.00  0.00    +0.178 C 
ATOM     20  C   LIG    1       28.197 -20.321   6.576  0.00  0.00    +0.225 C 
ATOM     21  C   LIG    1       28.979 -18.991   6.570  0.00  0.00    +0.045 C 
ATOM     22  C   LIG    1       30.414 -19.262   6.112  0.00  0.00    +0.058 C 
ATOM     23  C   LIG    1       29.033 -18.427   8.001  0.00  0.00    +0.058 C 
ATOM     24  C   LIG    1       31.142 -20.159   7.113  0.00  0.00    +0.133 C 
ATOM     25  C   LIG    1       29.603 -19.464   8.968  0.00  0.00    +0.133 C 
ENDBRANCH  16  20
ENDBRANCH  14  16
ENDBRANCH   1  14
BRANCH   1  26
ATOM     26  O   LIG    1       24.034 -21.266   8.282  0.00  0.00    -0.370 OA
ATOM     27  H   LIG    1       23.714 -20.356   8.138  0.00  0.00    +0.212 HD
ENDBRANCH   1  26
TORSDOF 6
ENDMDL
MODEL 4
REMARK VINA RESULT:      -7.9      2.150      5.840
REMARK  Name = *****
REMARK                            x       y       z     vdW  Elec       q    Type
REMARK                         _______ _______ _______ _____ _____    ______ ____
ROOT
ATOM      1  C   LIG    1       26.541 -20.734   7.448  0.00  0.00    +0.213 C 
ENDROOT
BRANCH   1   2
ATOM      2  C   LIG    1       25.472 -20.544   6.361  0.00  0.00    -0.001 A 
ATOM      3  C   LIG    1       24.108 -20.523   6.711  0.00  0.00    +0.007 A 
ATOM      4  C   LIG    1       23.122 -20.309   5.747  0.00  0.00    +0.000 A 
ATOM      5  C   LIG    1       23.481 -20.125   4.415  0.00  0.00    +0.000 A 
ATOM      6  C   LIG    1       24.823 -20.144   4.046  0.00  0.00    +0.000 A 
ATOM      7  C   LIG    1       25.812 -20.346   5.011  0.00  0.00    +0.007 A 
ENDBRANCH   1   2
BRANCH   1   8
ATOM      8  C   LIG    1       27.907 -20.167   7.020  0.00  0.00    -0.001 A 
ATOM      9  C   LIG    1       29.073 -20.481   7.753  0.00  0.00    +0.007 A 
ATOM     10  C   LIG    1       30.326 -20.001   7.363  0.00  0.00    +0.000 A 
ATOM     11  C   LIG    1       30.442 -19.176   6.250  0.00  0.00    +0.000 A 
ATOM     12  C   LIG    1       29.301 -18.816   5.538  0.00  0.00    +0.000 A 
ATOM     13  C   LIG    1       28.046 -19.299   5.923  0.00  0.00    +0.007 A 
ENDBRANCH   1   8
BRANCH   1  14
ATOM     14  C   LIG    1       26.578 -22.223   7.939  0.00  0.00    +0.349 C 
ATOM     15  O   LIG    1       26.649 -22.602   9.108  0.00  0.00    -0.247 OA
BRANCH  14  16
ATOM     16  O   LIG    1       26.380 -23.098   6.895  0.00  0.00    -0.453 OA
BRANCH  16  20
ATOM     17  C   LIG    1       26.207 -27.183   4.719  0.00  0.00    +0.192 C 
ATOM     18  N   LIG    1       25.464 -26.023   5.357  0.00  0.00    +0.244 N 
ATOM     19  C   LIG    1       26.257 -25.499   6.581  0.00  0.00    +0.178 C 
ATOM     20  C   LIG    1       25.558 -24.249   7.160  0.00  0.00    +0.225 C 
ATOM     21  C   LIG    1       24.207 -24.046   6.444  0.00  0.00    +0.045 C 
ATOM     22  C   LIG    1       23.386 -25.332   6.559  0.00  0.00    +0.058 C 
ATOM     23  C   LIG    1       24.461 -23.773   4.951  0.00  0.00    +0.058 C 
ATOM     24  C   LIG    1       24.073 -26.480   5.819  0.00  0.00    +0.133 C 
ATOM     25  C   LIG    1       25.314 -24.883   4.337  0.00  0.00    +0.133 C 
ENDBRANCH  16  20
ENDBRANCH  14  16
ENDBRANCH   1  14
BRANCH   1  26
ATOM     26  O   LIG    1       26.120 -20.037   8.653  0.00  0.00    -0.370 OA
ATOM     27  H   LIG    1       26.665 -20.389   9.381  0.00  0.00    +0.212 HD
ENDBRANCH   1  26
TORSDOF 6
ENDMDL
MODEL 5
REMARK VINA RESULT:      -7.5      2.640      6.269
REMARK  Name = *****
REMARK                            x       y       z     vdW  Elec       q    Type
REMARK                         _______ _______ _______ _____ _____    ______ ____
ROOT
ATOM      1  C   LIG    1       23.931 -21.639   6.852  0.00  0.00    +0.213 C 
ENDROOT
BRANCH   1   2
ATOM      2  C   LIG    1       23.576 -20.824   5.598  0.00  0.00    -0.001 A 
ATOM      3  C   LIG    1       22.679 -19.743   5.692  0.00  0.00    +0.007 A 
ATOM      4  C   LIG    1       22.376 -18.962   4.576  0.00  0.00    +0.000 A 
ATOM      5  C   LIG    1       22.953 -19.257   3.344  0.00  0.00    +0.000 A 
ATOM      6  C   LIG    1       23.842 -20.322   3.228  0.00  0.00    +0.000 A 
ATOM      7  C   LIG    1       24.156 -21.097   4.347  0.00  0.00    +0.007 A 
ENDBRANCH   1   2
BRANCH   1   8
ATOM      8  C   LIG    1       25.435 -21.578   7.174  0.00  0.00    -0.001 A 
ATOM      9  C   LIG    1       26.319 -20.871   6.330  0.00  0.00    +0.007 A 
ATOM     10  C   LIG    1       27.683 -20.778   6.621  0.00  0.00    +0.000 A 
ATOM     11  C   LIG    1       28.200 -21.410   7.746  0.00  0.00    +0.000 A 
ATOM     12  C   LIG    1       27.356 -22.151   8.569  0.00  0.00    +0.000 A 
ATOM     13  C   LIG    1       25.990 -22.241   8.282  0.00  0.00    +0.007 A 
ENDBRANCH   1   8
BRANCH   1  14
ATOM     14  C   LIG    1       23.342 -23.089   6.758  0.00  0.00    +0.349 C 
ATOM     15  O   LIG    1       22.159 -23.385   6.584  0.00  0.00    -0.247 OA
BRANCH  14  16
ATOM     16  O   LIG    1       24.342 -24.035   6.756  0.00  0.00    -0.453 OA
BRANCH  16  20
ATOM     17  C   LIG    1       24.530 -28.642   7.195  0.00  0.00    +0.192 C 
ATOM     18  N   LIG    1       24.957 -27.394   6.442  0.00  0.00    +0.244 N 
ATOM     19  C   LIG    1       23.793 -26.371   6.415  0.00  0.00    +0.178 C 
ATOM     20  C   LIG    1       24.265 -25.060   5.750  0.00  0.00    +0.225 C 
ATOM     21  C   LIG    1       25.679 -25.266   5.169  0.00  0.00    +0.045 C 
ATOM     22  C   LIG    1       25.658 -26.473   4.229  0.00  0.00    +0.058 C 
ATOM     23  C   LIG    1       26.658 -25.571   6.316  0.00  0.00    +0.058 C 
ATOM     24  C   LIG    1       25.342 -27.755   5.000  0.00  0.00    +0.133 C 
ATOM     25  C   LIG    1       26.164 -26.754   7.148  0.00  0.00    +0.133 C 
ENDBRANCH  16  20
ENDBRANCH  14  16
ENDBRANCH   1  14
BRANCH   1  26
ATOM     26  O   LIG    1       23.203 -21.099   7.989  0.00  0.00    -0.370 OA
ATOM     27  H   LIG    1       22.433 -20.624   7.625  0.00  0.00    +0.212 HD
ENDBRANCH   1  26
TORSDOF 6
ENDMDL
MODEL 6
REMARK VINA RESULT:      -7.3      2.293      6.051
REMARK  Name = *****
REMARK                            x       y       z     vdW  Elec       q    Type
REMARK                         _______ _______ _______ _____ _____    ______ ____
ROOT
ATOM      1  C   LIG    1       24.346 -21.385   6.785  0.00  0.00    +0.213 C 
ENDROOT
BRANCH   1   2
ATOM      2  C   LIG    1       23.855 -20.535   5.603  0.00  0.00    -0.001 A 
ATOM      3  C   LIG    1       22.743 -19.686   5.760  0.00  0.00    +0.007 A 
ATOM      4  C   LIG    1       22.307 -18.873   4.713  0.00  0.00    +0.000 A 
ATOM      5  C   LIG    1       22.965 -18.904   3.487  0.00  0.00    +0.000 A 
ATOM      6  C   LIG    1       24.066 -19.738   3.309  0.00  0.00    +0.000 A 
ATOM      7  C   LIG    1       24.512 -20.543   4.360  0.00  0.00    +0.007 A 
ENDBRANCH   1   2
BRANCH   1   8
ATOM      8  C   LIG    1       25.860 -21.231   7.018  0.00  0.00    -0.001 A 
ATOM      9  C   LIG    1       26.471 -21.811   8.151  0.00  0.00    +0.007 A 
ATOM     10  C   LIG    1       27.849 -21.709   8.365  0.00  0.00    +0.000 A 
ATOM     11  C   LIG    1       28.643 -21.003   7.469  0.00  0.00    +0.000 A 
ATOM     12  C   LIG    1       28.057 -20.384   6.369  0.00  0.00    +0.000 A 
ATOM     13  C   LIG    1       26.679 -20.489   6.149  0.00  0.00    +0.007 A 
ENDBRANCH   1   8
BRANCH   1  14
ATOM     14  C   LIG    1       23.855 -22.867   6.647  0.00  0.00    +0.349 C 
ATOM     15  O   LIG    1       22.709 -23.276   6.841  0.00  0.00    -0.247 OA
BRANCH  14  16
ATOM     16  O   LIG    1       24.844 -23.676   6.138  0.00  0.00    -0.453 OA
BRANCH  16  20
ATOM     17  C   LIG    1       27.833 -27.075   5.151  0.00  0.00    +0.192 C 
ATOM     18  N   LIG    1       26.429 -26.661   5.556  0.00  0.00    +0.244 N 
ATOM     19  C   LIG    1       26.493 -25.420   6.483  0.00  0.00    +0.178 C 
ATOM     20  C   LIG    1       25.062 -24.933   6.802  0.00  0.00    +0.225 C 
ATOM     21  C   LIG    1       24.044 -25.950   6.246  0.00  0.00    +0.045 C 
ATOM     22  C   LIG    1       24.373 -27.337   6.802  0.00  0.00    +0.058 C 
ATOM     23  C   LIG    1       24.172 -26.008   4.713  0.00  0.00    +0.058 C 
ATOM     24  C   LIG    1       25.738 -27.811   6.304  0.00  0.00    +0.133 C 
ATOM     25  C   LIG    1       25.615 -26.304   4.302  0.00  0.00    +0.133 C 
ENDBRANCH  16  20
ENDBRANCH  14  16
ENDBRANCH   1  14
BRANCH   1  26
ATOM     26  O   LIG    1       23.657 -20.958   7.993  0.00  0.00    -0.370 OA
ATOM     27  H   LIG    1       22.807 -20.575   7.707  0.00  0.00    +0.212 HD
ENDBRANCH   1  26
TORSDOF 6
ENDMDL
MODEL 7
REMARK VINA RESULT:      -7.2      2.964      6.044
REMARK  Name = *****
REMARK                            x       y       z     vdW  Elec       q    Type
REMARK                         _______ _______ _______ _____ _____    ______ ____
ROOT
ATOM      1  C   LIG    1       24.153 -22.222   5.775  0.00  0.00    +0.213 C 
ENDROOT
BRANCH   1   2
ATOM      2  C   LIG    1       25.223 -21.577   6.669  0.00  0.00    -0.001 A 
ATOM      3  C   LIG    1       26.457 -21.182   6.117  0.00  0.00    +0.007 A 
ATOM      4  C   LIG    1       27.426 -20.555   6.901  0.00  0.00    +0.000 A 
ATOM      5  C   LIG    1       27.185 -20.323   8.252  0.00  0.00    +0.000 A 
ATOM      6  C   LIG    1       25.973 -20.707   8.819  0.00  0.00    +0.000 A 
ATOM      7  C   LIG    1       24.997 -21.324   8.034  0.00  0.00    +0.007 A 
ENDBRANCH   1   2
BRANCH   1   8
ATOM      8  C   LIG    1       23.148 -21.187   5.238  0.00  0.00    -0.001 A 
ATOM      9  C   LIG    1       23.512 -19.828   5.128  0.00  0.00    +0.007 A 
ATOM     10  C   LIG    1       22.625 -18.878   4.614  0.00  0.00    +0.000 A 
ATOM     11  C   LIG    1       21.345 -19.258   4.224  0.00  0.00    +0.000 A 
ATOM     12  C   LIG    1       20.948 -20.584   4.365  0.00  0.00    +0.000 A 
ATOM     13  C   LIG    1       21.836 -21.538   4.874  0.00  0.00    +0.007 A 
ENDBRANCH   1   8
BRANCH   1  14
ATOM     14  C   LIG    1       23.500 -23.456   6.490  0.00  0.00    +0.349 C 
ATOM     15  O   LIG    1       22.307 -23.590   6.766  0.00  0.00    -0.247 OA
BRANCH  14  16
ATOM     16  O   LIG    1       24.411 -24.472   6.664  0.00  0.00    -0.453 OA
BRANCH  16  20
ATOM     17  C   LIG    1       24.510 -29.051   7.356  0.00  0.00    +0.192 C 
ATOM     18  N   LIG    1       24.994 -27.850   6.563  0.00  0.00    +0.244 N 
ATOM     19  C   LIG    1       23.848 -26.817   6.419  0.00  0.00    +0.178 C 
ATOM     20  C   LIG    1       24.373 -25.549   5.711  0.00  0.00    +0.225 C 
ATOM     21  C   LIG    1       25.813 -25.802   5.220  0.00  0.00    +0.045 C 
ATOM     22  C   LIG    1       25.825 -27.058   4.345  0.00  0.00    +0.058 C 
ATOM     23  C   LIG    1       26.726 -26.056   6.433  0.00  0.00    +0.058 C 
ATOM     24  C   LIG    1       25.451 -28.293   5.165  0.00  0.00    +0.133 C 
ATOM     25  C   LIG    1       26.170 -27.187   7.298  0.00  0.00    +0.133 C 
ENDBRANCH  16  20
ENDBRANCH  14  16
ENDBRANCH   1  14
BRANCH   1  26
ATOM     26  O   LIG    1       24.804 -22.853   4.637  0.00  0.00    -0.370 OA
ATOM     27  H   LIG    1       24.611 -23.806   4.701  0.00  0.00    +0.212 HD
ENDBRANCH   1  26
TORSDOF 6
ENDMDL
MODEL 8
REMARK VINA RESULT:      -7.1      2.845      5.973
REMARK  Name = *****
REMARK                            x       y       z     vdW  Elec       q    Type
REMARK                         _______ _______ _______ _____ _____    ______ ____
ROOT
ATOM      1  C   LIG    1       24.463 -22.028   5.761  0.00  0.00    +0.213 C 
ENDROOT
BRANCH   1   2
ATOM      2  C   LIG    1       25.495 -21.387   6.703  0.00  0.00    -0.001 A 
ATOM      3  C   LIG    1       25.137 -21.069   8.027  0.00  0.00    +0.007 A 
ATOM      4  C   LIG    1       26.069 -20.527   8.912  0.00  0.00    +0.000 A 
ATOM      5  C   LIG    1       27.371 -20.279   8.486  0.00  0.00    +0.000 A 
ATOM      6  C   LIG    1       27.746 -20.585   7.180  0.00  0.00    +0.000 A 
ATOM      7  C   LIG    1       26.817 -21.139   6.296  0.00  0.00    +0.007 A 
ENDBRANCH   1   2
BRANCH   1   8
ATOM      8  C   LIG    1       23.510 -20.984   5.152  0.00  0.00    -0.001 A 
ATOM      9  C   LIG    1       24.012 -19.763   4.652  0.00  0.00    +0.007 A 
ATOM     10  C   LIG    1       23.167 -18.816   4.068  0.00  0.00    +0.000 A 
ATOM     11  C   LIG    1       21.799 -19.053   3.993  0.00  0.00    +0.000 A 
ATOM     12  C   LIG    1       21.275 -20.230   4.520  0.00  0.00    +0.000 A 
ATOM     13  C   LIG    1       22.119 -21.182   5.100  0.00  0.00    +0.007 A 
ENDBRANCH   1   8
BRANCH   1  14
ATOM     14  C   LIG    1       23.748 -23.237   6.459  0.00  0.00    +0.349 C 
ATOM     15  O   LIG    1       22.553 -23.306   6.750  0.00  0.00    -0.247 OA
BRANCH  14  16
ATOM     16  O   LIG    1       24.599 -24.309   6.598  0.00  0.00    -0.453 OA
BRANCH  16  20
ATOM     17  C   LIG    1       24.322 -28.877   7.312  0.00  0.00    +0.192 C 
ATOM     18  N   LIG    1       24.892 -27.724   6.503  0.00  0.00    +0.244 N 
ATOM     19  C   LIG    1       23.834 -26.598   6.375  0.00  0.00    +0.178 C 
ATOM     20  C   LIG    1       24.452 -25.382   5.651  0.00  0.00    +0.225 C 
ATOM     21  C   LIG    1       25.855 -25.758   5.134  0.00  0.00    +0.045 C 
ATOM     22  C   LIG    1       25.744 -27.013   4.266  0.00  0.00    +0.058 C 
ATOM     23  C   LIG    1       26.766 -26.084   6.331  0.00  0.00    +0.058 C 
ATOM     24  C   LIG    1       25.282 -28.209   5.099  0.00  0.00    +0.133 C 
ATOM     25  C   LIG    1       26.133 -27.161   7.213  0.00  0.00    +0.133 C 
ENDBRANCH  16  20
ENDBRANCH  14  16
ENDBRANCH   1  14
BRANCH   1  26
ATOM     26  O   LIG    1       25.164 -22.691   4.672  0.00  0.00    -0.370 OA
ATOM     27  H   LIG    1       24.799 -23.593   4.616  0.00  0.00    +0.212 HD
ENDBRANCH   1  26
TORSDOF 6
ENDMDL
