MODEL 1
REMARK VINA RESULT:      -6.8      0.000      0.000
REMARK  Name = *****
REMARK                            x       y       z     vdW  Elec       q    Type
REMARK                         _______ _______ _______ _____ _____    ______ ____
ROOT
ATOM      1  C   LIG    1       26.012 -20.709   6.010  0.00  0.00    +0.059 C 
ATOM      2  C   LIG    1       27.353 -19.997   5.635  0.00  0.00    +0.063 C 
ATOM      3  C   LIG    1       28.410 -20.197   6.667  0.00  0.00    +0.016 A 
ATOM      4  C   LIG    1       28.315 -21.019   7.766  0.00  0.00    +0.054 A 
ATOM      5  N   LIG    1       29.449 -21.095   8.551  0.00  0.00    -0.230 NA
ATOM      6  C   LIG    1       30.390 -20.338   8.044  0.00  0.00    +0.156 A 
ATOM      7  C   LIG    1       27.082 -21.788   8.077  0.00  0.00    +0.058 C 
ATOM      8  S   LIG    1       29.957 -19.494   6.598  0.00  0.00    -0.057 S 
ATOM      9  C   LIG    1       26.262 -22.026   6.797  0.00  0.00    +0.025 C 
ENDROOT
BRANCH   6  10
ATOM     10  N   LIG    1       31.622 -20.221   8.561  0.00  0.00    -0.338 N 
ATOM     11  H   LIG    1       31.734 -19.652   9.392  0.00  0.00    +0.144 HD
ATOM     12  H   LIG    1       32.372 -20.125   7.888  0.00  0.00    +0.144 HD
ENDBRANCH   6  10
BRANCH   1  13
ATOM     13  N   LIG    1       25.227 -20.914   4.768  0.00  0.00    -0.313 NA
ATOM     14  H   LIG    1       25.239 -20.054   4.218  0.00  0.00    +0.122 HD
BRANCH  13  15
ATOM     15  C   LIG    1       23.833 -21.307   4.991  0.00  0.00    +0.081 C 
BRANCH  15  17
ATOM     16  C   LIG    1       22.441 -19.192   4.880  0.00  0.00    +0.005 C 
ATOM     17  C   LIG    1       23.083 -20.234   5.792  0.00  0.00    +0.012 C 
ENDBRANCH  15  17
ENDBRANCH  13  15
ENDBRANCH   1  13
TORSDOF 4
ENDMDL
MODEL 2
REMARK VINA RESULT:      -6.7      1.356      1.486
REMARK  Name = *****
REMARK                            x       y       z     vdW  Elec       q    Type
REMARK                         _______ _______ _______ _____ _____    ______ ____
ROOT
ATOM      1  C   LIG    1       24.593 -20.852   6.263  0.00  0.00    +0.059 C 
ATOM      2  C   LIG    1       25.916 -20.550   5.483  0.00  0.00    +0.063 C 
ATOM      3  C   LIG    1       27.057 -20.251   6.395  0.00  0.00    +0.016 A 
ATOM      4  C   LIG    1       27.039 -20.357   7.766  0.00  0.00    +0.054 A 
ATOM      5  N   LIG    1       28.237 -20.090   8.399  0.00  0.00    -0.230 NA
ATOM      6  C   LIG    1       29.151 -19.790   7.508  0.00  0.00    +0.156 A 
ATOM      7  C   LIG    1       25.816 -20.748   8.515  0.00  0.00    +0.058 C 
ATOM      8  S   LIG    1       28.612 -19.811   5.866  0.00  0.00    -0.057 S 
ATOM      9  C   LIG    1       24.875 -21.566   7.614  0.00  0.00    +0.025 C 
ENDROOT
BRANCH   6  10
ATOM     10  N   LIG    1       30.428 -19.510   7.806  0.00  0.00    -0.338 N 
ATOM     11  H   LIG    1       30.869 -20.044   8.546  0.00  0.00    +0.144 HD
ATOM     12  H   LIG    1       30.673 -18.528   7.800  0.00  0.00    +0.144 HD
ENDBRANCH   6  10
BRANCH   1  13
ATOM     13  N   LIG    1       23.692 -21.624   5.373  0.00  0.00    -0.313 NA
ATOM     14  H   LIG    1       24.199 -21.884   4.526  0.00  0.00    +0.122 HD
BRANCH  13  15
ATOM     15  C   LIG    1       22.469 -20.913   4.987  0.00  0.00    +0.081 C 
BRANCH  15  17
ATOM     16  C   LIG    1       22.195 -18.487   4.311  0.00  0.00    +0.005 C 
ATOM     17  C   LIG    1       22.517 -19.451   5.450  0.00  0.00    +0.012 C 
ENDBRANCH  15  17
ENDBRANCH  13  15
ENDBRANCH   1  13
TORSDOF 4
ENDMDL
MODEL 3
REMARK VINA RESULT:      -6.6      3.553      5.904
REMARK  Name = *****
REMARK                            x       y       z     vdW  Elec       q    Type
REMARK                         _______ _______ _______ _____ _____    ______ ____
ROOT
ATOM      1  C   LIG    1       25.436 -21.610   7.585  0.00  0.00    +0.059 C 
ATOM      2  C   LIG    1       26.259 -22.870   7.155  0.00  0.00    +0.063 C 
ATOM      3  C   LIG    1       25.386 -24.025   6.801  0.00  0.00    +0.016 A 
ATOM      4  C   LIG    1       24.014 -23.996   6.708  0.00  0.00    +0.054 A 
ATOM      5  N   LIG    1       23.420 -25.175   6.300  0.00  0.00    -0.230 NA
ATOM      6  C   LIG    1       24.341 -26.082   6.083  0.00  0.00    +0.156 A 
ATOM      7  C   LIG    1       23.224 -22.774   7.010  0.00  0.00    +0.058 C 
ATOM      8  S   LIG    1       25.966 -25.562   6.364  0.00  0.00    -0.057 S 
ATOM      9  C   LIG    1       24.089 -21.516   6.816  0.00  0.00    +0.025 C 
ENDROOT
BRANCH   6  10
ATOM     10  N   LIG    1       24.085 -27.324   5.648  0.00  0.00    -0.338 N 
ATOM     11  H   LIG    1       23.338 -27.445   4.975  0.00  0.00    +0.144 HD
ATOM     12  H   LIG    1       24.132 -28.052   6.350  0.00  0.00    +0.144 HD
ENDBRANCH   6  10
BRANCH   1  13
ATOM     13  N   LIG    1       26.291 -20.411   7.410  0.00  0.00    -0.313 NA
ATOM     14  H   LIG    1       25.741 -19.575   7.612  0.00  0.00    +0.122 HD
BRANCH  13  15
ATOM     15  C   LIG    1       26.875 -20.274   6.071  0.00  0.00    +0.081 C 
BRANCH  15  17
ATOM     16  C   LIG    1       28.946 -20.195   7.529  0.00  0.00    +0.005 C 
ATOM     17  C   LIG    1       28.356 -19.880   6.158  0.00  0.00    +0.012 C 
ENDBRANCH  15  17
ENDBRANCH  13  15
ENDBRANCH   1  13
TORSDOF 4
ENDMDL
MODEL 4
REMARK VINA RESULT:      -6.4      2.152      2.776
REMARK  Name = *****
REMARK                            x       y       z     vdW  Elec       q    Type
REMARK                         _______ _______ _______ _____ _____    ______ ____
ROOT
ATOM      1  C   LIG    1       24.616 -21.552   6.634  0.00  0.00    +0.059 C 
ATOM      2  C   LIG    1       25.805 -21.100   5.722  0.00  0.00    +0.063 C 
ATOM      3  C   LIG    1       26.923 -20.499   6.504  0.00  0.00    +0.016 A 
ATOM      4  C   LIG    1       27.011 -20.455   7.876  0.00  0.00    +0.054 A 
ATOM      5  N   LIG    1       28.174 -19.905   8.379  0.00  0.00    -0.230 NA
ATOM      6  C   LIG    1       28.956 -19.543   7.391  0.00  0.00    +0.156 A 
ATOM      7  C   LIG    1       25.935 -20.979   8.757  0.00  0.00    +0.058 C 
ATOM      8  S   LIG    1       28.329 -19.843   5.809  0.00  0.00    -0.057 S 
ATOM      9  C   LIG    1       25.113 -22.049   8.020  0.00  0.00    +0.025 C 
ENDROOT
BRANCH   6  10
ATOM     10  N   LIG    1       30.173 -19.003   7.555  0.00  0.00    -0.338 N 
ATOM     11  H   LIG    1       30.974 -19.541   7.248  0.00  0.00    +0.144 HD
ATOM     12  H   LIG    1       30.317 -18.503   8.423  0.00  0.00    +0.144 HD
ENDBRANCH   6  10
BRANCH   1  13
ATOM     13  N   LIG    1       23.824 -22.569   5.900  0.00  0.00    -0.313 NA
ATOM     14  H   LIG    1       23.022 -22.116   5.459  0.00  0.00    +0.122 HD
BRANCH  13  15
ATOM     15  C   LIG    1       23.337 -23.673   6.733  0.00  0.00    +0.081 C 
BRANCH  15  17
ATOM     16  C   LIG    1       25.078 -24.818   5.292  0.00  0.00    +0.005 C 
ATOM     17  C   LIG    1       23.912 -25.014   6.256  0.00  0.00    +0.012 C 
ENDBRANCH  15  17
ENDBRANCH  13  15
ENDBRANCH   1  13
TORSDOF 4
ENDMDL
MODEL 5
REMARK VINA RESULT:      -6.2      2.396      5.910
REMARK  Name = *****
REMARK                            x       y       z     vdW  Elec       q    Type
REMARK                         _______ _______ _______ _____ _____    ______ ____
ROOT
ATOM      1  C   LIG    1       27.337 -20.762   7.601  0.00  0.00    +0.059 C 
ATOM      2  C   LIG    1       26.772 -20.424   6.181  0.00  0.00    +0.063 C 
ATOM      3  C   LIG    1       25.332 -20.784   6.043  0.00  0.00    +0.016 A 
ATOM      4  C   LIG    1       24.514 -21.229   7.055  0.00  0.00    +0.054 A 
ATOM      5  N   LIG    1       23.194 -21.439   6.705  0.00  0.00    -0.230 NA
ATOM      6  C   LIG    1       23.021 -21.149   5.438  0.00  0.00    +0.156 A 
ATOM      7  C   LIG    1       25.013 -21.453   8.438  0.00  0.00    +0.058 C 
ATOM      8  S   LIG    1       24.439 -20.613   4.606  0.00  0.00    -0.057 S 
ATOM      9  C   LIG    1       26.256 -20.588   8.705  0.00  0.00    +0.025 C 
ENDROOT
BRANCH   6  10
ATOM     10  N   LIG    1       21.842 -21.222   4.805  0.00  0.00    -0.338 N 
ATOM     11  H   LIG    1       21.215 -21.976   5.058  0.00  0.00    +0.144 HD
ATOM     12  H   LIG    1       21.864 -21.016   3.814  0.00  0.00    +0.144 HD
ENDBRANCH   6  10
BRANCH   1  13
ATOM     13  N   LIG    1       28.545 -19.933   7.833  0.00  0.00    -0.313 NA
ATOM     14  H   LIG    1       28.268 -18.955   7.925  0.00  0.00    +0.122 HD
BRANCH  13  15
ATOM     15  C   LIG    1       29.559 -20.035   6.779  0.00  0.00    +0.081 C 
BRANCH  15  17
ATOM     16  C   LIG    1       30.471 -18.184   8.251  0.00  0.00    +0.005 C 
ATOM     17  C   LIG    1       30.757 -19.124   7.083  0.00  0.00    +0.012 C 
ENDBRANCH  15  17
ENDBRANCH  13  15
ENDBRANCH   1  13
TORSDOF 4
ENDMDL
MODEL 6
REMARK VINA RESULT:      -6.1      2.908      5.789
REMARK  Name = *****
REMARK                            x       y       z     vdW  Elec       q    Type
REMARK                         _______ _______ _______ _____ _____    ______ ____
ROOT
ATOM      1  C   LIG    1       27.867 -21.554   7.915  0.00  0.00    +0.059 C 
ATOM      2  C   LIG    1       27.221 -22.676   7.035  0.00  0.00    +0.063 C 
ATOM      3  C   LIG    1       25.732 -22.673   7.115  0.00  0.00    +0.016 A 
ATOM      4  C   LIG    1       24.964 -21.729   7.755  0.00  0.00    +0.054 A 
ATOM      5  N   LIG    1       23.597 -21.897   7.641  0.00  0.00    -0.230 NA
ATOM      6  C   LIG    1       23.342 -22.958   6.915  0.00  0.00    +0.156 A 
ATOM      7  C   LIG    1       25.563 -20.595   8.506  0.00  0.00    +0.058 C 
ATOM      8  S   LIG    1       24.732 -23.808   6.338  0.00  0.00    -0.057 S 
ATOM      9  C   LIG    1       26.972 -20.285   7.973  0.00  0.00    +0.025 C 
ENDROOT
BRANCH   6  10
ATOM     10  N   LIG    1       22.106 -23.371   6.596  0.00  0.00    -0.338 N 
ATOM     11  H   LIG    1       21.396 -23.340   7.318  0.00  0.00    +0.144 HD
ATOM     12  H   LIG    1       22.058 -24.190   6.003  0.00  0.00    +0.144 HD
ENDBRANCH   6  10
BRANCH   1  13
ATOM     13  N   LIG    1       29.230 -21.282   7.398  0.00  0.00    -0.313 NA
ATOM     14  H   LIG    1       29.863 -22.015   7.720  0.00  0.00    +0.122 HD
BRANCH  13  15
ATOM     15  C   LIG    1       29.779 -19.982   7.797  0.00  0.00    +0.081 C 
BRANCH  15  17
ATOM     16  C   LIG    1       29.445 -18.478   5.785  0.00  0.00    +0.005 C 
ATOM     17  C   LIG    1       30.449 -19.282   6.607  0.00  0.00    +0.012 C 
ENDBRANCH  15  17
ENDBRANCH  13  15
ENDBRANCH   1  13
TORSDOF 4
ENDMDL
MODEL 7
REMARK VINA RESULT:      -6.1      2.141      5.999
REMARK  Name = *****
REMARK                            x       y       z     vdW  Elec       q    Type
REMARK                         _______ _______ _______ _____ _____    ______ ____
ROOT
ATOM      1  C   LIG    1       28.286 -19.959   7.646  0.00  0.00    +0.059 C 
ATOM      2  C   LIG    1       26.978 -20.648   8.159  0.00  0.00    +0.063 C 
ATOM      3  C   LIG    1       25.927 -20.727   7.105  0.00  0.00    +0.016 A 
ATOM      4  C   LIG    1       26.087 -20.380   5.783  0.00  0.00    +0.054 A 
ATOM      5  N   LIG    1       24.989 -20.599   4.975  0.00  0.00    -0.230 NA
ATOM      6  C   LIG    1       24.012 -21.111   5.683  0.00  0.00    +0.156 A 
ATOM      7  C   LIG    1       27.361 -19.824   5.257  0.00  0.00    +0.058 C 
ATOM      8  S   LIG    1       24.366 -21.350   7.359  0.00  0.00    -0.057 S 
ATOM      9  C   LIG    1       28.541 -20.260   6.142  0.00  0.00    +0.025 C 
ENDROOT
BRANCH   6  10
ATOM     10  N   LIG    1       22.821 -21.464   5.178  0.00  0.00    -0.338 N 
ATOM     11  H   LIG    1       22.616 -22.452   5.095  0.00  0.00    +0.144 HD
ATOM     12  H   LIG    1       22.494 -20.906   4.399  0.00  0.00    +0.144 HD
ENDBRANCH   6  10
BRANCH   1  13
ATOM     13  N   LIG    1       29.409 -20.376   8.521  0.00  0.00    -0.313 NA
ATOM     14  H   LIG    1       29.107 -20.336   9.495  0.00  0.00    +0.122 HD
BRANCH  13  15
ATOM     15  C   LIG    1       30.623 -19.566   8.375  0.00  0.00    +0.081 C 
BRANCH  15  17
ATOM     16  C   LIG    1       30.260 -17.647   9.989  0.00  0.00    +0.005 C 
ATOM     17  C   LIG    1       30.305 -18.072   8.524  0.00  0.00    +0.012 C 
ENDBRANCH  15  17
ENDBRANCH  13  15
ENDBRANCH   1  13
TORSDOF 4
ENDMDL
MODEL 8
REMARK VINA RESULT:      -6.1      1.456      2.049
REMARK  Name = *****
REMARK                            x       y       z     vdW  Elec       q    Type
REMARK                         _______ _______ _______ _____ _____    ______ ____
ROOT
ATOM      1  C   LIG    1       26.280 -21.680   6.665  0.00  0.00    +0.059 C 
ATOM      2  C   LIG    1       27.385 -21.826   7.763  0.00  0.00    +0.063 C 
ATOM      3  C   LIG    1       28.594 -21.005   7.463  0.00  0.00    +0.016 A 
ATOM      4  C   LIG    1       28.717 -20.101   6.434  0.00  0.00    +0.054 A 
ATOM      5  N   LIG    1       29.911 -19.408   6.391  0.00  0.00    -0.230 NA
ATOM      6  C   LIG    1       30.678 -19.786   7.385  0.00  0.00    +0.156 A 
ATOM      7  C   LIG    1       27.631 -19.873   5.445  0.00  0.00    +0.058 C 
ATOM      8  S   LIG    1       30.002 -20.997   8.417  0.00  0.00    -0.057 S 
ATOM      9  C   LIG    1       26.268 -20.253   6.049  0.00  0.00    +0.025 C 
ENDROOT
BRANCH   6  10
ATOM     10  N   LIG    1       31.892 -19.274   7.633  0.00  0.00    -0.338 N 
ATOM     11  H   LIG    1       32.218 -18.519   7.042  0.00  0.00    +0.144 HD
ATOM     12  H   LIG    1       32.608 -19.946   7.879  0.00  0.00    +0.144 HD
ENDBRANCH   6  10
BRANCH   1  13
ATOM     13  N   LIG    1       24.977 -22.067   7.259  0.00  0.00    -0.313 NA
ATOM     14  H   LIG    1       24.597 -22.862   6.744  0.00  0.00    +0.122 HD
BRANCH  13  15
ATOM     15  C   LIG    1       23.975 -20.997   7.272  0.00  0.00    +0.081 C 
BRANCH  15  17
ATOM     16  C   LIG    1       22.663 -19.889   5.409  0.00  0.00    +0.005 C 
ATOM     17  C   LIG    1       22.949 -21.193   6.148  0.00  0.00    +0.012 C 
ENDBRANCH  15  17
ENDBRANCH  13  15
ENDBRANCH   1  13
TORSDOF 4
ENDMDL
MODEL 9
REMARK VINA RESULT:      -6.0      2.486      5.894
REMARK  Name = *****
REMARK                            x       y       z     vdW  Elec       q    Type
REMARK                         _______ _______ _______ _____ _____    ______ ____
ROOT
ATOM      1  C   LIG    1       27.251 -20.375   7.624  0.00  0.00    +0.059 C 
ATOM      2  C   LIG    1       27.146 -21.910   7.908  0.00  0.00    +0.063 C 
ATOM      3  C   LIG    1       26.176 -22.590   7.003  0.00  0.00    +0.016 A 
ATOM      4  C   LIG    1       25.531 -22.011   5.936  0.00  0.00    +0.054 A 
ATOM      5  N   LIG    1       24.724 -22.856   5.199  0.00  0.00    -0.230 NA
ATOM      6  C   LIG    1       24.766 -24.063   5.708  0.00  0.00    +0.156 A 
ATOM      7  C   LIG    1       25.704 -20.576   5.588  0.00  0.00    +0.058 C 
ATOM      8  S   LIG    1       25.776 -24.240   7.100  0.00  0.00    -0.057 S 
ATOM      9  C   LIG    1       27.052 -20.056   6.116  0.00  0.00    +0.025 C 
ENDROOT
BRANCH   6  10
ATOM     10  N   LIG    1       24.111 -25.117   5.198  0.00  0.00    -0.338 N 
ATOM     11  H   LIG    1       24.429 -26.043   5.461  0.00  0.00    +0.144 HD
ATOM     12  H   LIG    1       23.835 -25.033   4.228  0.00  0.00    +0.144 HD
ENDBRANCH   6  10
BRANCH   1  13
ATOM     13  N   LIG    1       28.547 -19.888   8.156  0.00  0.00    -0.313 NA
ATOM     14  H   LIG    1       28.590 -18.873   8.057  0.00  0.00    +0.122 HD
BRANCH  13  15
ATOM     15  C   LIG    1       29.725 -20.472   7.507  0.00  0.00    +0.081 C 
BRANCH  15  17
ATOM     16  C   LIG    1       31.492 -18.725   8.004  0.00  0.00    +0.005 C 
ATOM     17  C   LIG    1       30.629 -19.376   6.926  0.00  0.00    +0.012 C 
ENDBRANCH  15  17
ENDBRANCH  13  15
ENDBRANCH   1  13
TORSDOF 4
ENDMDL
