MODEL 1
REMARK VINA RESULT:      -3.3      0.000      0.000
REMARK  Name = *****
REMARK                            x       y       z     vdW  Elec       q    Type
REMARK                         _______ _______ _______ _____ _____    ______ ____
ROOT
ATOM      1  C   LIG    1       25.991 -17.842   4.061  0.00  0.00    +0.170 C 
ENDROOT
BRANCH   1   2
ATOM      2  C   LIG    1       24.742 -18.719   4.098  0.00  0.00    +0.001 A 
ATOM      3  C   LIG    1       23.452 -18.190   4.304  0.00  0.00    +0.048 A 
ATOM      4 CL   LIG    1       23.172 -16.488   4.421  0.00  0.00    -0.083 Cl
ATOM      5  C   LIG    1       22.342 -19.030   4.442  0.00  0.00    +0.040 A 
ATOM      6  C   LIG    1       22.507 -20.409   4.381  0.00  0.00    +0.042 A 
ATOM      7 CL   LIG    1       21.151 -21.446   4.587  0.00  0.00    -0.084 Cl
ATOM      8  C   LIG    1       23.767 -20.956   4.168  0.00  0.00    +0.020 A 
ATOM      9  C   LIG    1       24.872 -20.118   4.026  0.00  0.00    +0.009 A 
ENDBRANCH   1   2
BRANCH   1  10
ATOM     10  O   LIG    1       25.975 -16.845   3.022  0.00  0.00    -0.365 OA
BRANCH  10  11
ATOM     11  C   LIG    1       26.734 -15.672   3.301  0.00  0.00    +0.198 C 
BRANCH  11  14
ATOM     12 CL   LIG    1       26.820 -13.701   5.964  0.00  0.00    -0.075 Cl
ATOM     13  C   LIG    1       25.827 -13.625   4.559  0.00  0.00    +0.083 A 
ATOM     14  C   LIG    1       25.824 -14.494   3.488  0.00  0.00    +0.004 A 
ATOM     15  C   LIG    1       24.802 -14.099   2.552  0.00  0.00    +0.015 A 
ATOM     16  C   LIG    1       24.159 -12.934   2.918  0.00  0.00    +0.047 A 
ATOM     17  S   LIG    1       24.728 -12.343   4.418  0.00  0.00    -0.085 S 
ENDBRANCH  11  14
ENDBRANCH  10  11
ENDBRANCH   1  10
BRANCH   1  18
ATOM     18  C   LIG    1       27.264 -18.705   3.866  0.00  0.00    +0.159 C 
BRANCH  18  19
ATOM     19  N   LIG    1       28.012 -18.981   5.084  0.00  0.00    -0.334 N 
ATOM     20  C   LIG    1       27.753 -19.983   5.974  0.00  0.00    +0.199 A 
ATOM     21  N   LIG    1       28.627 -19.985   6.963  0.00  0.00    -0.244 NA
ATOM     22  C   LIG    1       29.464 -18.935   6.704  0.00  0.00    +0.130 A 
ATOM     23  C   LIG    1       29.089 -18.279   5.555  0.00  0.00    +0.107 A 
ENDBRANCH  18  19
ENDBRANCH   1  18
TORSDOF 6
ENDMDL
MODEL 2
REMARK VINA RESULT:      -3.1      3.048      6.043
REMARK  Name = *****
REMARK                            x       y       z     vdW  Elec       q    Type
REMARK                         _______ _______ _______ _____ _____    ______ ____
ROOT
ATOM      1  C   LIG    1       25.062 -17.435   4.011  0.00  0.00    +0.170 C 
ENDROOT
BRANCH   1   2
ATOM      2  C   LIG    1       25.045 -15.944   3.684  0.00  0.00    +0.001 A 
ATOM      3  C   LIG    1       23.949 -15.114   3.995  0.00  0.00    +0.048 A 
ATOM      4 CL   LIG    1       22.579 -15.701   4.872  0.00  0.00    -0.083 Cl
ATOM      5  C   LIG    1       23.919 -13.777   3.585  0.00  0.00    +0.040 A 
ATOM      6  C   LIG    1       24.980 -13.253   2.855  0.00  0.00    +0.042 A 
ATOM      7 CL   LIG    1       24.930 -11.620   2.319  0.00  0.00    -0.084 Cl
ATOM      8  C   LIG    1       26.078 -14.047   2.546  0.00  0.00    +0.020 A 
ATOM      9  C   LIG    1       26.109 -15.379   2.958  0.00  0.00    +0.009 A 
ENDBRANCH   1   2
BRANCH   1  10
ATOM     10  O   LIG    1       26.150 -18.155   3.403  0.00  0.00    -0.365 OA
BRANCH  10  11
ATOM     11  C   LIG    1       26.395 -19.449   3.946  0.00  0.00    +0.198 C 
BRANCH  11  14
ATOM     12 CL   LIG    1       26.419 -21.349   6.661  0.00  0.00    -0.075 Cl
ATOM     13  C   LIG    1       27.545 -20.160   6.129  0.00  0.00    +0.083 A 
ATOM     14  C   LIG    1       27.468 -19.382   4.993  0.00  0.00    +0.004 A 
ATOM     15  C   LIG    1       28.588 -18.477   4.953  0.00  0.00    +0.015 A 
ATOM     16  C   LIG    1       29.474 -18.672   5.993  0.00  0.00    +0.047 A 
ATOM     17  S   LIG    1       28.935 -19.894   7.061  0.00  0.00    -0.085 S 
ENDBRANCH  11  14
ENDBRANCH  10  11
ENDBRANCH   1  10
BRANCH   1  18
ATOM     18  C   LIG    1       23.742 -18.112   3.563  0.00  0.00    +0.159 C 
BRANCH  18  19
ATOM     19  N   LIG    1       23.362 -19.290   4.329  0.00  0.00    -0.334 N 
ATOM     20  C   LIG    1       22.857 -19.292   5.598  0.00  0.00    +0.199 A 
ATOM     21  N   LIG    1       22.590 -20.518   6.006  0.00  0.00    -0.244 NA
ATOM     22  C   LIG    1       22.954 -21.330   4.967  0.00  0.00    +0.130 A 
ATOM     23  C   LIG    1       23.461 -20.592   3.922  0.00  0.00    +0.107 A 
ENDBRANCH  18  19
ENDBRANCH   1  18
TORSDOF 6
ENDMDL
MODEL 3
REMARK VINA RESULT:      -2.7      2.372      5.449
REMARK  Name = *****
REMARK                            x       y       z     vdW  Elec       q    Type
REMARK                         _______ _______ _______ _____ _____    ______ ____
ROOT
ATOM      1  C   LIG    1       27.018 -16.902   3.578  0.00  0.00    +0.170 C 
ENDROOT
BRANCH   1   2
ATOM      2  C   LIG    1       26.224 -15.604   3.698  0.00  0.00    +0.001 A 
ATOM      3  C   LIG    1       26.846 -14.342   3.778  0.00  0.00    +0.048 A 
ATOM      4 CL   LIG    1       28.559 -14.158   3.637  0.00  0.00    -0.083 Cl
ATOM      5  C   LIG    1       26.096 -13.181   3.998  0.00  0.00    +0.040 A 
ATOM      6  C   LIG    1       24.715 -13.268   4.144  0.00  0.00    +0.042 A 
ATOM      7 CL   LIG    1       23.794 -11.848   4.450  0.00  0.00    -0.084 Cl
ATOM      8  C   LIG    1       24.076 -14.499   4.058  0.00  0.00    +0.020 A 
ATOM      9  C   LIG    1       24.825 -15.655   3.836  0.00  0.00    +0.009 A 
ENDBRANCH   1   2
BRANCH   1  10
ATOM     10  O   LIG    1       26.285 -18.075   3.976  0.00  0.00    -0.365 OA
BRANCH  10  11
ATOM     11  C   LIG    1       25.049 -18.273   3.294  0.00  0.00    +0.198 C 
BRANCH  11  14
ATOM     12 CL   LIG    1       21.967 -17.900   4.454  0.00  0.00    -0.075 Cl
ATOM     13  C   LIG    1       22.978 -19.293   4.420  0.00  0.00    +0.083 A 
ATOM     14  C   LIG    1       24.268 -19.380   3.941  0.00  0.00    +0.004 A 
ATOM     15  C   LIG    1       24.770 -20.714   4.151  0.00  0.00    +0.015 A 
ATOM     16  C   LIG    1       23.826 -21.565   4.690  0.00  0.00    +0.047 A 
ATOM     17  S   LIG    1       22.355 -20.755   5.010  0.00  0.00    -0.085 S 
ENDBRANCH  11  14
ENDBRANCH  10  11
ENDBRANCH   1  10
BRANCH   1  18
ATOM     18  C   LIG    1       28.307 -16.840   4.436  0.00  0.00    +0.159 C 
BRANCH  18  19
ATOM     19  N   LIG    1       28.590 -18.039   5.211  0.00  0.00    -0.334 N 
ATOM     20  C   LIG    1       29.460 -18.129   6.259  0.00  0.00    +0.199 A 
ATOM     21  N   LIG    1       29.475 -19.346   6.768  0.00  0.00    -0.244 NA
ATOM     22  C   LIG    1       28.596 -20.065   6.006  0.00  0.00    +0.130 A 
ATOM     23  C   LIG    1       28.051 -19.281   5.015  0.00  0.00    +0.107 A 
ENDBRANCH  18  19
ENDBRANCH   1  18
TORSDOF 6
ENDMDL
MODEL 4
REMARK VINA RESULT:      -2.6      3.500      6.118
REMARK  Name = *****
REMARK                            x       y       z     vdW  Elec       q    Type
REMARK                         _______ _______ _______ _____ _____    ______ ____
ROOT
ATOM      1  C   LIG    1       25.872 -15.562   2.976  0.00  0.00    +0.170 C 
ENDROOT
BRANCH   1   2
ATOM      2  C   LIG    1       24.956 -14.528   3.624  0.00  0.00    +0.001 A 
ATOM      3  C   LIG    1       24.903 -13.188   3.192  0.00  0.00    +0.048 A 
ATOM      4 CL   LIG    1       25.795 -12.636   1.818  0.00  0.00    -0.083 Cl
ATOM      5  C   LIG    1       24.135 -12.239   3.877  0.00  0.00    +0.040 A 
ATOM      6  C   LIG    1       23.414 -12.617   5.005  0.00  0.00    +0.042 A 
ATOM      7 CL   LIG    1       22.498 -11.447   5.870  0.00  0.00    -0.084 Cl
ATOM      8  C   LIG    1       23.440 -13.935   5.445  0.00  0.00    +0.020 A 
ATOM      9  C   LIG    1       24.203 -14.880   4.760  0.00  0.00    +0.009 A 
ENDBRANCH   1   2
BRANCH   1  10
ATOM     10  O   LIG    1       25.319 -16.890   2.935  0.00  0.00    -0.365 OA
BRANCH  10  11
ATOM     11  C   LIG    1       26.189 -17.921   3.394  0.00  0.00    +0.198 C 
BRANCH  11  14
ATOM     12 CL   LIG    1       27.424 -20.079   5.585  0.00  0.00    -0.075 Cl
ATOM     13  C   LIG    1       25.845 -19.968   4.906  0.00  0.00    +0.083 A 
ATOM     14  C   LIG    1       25.396 -19.054   3.976  0.00  0.00    +0.004 A 
ATOM     15  C   LIG    1       24.026 -19.347   3.637  0.00  0.00    +0.015 A 
ATOM     16  C   LIG    1       23.502 -20.390   4.372  0.00  0.00    +0.047 A 
ATOM     17  S   LIG    1       24.666 -21.070   5.425  0.00  0.00    -0.085 S 
ENDBRANCH  11  14
ENDBRANCH  10  11
ENDBRANCH   1  10
BRANCH   1  18
ATOM     18  C   LIG    1       27.228 -15.640   3.722  0.00  0.00    +0.159 C 
BRANCH  18  19
ATOM     19  N   LIG    1       27.763 -14.360   4.163  0.00  0.00    -0.334 N 
ATOM     20  C   LIG    1       28.633 -13.572   3.466  0.00  0.00    +0.199 A 
ATOM     21  N   LIG    1       28.910 -12.463   4.126  0.00  0.00    -0.244 NA
ATOM     22  C   LIG    1       28.204 -12.554   5.294  0.00  0.00    +0.130 A 
ATOM     23  C   LIG    1       27.503 -13.736   5.353  0.00  0.00    +0.107 A 
ENDBRANCH  18  19
ENDBRANCH   1  18
TORSDOF 6
ENDMDL
MODEL 5
REMARK VINA RESULT:      -2.6      3.105      6.133
REMARK  Name = *****
REMARK                            x       y       z     vdW  Elec       q    Type
REMARK                         _______ _______ _______ _____ _____    ______ ____
ROOT
ATOM      1  C   LIG    1       25.215 -17.252   4.030  0.00  0.00    +0.170 C 
ENDROOT
BRANCH   1   2
ATOM      2  C   LIG    1       25.216 -15.772   3.657  0.00  0.00    +0.001 A 
ATOM      3  C   LIG    1       24.129 -14.920   3.939  0.00  0.00    +0.048 A 
ATOM      4 CL   LIG    1       22.751 -15.463   4.832  0.00  0.00    -0.083 Cl
ATOM      5  C   LIG    1       24.115 -13.595   3.488  0.00  0.00    +0.040 A 
ATOM      6  C   LIG    1       25.184 -13.108   2.744  0.00  0.00    +0.042 A 
ATOM      7 CL   LIG    1       25.154 -11.492   2.156  0.00  0.00    -0.084 Cl
ATOM      8  C   LIG    1       26.273 -13.924   2.462  0.00  0.00    +0.020 A 
ATOM      9  C   LIG    1       26.287 -15.243   2.916  0.00  0.00    +0.009 A 
ENDBRANCH   1   2
BRANCH   1  10
ATOM     10  O   LIG    1       26.452 -17.929   3.742  0.00  0.00    -0.365 OA
BRANCH  10  11
ATOM     11  C   LIG    1       26.404 -19.348   3.859  0.00  0.00    +0.198 C 
BRANCH  11  14
ATOM     12 CL   LIG    1       29.231 -17.977   4.912  0.00  0.00    -0.075 Cl
ATOM     13  C   LIG    1       28.294 -19.249   5.596  0.00  0.00    +0.083 A 
ATOM     14  C   LIG    1       27.130 -19.794   5.095  0.00  0.00    +0.004 A 
ATOM     15  C   LIG    1       26.699 -20.874   5.946  0.00  0.00    +0.015 A 
ATOM     16  C   LIG    1       27.497 -21.030   7.061  0.00  0.00    +0.047 A 
ATOM     17  S   LIG    1       28.805 -19.928   7.062  0.00  0.00    -0.085 S 
ENDBRANCH  11  14
ENDBRANCH  10  11
ENDBRANCH   1  10
BRANCH   1  18
ATOM     18  C   LIG    1       24.081 -18.006   3.289  0.00  0.00    +0.159 C 
BRANCH  18  19
ATOM     19  N   LIG    1       23.501 -19.121   4.022  0.00  0.00    -0.334 N 
ATOM     20  C   LIG    1       22.565 -19.029   5.012  0.00  0.00    +0.199 A 
ATOM     21  N   LIG    1       22.223 -20.221   5.462  0.00  0.00    -0.244 NA
ATOM     22  C   LIG    1       22.981 -21.107   4.746  0.00  0.00    +0.130 A 
ATOM     23  C   LIG    1       23.802 -20.446   3.861  0.00  0.00    +0.107 A 
ENDBRANCH  18  19
ENDBRANCH   1  18
TORSDOF 6
ENDMDL
MODEL 6
REMARK VINA RESULT:      -2.2      1.343      1.856
REMARK  Name = *****
REMARK                            x       y       z     vdW  Elec       q    Type
REMARK                         _______ _______ _______ _____ _____    ______ ____
ROOT
ATOM      1  C   LIG    1       25.637 -18.383   4.411  0.00  0.00    +0.170 C 
ENDROOT
BRANCH   1   2
ATOM      2  C   LIG    1       24.276 -19.066   4.514  0.00  0.00    +0.001 A 
ATOM      3  C   LIG    1       24.030 -20.132   5.403  0.00  0.00    +0.048 A 
ATOM      4 CL   LIG    1       25.225 -20.678   6.527  0.00  0.00    -0.083 Cl
ATOM      5  C   LIG    1       22.805 -20.809   5.396  0.00  0.00    +0.040 A 
ATOM      6  C   LIG    1       21.813 -20.431   4.497  0.00  0.00    +0.042 A 
ATOM      7 CL   LIG    1       20.319 -21.284   4.461  0.00  0.00    -0.084 Cl
ATOM      8  C   LIG    1       22.025 -19.376   3.619  0.00  0.00    +0.020 A 
ATOM      9  C   LIG    1       23.246 -18.701   3.629  0.00  0.00    +0.009 A 
ENDBRANCH   1   2
BRANCH   1  10
ATOM     10  O   LIG    1       25.723 -17.406   3.357  0.00  0.00    -0.365 OA
BRANCH  10  11
ATOM     11  C   LIG    1       26.551 -16.283   3.643  0.00  0.00    +0.198 C 
BRANCH  11  14
ATOM     12 CL   LIG    1       23.516 -15.416   4.655  0.00  0.00    -0.075 Cl
ATOM     13  C   LIG    1       24.623 -14.586   3.629  0.00  0.00    +0.083 A 
ATOM     14  C   LIG    1       25.871 -15.012   3.224  0.00  0.00    +0.004 A 
ATOM     15  C   LIG    1       26.442 -14.041   2.326  0.00  0.00    +0.015 A 
ATOM     16  C   LIG    1       25.648 -12.924   2.167  0.00  0.00    +0.047 A 
ATOM     17  S   LIG    1       24.185 -13.058   3.041  0.00  0.00    -0.085 S 
ENDBRANCH  11  14
ENDBRANCH  10  11
ENDBRANCH   1  10
BRANCH   1  18
ATOM     18  C   LIG    1       26.760 -19.426   4.178  0.00  0.00    +0.159 C 
BRANCH  18  19
ATOM     19  N   LIG    1       27.806 -19.440   5.190  0.00  0.00    -0.334 N 
ATOM     20  C   LIG    1       28.103 -20.483   6.021  0.00  0.00    +0.199 A 
ATOM     21  N   LIG    1       29.120 -20.194   6.809  0.00  0.00    -0.244 NA
ATOM     22  C   LIG    1       29.475 -18.913   6.484  0.00  0.00    +0.130 A 
ATOM     23  C   LIG    1       28.657 -18.414   5.497  0.00  0.00    +0.107 A 
ENDBRANCH  18  19
ENDBRANCH   1  18
TORSDOF 6
ENDMDL
MODEL 7
REMARK VINA RESULT:      -1.9      3.282      4.820
REMARK  Name = *****
REMARK                            x       y       z     vdW  Elec       q    Type
REMARK                         _______ _______ _______ _____ _____    ______ ____
ROOT
ATOM      1  C   LIG    1       24.454 -16.019   3.586  0.00  0.00    +0.170 C 
ENDROOT
BRANCH   1   2
ATOM      2  C   LIG    1       23.875 -17.364   4.016  0.00  0.00    +0.001 A 
ATOM      3  C   LIG    1       24.586 -18.573   3.877  0.00  0.00    +0.048 A 
ATOM      4 CL   LIG    1       26.218 -18.611   3.306  0.00  0.00    -0.083 Cl
ATOM      5  C   LIG    1       23.987 -19.801   4.179  0.00  0.00    +0.040 A 
ATOM      6  C   LIG    1       22.668 -19.836   4.619  0.00  0.00    +0.042 A 
ATOM      7 CL   LIG    1       21.917 -21.346   4.957  0.00  0.00    -0.084 Cl
ATOM      8  C   LIG    1       21.949 -18.658   4.776  0.00  0.00    +0.020 A 
ATOM      9  C   LIG    1       22.549 -17.434   4.478  0.00  0.00    +0.009 A 
ENDBRANCH   1   2
BRANCH   1  10
ATOM     10  O   LIG    1       25.736 -15.720   4.167  0.00  0.00    -0.365 OA
BRANCH  10  11
ATOM     11  C   LIG    1       26.746 -15.339   3.237  0.00  0.00    +0.198 C 
BRANCH  11  14
ATOM     12 CL   LIG    1       26.088 -13.857   6.128  0.00  0.00    -0.075 Cl
ATOM     13  C   LIG    1       27.300 -13.512   4.955  0.00  0.00    +0.083 A 
ATOM     14  C   LIG    1       27.511 -14.155   3.753  0.00  0.00    +0.004 A 
ATOM     15  C   LIG    1       28.594 -13.517   3.049  0.00  0.00    +0.015 A 
ATOM     16  C   LIG    1       29.182 -12.502   3.776  0.00  0.00    +0.047 A 
ATOM     17  S   LIG    1       28.399 -12.262   5.277  0.00  0.00    -0.085 S 
ENDBRANCH  11  14
ENDBRANCH  10  11
ENDBRANCH   1  10
BRANCH   1  18
ATOM     18  C   LIG    1       23.490 -14.862   3.952  0.00  0.00    +0.159 C 
BRANCH  18  19
ATOM     19  N   LIG    1       23.829 -13.571   3.372  0.00  0.00    -0.334 N 
ATOM     20  C   LIG    1       24.228 -13.351   2.085  0.00  0.00    +0.199 A 
ATOM     21  N   LIG    1       24.438 -12.067   1.860  0.00  0.00    -0.244 NA
ATOM     22  C   LIG    1       24.181 -11.447   3.051  0.00  0.00    +0.130 A 
ATOM     23  C   LIG    1       23.825 -12.363   4.014  0.00  0.00    +0.107 A 
ENDBRANCH  18  19
ENDBRANCH   1  18
TORSDOF 6
ENDMDL
MODEL 8
REMARK VINA RESULT:      -1.4      3.667      7.190
REMARK  Name = *****
REMARK                            x       y       z     vdW  Elec       q    Type
REMARK                         _______ _______ _______ _____ _____    ______ ____
ROOT
ATOM      1  C   LIG    1       25.224 -15.757   4.107  0.00  0.00    +0.170 C 
ENDROOT
BRANCH   1   2
ATOM      2  C   LIG    1       26.354 -14.732   4.118  0.00  0.00    +0.001 A 
ATOM      3  C   LIG    1       26.616 -13.907   5.230  0.00  0.00    +0.048 A 
ATOM      4 CL   LIG    1       25.744 -14.072   6.715  0.00  0.00    -0.083 Cl
ATOM      5  C   LIG    1       27.588 -12.902   5.170  0.00  0.00    +0.040 A 
ATOM      6  C   LIG    1       28.305 -12.705   3.995  0.00  0.00    +0.042 A 
ATOM      7 CL   LIG    1       29.475 -11.447   3.905  0.00  0.00    -0.084 Cl
ATOM      8  C   LIG    1       28.074 -13.512   2.888  0.00  0.00    +0.020 A 
ATOM      9  C   LIG    1       27.108 -14.516   2.951  0.00  0.00    +0.009 A 
ENDBRANCH   1   2
BRANCH   1  10
ATOM     10  O   LIG    1       25.322 -16.725   3.046  0.00  0.00    -0.365 OA
BRANCH  10  11
ATOM     11  C   LIG    1       26.103 -17.876   3.350  0.00  0.00    +0.198 C 
BRANCH  11  14
ATOM     12 CL   LIG    1       27.214 -20.153   5.487  0.00  0.00    -0.075 Cl
ATOM     13  C   LIG    1       25.636 -19.914   4.842  0.00  0.00    +0.083 A 
ATOM     14  C   LIG    1       25.238 -18.956   3.933  0.00  0.00    +0.004 A 
ATOM     15  C   LIG    1       23.844 -19.140   3.618  0.00  0.00    +0.015 A 
ATOM     16  C   LIG    1       23.258 -20.152   4.350  0.00  0.00    +0.047 A 
ATOM     17  S   LIG    1       24.388 -20.932   5.370  0.00  0.00    -0.085 S 
ENDBRANCH  11  14
ENDBRANCH  10  11
ENDBRANCH   1  10
BRANCH   1  18
ATOM     18  C   LIG    1       23.846 -15.058   3.981  0.00  0.00    +0.159 C 
BRANCH  18  19
ATOM     19  N   LIG    1       23.896 -13.676   3.527  0.00  0.00    -0.334 N 
ATOM     20  C   LIG    1       23.707 -12.570   4.305  0.00  0.00    +0.199 A 
ATOM     21  N   LIG    1       23.841 -11.461   3.603  0.00  0.00    -0.244 NA
ATOM     22  C   LIG    1       24.108 -11.873   2.327  0.00  0.00    +0.130 A 
ATOM     23  C   LIG    1       24.123 -13.247   2.248  0.00  0.00    +0.107 A 
ENDBRANCH  18  19
ENDBRANCH   1  18
TORSDOF 6
ENDMDL
MODEL 9
REMARK VINA RESULT:      -1.4      2.457      5.530
REMARK  Name = *****
REMARK                            x       y       z     vdW  Elec       q    Type
REMARK                         _______ _______ _______ _____ _____    ______ ____
ROOT
ATOM      1  C   LIG    1       26.591 -16.904   3.401  0.00  0.00    +0.170 C 
ENDROOT
BRANCH   1   2
ATOM      2  C   LIG    1       25.990 -15.509   3.254  0.00  0.00    +0.001 A 
ATOM      3  C   LIG    1       24.690 -15.195   3.698  0.00  0.00    +0.048 A 
ATOM      4 CL   LIG    1       23.713 -16.342   4.546  0.00  0.00    -0.083 Cl
ATOM      5  C   LIG    1       24.127 -13.937   3.451  0.00  0.00    +0.040 A 
ATOM      6  C   LIG    1       24.854 -12.980   2.752  0.00  0.00    +0.042 A 
ATOM      7 CL   LIG    1       24.153 -11.447   2.415  0.00  0.00    -0.084 Cl
ATOM      8  C   LIG    1       26.142 -13.261   2.313  0.00  0.00    +0.020 A 
ATOM      9  C   LIG    1       26.704 -14.513   2.563  0.00  0.00    +0.009 A 
ENDBRANCH   1   2
BRANCH   1  10
ATOM     10  O   LIG    1       25.769 -17.819   4.147  0.00  0.00    -0.365 OA
BRANCH  10  11
ATOM     11  C   LIG    1       24.990 -18.713   3.357  0.00  0.00    +0.198 C 
BRANCH  11  14
ATOM     12 CL   LIG    1       21.734 -18.541   3.951  0.00  0.00    -0.075 Cl
ATOM     13  C   LIG    1       22.904 -19.679   4.502  0.00  0.00    +0.083 A 
ATOM     14  C   LIG    1       24.257 -19.684   4.236  0.00  0.00    +0.004 A 
ATOM     15  C   LIG    1       24.880 -20.779   4.935  0.00  0.00    +0.015 A 
ATOM     16  C   LIG    1       23.973 -21.572   5.609  0.00  0.00    +0.047 A 
ATOM     17  S   LIG    1       22.379 -20.971   5.464  0.00  0.00    -0.085 S 
ENDBRANCH  11  14
ENDBRANCH  10  11
ENDBRANCH   1  10
BRANCH   1  18
ATOM     18  C   LIG    1       27.974 -16.837   4.097  0.00  0.00    +0.159 C 
BRANCH  18  19
ATOM     19  N   LIG    1       28.308 -17.994   4.914  0.00  0.00    -0.334 N 
ATOM     20  C   LIG    1       27.699 -19.215   4.862  0.00  0.00    +0.199 A 
ATOM     21  N   LIG    1       28.247 -20.062   5.712  0.00  0.00    -0.244 NA
ATOM     22  C   LIG    1       29.230 -19.351   6.344  0.00  0.00    +0.130 A 
ATOM     23  C   LIG    1       29.272 -18.056   5.883  0.00  0.00    +0.107 A 
ENDBRANCH  18  19
ENDBRANCH   1  18
TORSDOF 6
ENDMDL
