MODEL 1
REMARK VINA RESULT:      -6.5      0.000      0.000
REMARK  Name = *****
REMARK                            x       y       z     vdW  Elec       q    Type
REMARK                         _______ _______ _______ _____ _____    ______ ____
ROOT
ATOM      1  C   LIG    1       31.047 -18.479   8.669  0.00  0.00    +0.251 C 
ATOM      2  C   LIG    1       30.929 -19.271   7.344  0.00  0.00    +0.259 C 
ATOM      3  O   LIG    1       30.723 -18.823   6.228  0.00  0.00    -0.272 OA
ATOM      4  N   LIG    1       31.152 -20.587   7.622  0.00  0.00    -0.237 N 
ATOM      5  H   LIG    1       31.165 -21.324   6.938  0.00  0.00    +0.159 HD
ATOM      6  C   LIG    1       31.541 -20.741   8.908  0.00  0.00    +0.308 C 
ATOM      7  O   LIG    1       31.893 -21.783   9.433  0.00  0.00    -0.252 OA
ATOM      8  N   LIG    1       31.512 -19.521   9.531  0.00  0.00    -0.273 N 
ATOM      9  H   LIG    1       31.718 -19.412  10.513  0.00  0.00    +0.152 HD
ENDROOT
BRANCH   1  14
ATOM     10  N   LIG    1       33.024 -15.608   9.505  0.00  0.00    -0.313 N 
ATOM     11  H   LIG    1       33.803 -15.786   8.886  0.00  0.00    +0.146 HD
ATOM     12  H   LIG    1       33.260 -15.088  10.343  0.00  0.00    +0.146 HD
ATOM     13  C   LIG    1       32.170 -16.637   9.731  0.00  0.00    +0.299 C 
ATOM     14  N   LIG    1       32.002 -17.415   8.630  0.00  0.00    -0.274 N 
ATOM     15  H   LIG    1       32.084 -16.922   7.754  0.00  0.00    +0.152 HD
ATOM     16  O   LIG    1       31.659 -16.827  10.823  0.00  0.00    -0.253 OA
ENDBRANCH   1  14
TORSDOF 1
ENDMDL
MODEL 2
REMARK VINA RESULT:      -6.3      2.721      4.446
REMARK  Name = *****
REMARK                            x       y       z     vdW  Elec       q    Type
REMARK                         _______ _______ _______ _____ _____    ______ ____
ROOT
ATOM      1  C   LIG    1       29.627 -20.446   7.355  0.00  0.00    +0.251 C 
ATOM      2  C   LIG    1       30.710 -19.362   7.569  0.00  0.00    +0.259 C 
ATOM      3  O   LIG    1       30.696 -18.209   7.171  0.00  0.00    -0.272 OA
ATOM      4  N   LIG    1       31.691 -19.900   8.348  0.00  0.00    -0.237 N 
ATOM      5  H   LIG    1       32.507 -19.406   8.668  0.00  0.00    +0.159 HD
ATOM      6  C   LIG    1       31.330 -21.127   8.787  0.00  0.00    +0.308 C 
ATOM      7  O   LIG    1       31.956 -21.825   9.566  0.00  0.00    -0.252 OA
ATOM      8  N   LIG    1       30.117 -21.455   8.241  0.00  0.00    -0.273 N 
ATOM      9  H   LIG    1       29.681 -22.352   8.395  0.00  0.00    +0.152 HD
ENDROOT
BRANCH   1  14
ATOM     10  N   LIG    1       26.090 -20.366   7.935  0.00  0.00    -0.313 N 
ATOM     11  H   LIG    1       26.083 -19.684   8.679  0.00  0.00    +0.146 HD
ATOM     12  H   LIG    1       25.328 -21.035   7.967  0.00  0.00    +0.146 HD
ATOM     13  C   LIG    1       27.286 -20.927   7.623  0.00  0.00    +0.299 C 
ATOM     14  N   LIG    1       28.312 -20.045   7.750  0.00  0.00    -0.274 N 
ATOM     15  H   LIG    1       28.064 -19.086   7.564  0.00  0.00    +0.152 HD
ATOM     16  O   LIG    1       27.389 -22.100   7.305  0.00  0.00    -0.253 OA
ENDBRANCH   1  14
TORSDOF 1
ENDMDL
MODEL 3
REMARK VINA RESULT:      -6.3      1.658      2.575
REMARK  Name = *****
REMARK                            x       y       z     vdW  Elec       q    Type
REMARK                         _______ _______ _______ _____ _____    ______ ____
ROOT
ATOM      1  C   LIG    1       31.376 -19.481   8.590  0.00  0.00    +0.251 C 
ATOM      2  C   LIG    1       31.221 -21.010   8.782  0.00  0.00    +0.259 C 
ATOM      3  O   LIG    1       31.955 -21.758   9.405  0.00  0.00    -0.272 OA
ATOM      4  N   LIG    1       30.064 -21.391   8.169  0.00  0.00    -0.237 N 
ATOM      5  H   LIG    1       29.700 -22.329   8.162  0.00  0.00    +0.159 HD
ATOM      6  C   LIG    1       29.377 -20.310   7.736  0.00  0.00    +0.308 C 
ATOM      7  O   LIG    1       28.270 -20.319   7.225  0.00  0.00    -0.252 OA
ATOM      8  N   LIG    1       30.111 -19.184   7.994  0.00  0.00    -0.273 N 
ATOM      9  H   LIG    1       29.808 -18.265   7.707  0.00  0.00    +0.152 HD
ENDROOT
BRANCH   1  14
ATOM     10  N   LIG    1       32.145 -16.943  11.002  0.00  0.00    -0.313 N 
ATOM     11  H   LIG    1       31.513 -17.241  11.730  0.00  0.00    +0.146 HD
ATOM     12  H   LIG    1       32.342 -15.948  10.994  0.00  0.00    +0.146 HD
ATOM     13  C   LIG    1       31.949 -17.462   9.764  0.00  0.00    +0.299 C 
ATOM     14  N   LIG    1       31.525 -18.752   9.812  0.00  0.00    -0.274 N 
ATOM     15  H   LIG    1       31.865 -19.274  10.604  0.00  0.00    +0.152 HD
ATOM     16  O   LIG    1       32.113 -16.803   8.751  0.00  0.00    -0.253 OA
ENDBRANCH   1  14
TORSDOF 1
ENDMDL
MODEL 4
REMARK VINA RESULT:      -6.1      7.292      8.107
REMARK  Name = *****
REMARK                            x       y       z     vdW  Elec       q    Type
REMARK                         _______ _______ _______ _____ _____    ______ ____
ROOT
ATOM      1  C   LIG    1       24.046 -20.887   7.228  0.00  0.00    +0.251 C 
ATOM      2  C   LIG    1       23.243 -20.812   5.907  0.00  0.00    +0.259 C 
ATOM      3  O   LIG    1       23.212 -19.891   5.108  0.00  0.00    -0.272 OA
ATOM      4  N   LIG    1       22.595 -22.001   5.745  0.00  0.00    -0.237 N 
ATOM      5  H   LIG    1       22.022 -22.239   4.953  0.00  0.00    +0.159 HD
ATOM      6  C   LIG    1       22.979 -22.885   6.694  0.00  0.00    +0.308 C 
ATOM      7  O   LIG    1       22.642 -24.054   6.766  0.00  0.00    -0.252 OA
ATOM      8  N   LIG    1       23.845 -22.264   7.555  0.00  0.00    -0.273 N 
ATOM      9  H   LIG    1       24.217 -22.726   8.371  0.00  0.00    +0.152 HD
ENDROOT
BRANCH   1  14
ATOM     10  N   LIG    1       27.496 -20.173   7.892  0.00  0.00    -0.313 N 
ATOM     11  H   LIG    1       27.882 -20.516   7.024  0.00  0.00    +0.146 HD
ATOM     12  H   LIG    1       28.125 -20.225   8.685  0.00  0.00    +0.146 HD
ATOM     13  C   LIG    1       26.223 -20.539   8.188  0.00  0.00    +0.299 C 
ATOM     14  N   LIG    1       25.443 -20.619   7.078  0.00  0.00    -0.274 N 
ATOM     15  H   LIG    1       25.698 -19.980   6.341  0.00  0.00    +0.152 HD
ATOM     16  O   LIG    1       25.870 -20.791   9.328  0.00  0.00    -0.253 OA
ENDBRANCH   1  14
TORSDOF 1
ENDMDL
MODEL 5
REMARK VINA RESULT:      -6.0      3.292      4.495
REMARK  Name = *****
REMARK                            x       y       z     vdW  Elec       q    Type
REMARK                         _______ _______ _______ _____ _____    ______ ____
ROOT
ATOM      1  C   LIG    1       29.063 -20.047   7.437  0.00  0.00    +0.251 C 
ATOM      2  C   LIG    1       29.417 -19.158   6.220  0.00  0.00    +0.259 C 
ATOM      3  O   LIG    1       30.475 -18.593   5.996  0.00  0.00    -0.272 OA
ATOM      4  N   LIG    1       28.342 -19.149   5.382  0.00  0.00    -0.237 N 
ATOM      5  H   LIG    1       28.307 -18.673   4.497  0.00  0.00    +0.159 HD
ATOM      6  C   LIG    1       27.399 -20.020   5.810  0.00  0.00    +0.308 C 
ATOM      7  O   LIG    1       26.363 -20.300   5.231  0.00  0.00    -0.252 OA
ATOM      8  N   LIG    1       27.810 -20.574   6.993  0.00  0.00    -0.273 N 
ATOM      9  H   LIG    1       27.234 -21.217   7.516  0.00  0.00    +0.152 HD
ENDROOT
BRANCH   1  14
ATOM     10  N   LIG    1       31.772 -22.028   8.695  0.00  0.00    -0.313 N 
ATOM     11  H   LIG    1       31.410 -22.938   8.449  0.00  0.00    +0.146 HD
ATOM     12  H   LIG    1       32.382 -22.021   9.505  0.00  0.00    +0.146 HD
ATOM     13  C   LIG    1       30.899 -20.990   8.670  0.00  0.00    +0.299 C 
ATOM     14  N   LIG    1       29.987 -21.113   7.670  0.00  0.00    -0.274 N 
ATOM     15  H   LIG    1       30.327 -21.595   6.852  0.00  0.00    +0.152 HD
ATOM     16  O   LIG    1       30.941 -20.087   9.489  0.00  0.00    -0.253 OA
ENDBRANCH   1  14
TORSDOF 1
ENDMDL
MODEL 6
REMARK VINA RESULT:      -5.9      8.910      9.431
REMARK  Name = *****
REMARK                            x       y       z     vdW  Elec       q    Type
REMARK                         _______ _______ _______ _____ _____    ______ ____
ROOT
ATOM      1  C   LIG    1       24.401 -22.929   6.305  0.00  0.00    +0.251 C 
ATOM      2  C   LIG    1       23.359 -24.060   6.479  0.00  0.00    +0.259 C 
ATOM      3  O   LIG    1       22.244 -23.974   6.969  0.00  0.00    -0.272 OA
ATOM      4  N   LIG    1       23.879 -25.195   5.931  0.00  0.00    -0.237 N 
ATOM      5  H   LIG    1       23.401 -26.079   5.878  0.00  0.00    +0.159 HD
ATOM      6  C   LIG    1       25.044 -24.926   5.299  0.00  0.00    +0.308 C 
ATOM      7  O   LIG    1       25.705 -25.713   4.644  0.00  0.00    -0.252 OA
ATOM      8  N   LIG    1       25.355 -23.605   5.482  0.00  0.00    -0.273 N 
ATOM      9  H   LIG    1       26.212 -23.199   5.137  0.00  0.00    +0.152 HD
ENDROOT
BRANCH   1  14
ATOM     10  N   LIG    1       22.828 -19.794   5.565  0.00  0.00    -0.313 N 
ATOM     11  H   LIG    1       23.311 -19.591   4.702  0.00  0.00    +0.146 HD
ATOM     12  H   LIG    1       22.525 -18.975   6.082  0.00  0.00    +0.146 HD
ATOM     13  C   LIG    1       23.353 -20.765   6.354  0.00  0.00    +0.299 C 
ATOM     14  N   LIG    1       23.900 -21.774   5.626  0.00  0.00    -0.274 N 
ATOM     15  H   LIG    1       23.453 -21.938   4.737  0.00  0.00    +0.152 HD
ATOM     16  O   LIG    1       23.347 -20.686   7.571  0.00  0.00    -0.253 OA
ENDBRANCH   1  14
TORSDOF 1
ENDMDL
MODEL 7
REMARK VINA RESULT:      -5.9      7.303      8.388
REMARK  Name = *****
REMARK                            x       y       z     vdW  Elec       q    Type
REMARK                         _______ _______ _______ _____ _____    ______ ____
ROOT
ATOM      1  C   LIG    1       25.037 -22.648   6.777  0.00  0.00    +0.251 C 
ATOM      2  C   LIG    1       23.499 -22.496   6.682  0.00  0.00    +0.259 C 
ATOM      3  O   LIG    1       22.856 -21.460   6.652  0.00  0.00    -0.272 OA
ATOM      4  N   LIG    1       22.962 -23.745   6.577  0.00  0.00    -0.237 N 
ATOM      5  H   LIG    1       21.981 -23.941   6.471  0.00  0.00    +0.159 HD
ATOM      6  C   LIG    1       23.938 -24.672   6.444  0.00  0.00    +0.308 C 
ATOM      7  O   LIG    1       23.775 -25.864   6.248  0.00  0.00    -0.252 OA
ATOM      8  N   LIG    1       25.155 -24.052   6.533  0.00  0.00    -0.273 N 
ATOM      9  H   LIG    1       26.025 -24.564   6.510  0.00  0.00    +0.152 HD
ENDROOT
BRANCH   1  14
ATOM     10  N   LIG    1       26.872 -20.101   5.047  0.00  0.00    -0.313 N 
ATOM     11  H   LIG    1       27.308 -20.687   4.349  0.00  0.00    +0.146 HD
ATOM     12  H   LIG    1       27.401 -19.272   5.292  0.00  0.00    +0.146 HD
ATOM     13  C   LIG    1       26.318 -20.723   6.117  0.00  0.00    +0.299 C 
ATOM     14  N   LIG    1       25.759 -21.916   5.783  0.00  0.00    -0.274 N 
ATOM     15  H   LIG    1       25.392 -21.956   4.845  0.00  0.00    +0.152 HD
ATOM     16  O   LIG    1       26.370 -20.250   7.240  0.00  0.00    -0.253 OA
ENDBRANCH   1  14
TORSDOF 1
ENDMDL
MODEL 8
REMARK VINA RESULT:      -5.8      2.069      4.175
REMARK  Name = *****
REMARK                            x       y       z     vdW  Elec       q    Type
REMARK                         _______ _______ _______ _____ _____    ______ ____
ROOT
ATOM      1  C   LIG    1       30.036 -18.563   8.764  0.00  0.00    +0.251 C 
ATOM      2  C   LIG    1       31.351 -18.984   9.464  0.00  0.00    +0.259 C 
ATOM      3  O   LIG    1       32.147 -19.834   9.100  0.00  0.00    -0.272 OA
ATOM      4  N   LIG    1       31.512 -18.191  10.561  0.00  0.00    -0.237 N 
ATOM      5  H   LIG    1       32.300 -18.228  11.186  0.00  0.00    +0.159 HD
ATOM      6  C   LIG    1       30.569 -17.222  10.590  0.00  0.00    +0.308 C 
ATOM      7  O   LIG    1       30.498 -16.311  11.397  0.00  0.00    -0.252 OA
ATOM      8  N   LIG    1       29.713 -17.404   9.537  0.00  0.00    -0.273 N 
ATOM      9  H   LIG    1       28.901 -16.822   9.395  0.00  0.00    +0.152 HD
ENDROOT
BRANCH   1  14
ATOM     10  N   LIG    1       29.780 -18.463   5.190  0.00  0.00    -0.313 N 
ATOM     11  H   LIG    1       30.067 -17.505   5.053  0.00  0.00    +0.146 HD
ATOM     12  H   LIG    1       29.149 -18.821   4.482  0.00  0.00    +0.146 HD
ATOM     13  C   LIG    1       29.438 -18.830   6.451  0.00  0.00    +0.299 C 
ATOM     14  N   LIG    1       30.196 -18.205   7.389  0.00  0.00    -0.274 N 
ATOM     15  H   LIG    1       31.134 -17.988   7.091  0.00  0.00    +0.152 HD
ATOM     16  O   LIG    1       28.526 -19.608   6.674  0.00  0.00    -0.253 OA
ENDBRANCH   1  14
TORSDOF 1
ENDMDL
MODEL 9
REMARK VINA RESULT:      -5.8      6.435      8.273
REMARK  Name = *****
REMARK                            x       y       z     vdW  Elec       q    Type
REMARK                         _______ _______ _______ _____ _____    ______ ____
ROOT
ATOM      1  C   LIG    1       24.884 -20.815   7.225  0.00  0.00    +0.251 C 
ATOM      2  C   LIG    1       25.956 -20.636   8.327  0.00  0.00    +0.259 C 
ATOM      3  O   LIG    1       25.835 -20.845   9.523  0.00  0.00    -0.272 OA
ATOM      4  N   LIG    1       27.115 -20.247   7.722  0.00  0.00    -0.237 N 
ATOM      5  H   LIG    1       27.986 -20.086   8.199  0.00  0.00    +0.159 HD
ATOM      6  C   LIG    1       26.986 -20.290   6.377  0.00  0.00    +0.308 C 
ATOM      7  O   LIG    1       27.870 -20.081   5.563  0.00  0.00    -0.252 OA
ATOM      8  N   LIG    1       25.701 -20.644   6.064  0.00  0.00    -0.273 N 
ATOM      9  H   LIG    1       25.370 -20.688   5.112  0.00  0.00    +0.152 HD
ENDROOT
BRANCH   1  14
ATOM     10  N   LIG    1       22.630 -23.542   6.647  0.00  0.00    -0.313 N 
ATOM     11  H   LIG    1       23.286 -24.299   6.772  0.00  0.00    +0.146 HD
ATOM     12  H   LIG    1       21.860 -23.748   6.020  0.00  0.00    +0.146 HD
ATOM     13  C   LIG    1       23.146 -22.299   6.476  0.00  0.00    +0.299 C 
ATOM     14  N   LIG    1       24.275 -22.109   7.208  0.00  0.00    -0.274 N 
ATOM     15  H   LIG    1       24.304 -22.627   8.073  0.00  0.00    +0.152 HD
ATOM     16  O   LIG    1       22.645 -21.487   5.717  0.00  0.00    -0.253 OA
ENDBRANCH   1  14
TORSDOF 1
ENDMDL
