MODEL 1
REMARK VINA RESULT:      -7.7      0.000      0.000
REMARK  Name = *****
REMARK                            x       y       z     vdW  Elec       q    Type
REMARK                         _______ _______ _______ _____ _____    ______ ____
ROOT
ATOM      1  C   LIG    1       25.466 -22.361   7.691  0.00  0.00    +0.037 C 
ATOM      2  C   LIG    1       23.990 -22.079   7.626  0.00  0.00    +0.062 C 
ATOM      3  C   LIG    1       23.249 -22.673   6.406  0.00  0.00    +0.079 C 
ATOM      4  C   LIG    1       24.210 -23.244   5.312  0.00  0.00    +0.122 C 
ATOM      5  C   LIG    1       25.351 -24.115   5.911  0.00  0.00    +0.164 C 
ATOM      6  C   LIG    1       26.068 -23.319   6.965  0.00  0.00    +0.017 C 
ENDROOT
BRANCH   4   7
ATOM      7  N   LIG    1       24.767 -22.159   4.472  0.00  0.00    -0.308 N 
ATOM      8  H   LIG    1       25.750 -22.183   4.230  0.00  0.00    +0.149 HD
ATOM      9  C   LIG    1       24.028 -21.044   4.146  0.00  0.00    +0.210 C 
ATOM     10  O   LIG    1       22.847 -20.909   4.450  0.00  0.00    -0.276 OA
ATOM     11  C   LIG    1       24.792 -19.979   3.404  0.00  0.00    +0.109 C 
ENDBRANCH   4   7
BRANCH   3  12
ATOM     12  N   LIG    1       22.233 -23.639   6.866  0.00  0.00    -0.325 NA
ATOM     13  H   LIG    1       22.645 -24.250   7.572  0.00  0.00    +0.118 HD
ATOM     14  H   LIG    1       21.460 -23.144   7.315  0.00  0.00    +0.118 HD
ENDBRANCH   3  12
BRANCH   1  15
ATOM     15  C   LIG    1       26.224 -21.490   8.642  0.00  0.00    +0.335 C 
ATOM     16  O   LIG    1       25.716 -20.876   9.547  0.00  0.00    -0.245 OA
BRANCH  15  17
ATOM     17  O   LIG    1       27.546 -21.499   8.312  0.00  0.00    -0.462 OA
BRANCH  17  19
ATOM     18  C   LIG    1       28.759 -20.602   6.472  0.00  0.00    +0.048 C 
ATOM     19  C   LIG    1       28.040 -20.275   7.767  0.00  0.00    +0.229 C 
ENDBRANCH  17  19
ENDBRANCH  15  17
ENDBRANCH   1  15
BRANCH   5  20
ATOM     20  O   LIG    1       24.975 -25.353   6.521  0.00  0.00    -0.367 OA
BRANCH  20  21
ATOM     21  C   LIG    1       24.674 -26.453   5.650  0.00  0.00    +0.119 C 
BRANCH  21  22
ATOM     22  C   LIG    1       24.400 -27.683   6.542  0.00  0.00    +0.028 C 
ATOM     23  C   LIG    1       24.086 -28.976   5.797  0.00  0.00    +0.006 C 
ENDBRANCH  21  22
BRANCH  21  24
ATOM     24  C   LIG    1       25.714 -26.682   4.538  0.00  0.00    +0.028 C 
ATOM     25  C   LIG    1       27.082 -27.212   4.946  0.00  0.00    +0.006 C 
ENDBRANCH  21  24
ENDBRANCH  20  21
ENDBRANCH   5  20
TORSDOF 9
ENDMDL
MODEL 2
REMARK VINA RESULT:      -7.5      2.103      5.984
REMARK  Name = *****
REMARK                            x       y       z     vdW  Elec       q    Type
REMARK                         _______ _______ _______ _____ _____    ______ ____
ROOT
ATOM      1  C   LIG    1       23.750 -20.832   6.091  0.00  0.00    +0.037 C 
ATOM      2  C   LIG    1       23.536 -21.624   7.352  0.00  0.00    +0.062 C 
ATOM      3  C   LIG    1       24.754 -22.440   7.844  0.00  0.00    +0.079 C 
ATOM      4  C   LIG    1       25.918 -22.510   6.802  0.00  0.00    +0.122 C 
ATOM      5  C   LIG    1       26.233 -21.128   6.161  0.00  0.00    +0.164 C 
ATOM      6  C   LIG    1       24.966 -20.557   5.589  0.00  0.00    +0.017 C 
ENDROOT
BRANCH   4   7
ATOM      7  N   LIG    1       25.637 -23.520   5.755  0.00  0.00    -0.308 N 
ATOM      8  H   LIG    1       25.320 -23.206   4.845  0.00  0.00    +0.149 HD
ATOM      9  C   LIG    1       25.641 -24.868   6.031  0.00  0.00    +0.210 C 
ATOM     10  O   LIG    1       25.956 -25.329   7.123  0.00  0.00    -0.276 OA
ATOM     11  C   LIG    1       25.200 -25.744   4.888  0.00  0.00    +0.109 C 
ENDBRANCH   4   7
BRANCH   3  12
ATOM     12  N   LIG    1       25.174 -21.951   9.171  0.00  0.00    -0.325 NA
ATOM     13  H   LIG    1       25.566 -21.014   9.075  0.00  0.00    +0.118 HD
ATOM     14  H   LIG    1       24.362 -21.873   9.787  0.00  0.00    +0.118 HD
ENDBRANCH   3  12
BRANCH   1  15
ATOM     15  C   LIG    1       22.493 -20.363   5.431  0.00  0.00    +0.335 C 
ATOM     16  O   LIG    1       21.719 -21.089   4.856  0.00  0.00    -0.245 OA
BRANCH  15  17
ATOM     17  O   LIG    1       22.379 -19.013   5.576  0.00  0.00    -0.462 OA
BRANCH  17  19
ATOM     18  C   LIG    1       22.290 -16.809   4.683  0.00  0.00    +0.048 C 
ATOM     19  C   LIG    1       22.196 -18.288   4.360  0.00  0.00    +0.229 C 
ENDBRANCH  17  19
ENDBRANCH  15  17
ENDBRANCH   1  15
BRANCH   5  20
ATOM     20  O   LIG    1       26.783 -20.122   7.016  0.00  0.00    -0.367 OA
BRANCH  20  21
ATOM     21  C   LIG    1       28.214 -20.037   7.098  0.00  0.00    +0.119 C 
BRANCH  21  22
ATOM     22  C   LIG    1       28.728 -19.604   5.707  0.00  0.00    +0.028 C 
ATOM     23  C   LIG    1       29.598 -18.351   5.691  0.00  0.00    +0.006 C 
ENDBRANCH  21  22
BRANCH  21  24
ATOM     24  C   LIG    1       28.890 -21.294   7.673  0.00  0.00    +0.028 C 
ATOM     25  C   LIG    1       30.264 -21.131   8.309  0.00  0.00    +0.006 C 
ENDBRANCH  21  24
ENDBRANCH  20  21
ENDBRANCH   5  20
TORSDOF 9
ENDMDL
MODEL 3
REMARK VINA RESULT:      -7.4      2.146      5.967
REMARK  Name = *****
REMARK                            x       y       z     vdW  Elec       q    Type
REMARK                         _______ _______ _______ _____ _____    ______ ____
ROOT
ATOM      1  C   LIG    1       23.810 -20.778   5.957  0.00  0.00    +0.037 C 
ATOM      2  C   LIG    1       23.641 -21.416   7.309  0.00  0.00    +0.062 C 
ATOM      3  C   LIG    1       24.818 -22.299   7.784  0.00  0.00    +0.079 C 
ATOM      4  C   LIG    1       25.871 -22.587   6.664  0.00  0.00    +0.122 C 
ATOM      5  C   LIG    1       26.251 -21.314   5.856  0.00  0.00    +0.164 C 
ATOM      6  C   LIG    1       24.995 -20.676   5.331  0.00  0.00    +0.017 C 
ENDROOT
BRANCH   4   7
ATOM      7  N   LIG    1       25.404 -23.661   5.757  0.00  0.00    -0.308 N 
ATOM      8  H   LIG    1       24.907 -23.406   4.911  0.00  0.00    +0.149 HD
ATOM      9  C   LIG    1       25.486 -24.990   6.106  0.00  0.00    +0.210 C 
ATOM     10  O   LIG    1       26.020 -25.380   7.139  0.00  0.00    -0.276 OA
ATOM     11  C   LIG    1       24.841 -25.937   5.128  0.00  0.00    +0.109 C 
ENDBRANCH   4   7
BRANCH   3  12
ATOM     12  N   LIG    1       25.400 -21.726   9.012  0.00  0.00    -0.325 NA
ATOM     13  H   LIG    1       25.598 -20.737   8.862  0.00  0.00    +0.118 HD
ATOM     14  H   LIG    1       24.726 -21.783   9.777  0.00  0.00    +0.118 HD
ENDBRANCH   3  12
BRANCH   1  15
ATOM     15  C   LIG    1       22.546 -20.251   5.356  0.00  0.00    +0.335 C 
ATOM     16  O   LIG    1       21.725 -20.938   4.799  0.00  0.00    -0.245 OA
BRANCH  15  17
ATOM     17  O   LIG    1       22.488 -18.901   5.529  0.00  0.00    -0.462 OA
BRANCH  17  19
ATOM     18  C   LIG    1       22.302 -16.680   4.693  0.00  0.00    +0.048 C 
ATOM     19  C   LIG    1       22.190 -18.154   4.350  0.00  0.00    +0.229 C 
ENDBRANCH  17  19
ENDBRANCH  15  17
ENDBRANCH   1  15
BRANCH   5  20
ATOM     20  O   LIG    1       26.967 -20.289   6.551  0.00  0.00    -0.367 OA
BRANCH  20  21
ATOM     21  C   LIG    1       28.401 -20.355   6.530  0.00  0.00    +0.119 C 
BRANCH  21  22
ATOM     22  C   LIG    1       28.834 -21.300   7.672  0.00  0.00    +0.028 C 
ATOM     23  C   LIG    1       30.191 -20.993   8.297  0.00  0.00    +0.006 C 
ENDBRANCH  21  22
BRANCH  21  24
ATOM     24  C   LIG    1       29.097 -18.982   6.530  0.00  0.00    +0.028 C 
ATOM     25  C   LIG    1       29.160 -18.219   5.214  0.00  0.00    +0.006 C 
ENDBRANCH  21  24
ENDBRANCH  20  21
ENDBRANCH   5  20
TORSDOF 9
ENDMDL
MODEL 4
REMARK VINA RESULT:      -7.4      1.741      6.232
REMARK  Name = *****
REMARK                            x       y       z     vdW  Elec       q    Type
REMARK                         _______ _______ _______ _____ _____    ______ ____
ROOT
ATOM      1  C   LIG    1       24.742 -23.938   5.680  0.00  0.00    +0.037 C 
ATOM      2  C   LIG    1       24.356 -23.650   7.105  0.00  0.00    +0.062 C 
ATOM      3  C   LIG    1       24.556 -22.188   7.570  0.00  0.00    +0.079 C 
ATOM      4  C   LIG    1       25.371 -21.319   6.557  0.00  0.00    +0.122 C 
ATOM      5  C   LIG    1       24.901 -21.513   5.087  0.00  0.00    +0.164 C 
ATOM      6  C   LIG    1       24.926 -22.979   4.756  0.00  0.00    +0.017 C 
ENDROOT
BRANCH   4   7
ATOM      7  N   LIG    1       26.824 -21.580   6.680  0.00  0.00    -0.308 N 
ATOM      8  H   LIG    1       27.245 -22.293   6.095  0.00  0.00    +0.149 HD
ATOM      9  C   LIG    1       27.583 -20.997   7.669  0.00  0.00    +0.210 C 
ATOM     10  O   LIG    1       27.137 -20.167   8.455  0.00  0.00    -0.276 OA
ATOM     11  C   LIG    1       29.009 -21.478   7.732  0.00  0.00    +0.109 C 
ENDBRANCH   4   7
BRANCH   3  12
ATOM     12  N   LIG    1       23.252 -21.604   7.938  0.00  0.00    -0.325 NA
ATOM     13  H   LIG    1       23.401 -20.681   8.348  0.00  0.00    +0.118 HD
ATOM     14  H   LIG    1       22.681 -21.471   7.102  0.00  0.00    +0.118 HD
ENDBRANCH   3  12
BRANCH   1  15
ATOM     15  C   LIG    1       24.901 -25.390   5.361  0.00  0.00    +0.335 C 
ATOM     16  O   LIG    1       25.629 -25.817   4.499  0.00  0.00    -0.245 OA
BRANCH  15  17
ATOM     17  O   LIG    1       24.096 -26.126   6.177  0.00  0.00    -0.462 OA
BRANCH  17  19
ATOM     18  C   LIG    1       25.457 -27.780   7.213  0.00  0.00    +0.048 C 
ATOM     19  C   LIG    1       24.367 -27.527   6.188  0.00  0.00    +0.229 C 
ENDBRANCH  17  19
ENDBRANCH  15  17
ENDBRANCH   1  15
BRANCH   5  20
ATOM     20  O   LIG    1       23.592 -21.043   4.753  0.00  0.00    -0.367 OA
BRANCH  20  21
ATOM     21  C   LIG    1       23.502 -19.874   3.925  0.00  0.00    +0.119 C 
BRANCH  21  22
ATOM     22  C   LIG    1       24.927 -19.557   3.422  0.00  0.00    +0.028 C 
ATOM     23  C   LIG    1       25.309 -18.080   3.426  0.00  0.00    +0.006 C 
ENDBRANCH  21  22
BRANCH  21  24
ATOM     24  C   LIG    1       22.771 -18.689   4.583  0.00  0.00    +0.028 C 
ATOM     25  C   LIG    1       21.462 -18.229   3.957  0.00  0.00    +0.006 C 
ENDBRANCH  21  24
ENDBRANCH  20  21
ENDBRANCH   5  20
TORSDOF 9
ENDMDL
MODEL 5
REMARK VINA RESULT:      -6.8      2.204      3.044
REMARK  Name = *****
REMARK                            x       y       z     vdW  Elec       q    Type
REMARK                         _______ _______ _______ _____ _____    ______ ____
ROOT
ATOM      1  C   LIG    1       27.201 -20.678   6.535  0.00  0.00    +0.037 C 
ATOM      2  C   LIG    1       26.749 -20.313   7.923  0.00  0.00    +0.062 C 
ATOM      3  C   LIG    1       25.305 -20.729   8.288  0.00  0.00    +0.079 C 
ATOM      4  C   LIG    1       24.472 -21.226   7.060  0.00  0.00    +0.122 C 
ATOM      5  C   LIG    1       25.264 -22.215   6.159  0.00  0.00    +0.164 C 
ATOM      6  C   LIG    1       26.568 -21.580   5.765  0.00  0.00    +0.017 C 
ENDROOT
BRANCH   4   7
ATOM      7  N   LIG    1       23.965 -20.084   6.264  0.00  0.00    -0.308 N 
ATOM      8  H   LIG    1       24.400 -19.176   6.378  0.00  0.00    +0.149 HD
ATOM      9  C   LIG    1       22.827 -20.187   5.496  0.00  0.00    +0.210 C 
ATOM     10  O   LIG    1       22.208 -21.235   5.350  0.00  0.00    -0.276 OA
ATOM     11  C   LIG    1       22.379 -18.895   4.863  0.00  0.00    +0.109 C 
ENDBRANCH   4   7
BRANCH   3  12
ATOM     12  N   LIG    1       25.335 -21.685   9.410  0.00  0.00    -0.325 NA
ATOM     13  H   LIG    1       25.529 -21.182  10.276  0.00  0.00    +0.118 HD
ATOM     14  H   LIG    1       24.419 -22.124   9.520  0.00  0.00    +0.118 HD
ENDBRANCH   3  12
BRANCH   1  15
ATOM     15  C   LIG    1       28.426 -19.957   6.072  0.00  0.00    +0.335 C 
ATOM     16  O   LIG    1       28.428 -19.107   5.215  0.00  0.00    -0.245 OA
BRANCH  15  17
ATOM     17  O   LIG    1       29.512 -20.421   6.752  0.00  0.00    -0.462 OA
BRANCH  17  19
ATOM     18  C   LIG    1       30.218 -18.674   8.206  0.00  0.00    +0.048 C 
ATOM     19  C   LIG    1       30.552 -19.464   6.954  0.00  0.00    +0.229 C 
ENDBRANCH  17  19
ENDBRANCH  15  17
ENDBRANCH   1  15
BRANCH   5  20
ATOM     20  O   LIG    1       25.586 -23.492   6.718  0.00  0.00    -0.367 OA
BRANCH  20  21
ATOM     21  C   LIG    1       25.363 -24.647   5.896  0.00  0.00    +0.119 C 
BRANCH  21  22
ATOM     22  C   LIG    1       23.891 -25.070   6.089  0.00  0.00    +0.028 C 
ATOM     23  C   LIG    1       23.008 -24.057   6.810  0.00  0.00    +0.006 C 
ENDBRANCH  21  22
BRANCH  21  24
ATOM     24  C   LIG    1       26.391 -25.776   6.100  0.00  0.00    +0.028 C 
ATOM     25  C   LIG    1       25.876 -27.120   6.597  0.00  0.00    +0.006 C 
ENDBRANCH  21  24
ENDBRANCH  20  21
ENDBRANCH   5  20
TORSDOF 9
ENDMDL
MODEL 6
REMARK VINA RESULT:      -6.6      1.940      2.838
REMARK  Name = *****
REMARK                            x       y       z     vdW  Elec       q    Type
REMARK                         _______ _______ _______ _____ _____    ______ ____
ROOT
ATOM      1  C   LIG    1       27.725 -20.738   7.672  0.00  0.00    +0.037 C 
ATOM      2  C   LIG    1       26.469 -20.143   8.247  0.00  0.00    +0.062 C 
ATOM      3  C   LIG    1       25.145 -20.641   7.620  0.00  0.00    +0.079 C 
ATOM      4  C   LIG    1       25.351 -21.482   6.318  0.00  0.00    +0.122 C 
ATOM      5  C   LIG    1       26.483 -22.540   6.461  0.00  0.00    +0.164 C 
ATOM      6  C   LIG    1       27.737 -21.852   6.920  0.00  0.00    +0.017 C 
ENDROOT
BRANCH   4   7
ATOM      7  N   LIG    1       25.599 -20.606   5.150  0.00  0.00    -0.308 N 
ATOM      8  H   LIG    1       26.542 -20.277   4.976  0.00  0.00    +0.149 HD
ATOM      9  C   LIG    1       24.567 -20.101   4.392  0.00  0.00    +0.210 C 
ATOM     10  O   LIG    1       23.392 -20.403   4.573  0.00  0.00    -0.276 OA
ATOM     11  C   LIG    1       24.991 -19.120   3.331  0.00  0.00    +0.109 C 
ENDBRANCH   4   7
BRANCH   3  12
ATOM     12  N   LIG    1       24.339 -21.325   8.648  0.00  0.00    -0.325 NA
ATOM     13  H   LIG    1       24.344 -20.770   9.505  0.00  0.00    +0.118 HD
ATOM     14  H   LIG    1       23.366 -21.391   8.342  0.00  0.00    +0.118 HD
ENDBRANCH   3  12
BRANCH   1  15
ATOM     15  C   LIG    1       28.976 -19.993   8.009  0.00  0.00    +0.335 C 
ATOM     16  O   LIG    1       29.080 -19.232   8.940  0.00  0.00    -0.245 OA
BRANCH  15  17
ATOM     17  O   LIG    1       29.948 -20.302   7.106  0.00  0.00    -0.462 OA
BRANCH  17  19
ATOM     18  C   LIG    1       29.528 -18.495   5.615  0.00  0.00    +0.048 C 
ATOM     19  C   LIG    1       30.569 -19.179   6.480  0.00  0.00    +0.229 C 
ENDBRANCH  17  19
ENDBRANCH  15  17
ENDBRANCH   1  15
BRANCH   5  20
ATOM     20  O   LIG    1       26.255 -23.621   7.370  0.00  0.00    -0.367 OA
BRANCH  20  21
ATOM     21  C   LIG    1       25.333 -24.643   6.963  0.00  0.00    +0.119 C 
BRANCH  21  22
ATOM     22  C   LIG    1       26.165 -25.795   6.358  0.00  0.00    +0.028 C 
ATOM     23  C   LIG    1       25.833 -27.188   6.883  0.00  0.00    +0.006 C 
ENDBRANCH  21  22
BRANCH  21  24
ATOM     24  C   LIG    1       24.184 -24.139   6.070  0.00  0.00    +0.028 C 
ATOM     25  C   LIG    1       22.823 -23.930   6.719  0.00  0.00    +0.006 C 
ENDBRANCH  21  24
ENDBRANCH  20  21
ENDBRANCH   5  20
TORSDOF 9
ENDMDL
MODEL 7
REMARK VINA RESULT:      -5.9      2.215      4.915
REMARK  Name = *****
REMARK                            x       y       z     vdW  Elec       q    Type
REMARK                         _______ _______ _______ _____ _____    ______ ____
ROOT
ATOM      1  C   LIG    1       27.694 -20.747   7.664  0.00  0.00    +0.037 C 
ATOM      2  C   LIG    1       27.821 -20.618   6.170  0.00  0.00    +0.062 C 
ATOM      3  C   LIG    1       26.695 -21.281   5.343  0.00  0.00    +0.079 C 
ATOM      4  C   LIG    1       25.755 -22.197   6.195  0.00  0.00    +0.122 C 
ATOM      5  C   LIG    1       25.323 -21.534   7.533  0.00  0.00    +0.164 C 
ATOM      6  C   LIG    1       26.552 -21.098   8.280  0.00  0.00    +0.017 C 
ENDROOT
BRANCH   4   7
ATOM      7  N   LIG    1       26.379 -23.517   6.443  0.00  0.00    -0.308 N 
ATOM      8  H   LIG    1       27.331 -23.551   6.788  0.00  0.00    +0.149 HD
ATOM      9  C   LIG    1       25.762 -24.690   6.070  0.00  0.00    +0.210 C 
ATOM     10  O   LIG    1       24.634 -24.733   5.591  0.00  0.00    -0.276 OA
ATOM     11  C   LIG    1       26.596 -25.929   6.272  0.00  0.00    +0.109 C 
ENDBRANCH   4   7
BRANCH   3  12
ATOM     12  N   LIG    1       25.977 -20.250   4.570  0.00  0.00    -0.325 NA
ATOM     13  H   LIG    1       26.272 -20.296   3.594  0.00  0.00    +0.118 HD
ATOM     14  H   LIG    1       24.973 -20.437   4.587  0.00  0.00    +0.118 HD
ENDBRANCH   3  12
BRANCH   1  15
ATOM     15  C   LIG    1       28.946 -20.444   8.422  0.00  0.00    +0.335 C 
ATOM     16  O   LIG    1       29.808 -21.255   8.656  0.00  0.00    -0.245 OA
BRANCH  15  17
ATOM     17  O   LIG    1       28.942 -19.136   8.804  0.00  0.00    -0.462 OA
BRANCH  17  19
ATOM     18  C   LIG    1       30.333 -17.378   9.603  0.00  0.00    +0.048 C 
ATOM     19  C   LIG    1       30.142 -18.419   8.516  0.00  0.00    +0.229 C 
ENDBRANCH  17  19
ENDBRANCH  15  17
ENDBRANCH   1  15
BRANCH   5  20
ATOM     20  O   LIG    1       24.471 -20.388   7.449  0.00  0.00    -0.367 OA
BRANCH  20  21
ATOM     21  C   LIG    1       23.109 -20.606   7.052  0.00  0.00    +0.119 C 
BRANCH  21  22
ATOM     22  C   LIG    1       22.691 -21.992   7.591  0.00  0.00    +0.028 C 
ATOM     23  C   LIG    1       22.157 -22.966   6.546  0.00  0.00    +0.006 C 
ENDBRANCH  21  22
BRANCH  21  24
ATOM     24  C   LIG    1       22.845 -20.391   5.551  0.00  0.00    +0.028 C 
ATOM     25  C   LIG    1       22.399 -19.007   5.101  0.00  0.00    +0.006 C 
ENDBRANCH  21  24
ENDBRANCH  20  21
ENDBRANCH   5  20
TORSDOF 9
ENDMDL
MODEL 8
REMARK VINA RESULT:      -5.9      4.953      8.160
REMARK  Name = *****
REMARK                            x       y       z     vdW  Elec       q    Type
REMARK                         _______ _______ _______ _____ _____    ______ ____
ROOT
ATOM      1  C   LIG    1       25.473 -28.207   7.452  0.00  0.00    +0.037 C 
ATOM      2  C   LIG    1       24.315 -29.140   7.222  0.00  0.00    +0.062 C 
ATOM      3  C   LIG    1       24.330 -30.443   8.055  0.00  0.00    +0.079 C 
ATOM      4  C   LIG    1       25.683 -30.689   8.800  0.00  0.00    +0.122 C 
ATOM      5  C   LIG    1       26.215 -29.414   9.514  0.00  0.00    +0.164 C 
ATOM      6  C   LIG    1       26.290 -28.292   8.517  0.00  0.00    +0.017 C 
ENDROOT
BRANCH   4   7
ATOM      7  N   LIG    1       26.706 -31.239   7.882  0.00  0.00    -0.308 N 
ATOM      8  H   LIG    1       27.265 -30.597   7.330  0.00  0.00    +0.149 HD
ATOM      9  C   LIG    1       26.811 -32.590   7.640  0.00  0.00    +0.210 C 
ATOM     10  O   LIG    1       26.133 -33.430   8.222  0.00  0.00    -0.276 OA
ATOM     11  C   LIG    1       27.812 -32.961   6.577  0.00  0.00    +0.109 C 
ENDBRANCH   4   7
BRANCH   3  12
ATOM     12  N   LIG    1       23.150 -30.479   8.938  0.00  0.00    -0.325 NA
ATOM     13  H   LIG    1       23.101 -29.609   9.470  0.00  0.00    +0.118 HD
ATOM     14  H   LIG    1       22.297 -30.535   8.379  0.00  0.00    +0.118 HD
ENDBRANCH   3  12
BRANCH   1  15
ATOM     15  C   LIG    1       25.646 -27.160   6.399  0.00  0.00    +0.335 C 
ATOM     16  O   LIG    1       26.702 -26.645   6.125  0.00  0.00    -0.245 OA
BRANCH  15  17
ATOM     17  O   LIG    1       24.440 -26.886   5.827  0.00  0.00    -0.462 OA
BRANCH  17  19
ATOM     18  C   LIG    1       23.764 -24.710   6.512  0.00  0.00    +0.048 C 
ATOM     19  C   LIG    1       24.285 -25.546   5.359  0.00  0.00    +0.229 C 
ENDBRANCH  17  19
ENDBRANCH  15  17
ENDBRANCH   1  15
BRANCH   5  20
ATOM     20  O   LIG    1       25.456 -28.922  10.622  0.00  0.00    -0.367 OA
BRANCH  20  21
ATOM     21  C   LIG    1       26.150 -28.730  11.864  0.00  0.00    +0.119 C 
BRANCH  21  22
ATOM     22  C   LIG    1       25.118 -28.913  12.999  0.00  0.00    +0.028 C 
ATOM     23  C   LIG    1       23.655 -28.829  12.574  0.00  0.00    +0.006 C 
ENDBRANCH  21  22
BRANCH  21  24
ATOM     24  C   LIG    1       26.965 -27.426  11.938  0.00  0.00    +0.028 C 
ATOM     25  C   LIG    1       26.501 -26.355  12.917  0.00  0.00    +0.006 C 
ENDBRANCH  21  24
ENDBRANCH  20  21
ENDBRANCH   5  20
TORSDOF 9
ENDMDL
MODEL 9
REMARK VINA RESULT:      -5.8      2.204      5.843
REMARK  Name = *****
REMARK                            x       y       z     vdW  Elec       q    Type
REMARK                         _______ _______ _______ _____ _____    ______ ____
ROOT
ATOM      1  C   LIG    1       25.761 -23.113   6.570  0.00  0.00    +0.037 C 
ATOM      2  C   LIG    1       26.192 -22.977   8.005  0.00  0.00    +0.062 C 
ATOM      3  C   LIG    1       26.377 -21.529   8.514  0.00  0.00    +0.079 C 
ATOM      4  C   LIG    1       26.338 -20.459   7.373  0.00  0.00    +0.122 C 
ATOM      5  C   LIG    1       25.169 -20.691   6.374  0.00  0.00    +0.164 C 
ATOM      6  C   LIG    1       25.242 -22.099   5.856  0.00  0.00    +0.017 C 
ENDROOT
BRANCH   4   7
ATOM      7  N   LIG    1       27.633 -20.396   6.657  0.00  0.00    -0.308 N 
ATOM      8  H   LIG    1       27.717 -20.855   5.757  0.00  0.00    +0.149 HD
ATOM      9  C   LIG    1       28.761 -19.870   7.246  0.00  0.00    +0.210 C 
ATOM     10  O   LIG    1       28.757 -19.347   8.355  0.00  0.00    -0.276 OA
ATOM     11  C   LIG    1       30.018 -20.010   6.428  0.00  0.00    +0.109 C 
ENDBRANCH   4   7
BRANCH   3  12
ATOM     12  N   LIG    1       25.425 -21.264   9.609  0.00  0.00    -0.325 NA
ATOM     13  H   LIG    1       24.517 -21.019   9.213  0.00  0.00    +0.118 HD
ATOM     14  H   LIG    1       25.289 -22.110  10.165  0.00  0.00    +0.118 HD
ENDBRANCH   3  12
BRANCH   1  15
ATOM     15  C   LIG    1       25.948 -24.479   5.992  0.00  0.00    +0.335 C 
ATOM     16  O   LIG    1       26.860 -25.215   6.278  0.00  0.00    -0.245 OA
BRANCH  15  17
ATOM     17  O   LIG    1       24.948 -24.738   5.104  0.00  0.00    -0.462 OA
BRANCH  17  19
ATOM     18  C   LIG    1       24.218 -26.831   5.971  0.00  0.00    +0.048 C 
ATOM     19  C   LIG    1       24.787 -26.114   4.761  0.00  0.00    +0.229 C 
ENDBRANCH  17  19
ENDBRANCH  15  17
ENDBRANCH   1  15
BRANCH   5  20
ATOM     20  O   LIG    1       23.840 -20.510   6.871  0.00  0.00    -0.367 OA
BRANCH  20  21
ATOM     21  C   LIG    1       22.815 -20.197   5.916  0.00  0.00    +0.119 C 
BRANCH  21  22
ATOM     22  C   LIG    1       22.209 -21.536   5.439  0.00  0.00    +0.028 C 
ATOM     23  C   LIG    1       21.076 -21.417   4.424  0.00  0.00    +0.006 C 
ENDBRANCH  21  22
BRANCH  21  24
ATOM     24  C   LIG    1       23.270 -19.256   4.786  0.00  0.00    +0.028 C 
ATOM     25  C   LIG    1       22.354 -18.097   4.418  0.00  0.00    +0.006 C 
ENDBRANCH  21  24
ENDBRANCH  20  21
ENDBRANCH   5  20
TORSDOF 9
ENDMDL
