MODEL 1
REMARK VINA RESULT:       2.9      0.000      0.000
REMARK  Name = *****
REMARK                            x       y       z     vdW  Elec       q    Type
REMARK                         _______ _______ _______ _____ _____    ______ ____
ROOT
ATOM      1  C   LIG    1       25.263 -14.396   4.051  0.00  0.00    +0.169 C 
ATOM      2  C   LIG    1       26.338 -14.470   5.199  0.00  0.00    +0.175 C 
ATOM      3  C   LIG    1       27.823 -14.579   4.727  0.00  0.00    +0.169 C 
ATOM      4  C   LIG    1       28.090 -13.438   3.712  0.00  0.00    +0.084 C 
ATOM      5  C   LIG    1       27.157 -13.597   2.507  0.00  0.00    +0.042 C 
ATOM      6  C   LIG    1       25.719 -13.336   2.982  0.00  0.00    +0.084 C 
ENDROOT
BRANCH   4   7
ATOM      7  N   LIG    1       29.474 -13.232   3.289  0.00  0.00    -0.325 NA
ATOM      8  H   LIG    1       30.134 -13.366   4.047  0.00  0.00    +0.118 HD
ATOM      9  H   LIG    1       29.725 -13.788   2.478  0.00  0.00    +0.118 HD
ENDBRANCH   4   7
BRANCH   6  10
ATOM     10  N   LIG    1       24.853 -13.146   1.812  0.00  0.00    -0.325 NA
ATOM     11  H   LIG    1       25.079 -13.823   1.085  0.00  0.00    +0.118 HD
ATOM     12  H   LIG    1       23.875 -13.281   2.055  0.00  0.00    +0.118 HD
ENDBRANCH   6  10
BRANCH   2  13
ATOM     13  O   LIG    1       26.180 -13.365   6.101  0.00  0.00    -0.387 OA
ATOM     14  H   LIG    1       25.691 -13.657   6.907  0.00  0.00    +0.210 HD
ENDBRANCH   2  13
BRANCH   1  15
ATOM     15  O   LIG    1       24.987 -15.665   3.418  0.00  0.00    -0.342 OA
BRANCH  15  18
ATOM     16  C   LIG    1       23.346 -18.765   4.425  0.00  0.00    +0.138 C 
ATOM     17  O   LIG    1       23.940 -17.778   3.582  0.00  0.00    -0.345 OA
ATOM     18  C   LIG    1       24.149 -16.532   4.225  0.00  0.00    +0.268 C 
ATOM     19  C   LIG    1       22.751 -15.876   4.491  0.00  0.00    +0.107 C 
ATOM     20  C   LIG    1       21.614 -16.905   4.328  0.00  0.00    +0.026 C 
ATOM     21  C   LIG    1       21.984 -18.259   4.932  0.00  0.00    +0.035 C 
BRANCH  19  22
ATOM     22  N   LIG    1       22.456 -14.702   3.646  0.00  0.00    -0.323 NA
ATOM     23  H   LIG    1       21.992 -14.016   4.247  0.00  0.00    +0.119 HD
ATOM     24  H   LIG    1       23.352 -14.244   3.444  0.00  0.00    +0.119 HD
ENDBRANCH  19  22
BRANCH  16  25
ATOM     25  C   LIG    1       23.257 -20.126   3.656  0.00  0.00    +0.079 C 
ATOM     26  C   LIG    1       24.441 -20.324   2.699  0.00  0.00    +0.026 C 
BRANCH  25  28
ATOM     27  C   LIG    1       21.974 -21.453   5.273  0.00  0.00    +0.101 C 
ATOM     28  N   LIG    1       23.216 -21.322   4.528  0.00  0.00    -0.314 NA
ATOM     29  H   LIG    1       23.353 -22.160   3.963  0.00  0.00    +0.122 HD
ENDBRANCH  25  28
ENDBRANCH  16  25
ENDBRANCH  15  18
ENDBRANCH   1  15
BRANCH   3  30
ATOM     30  O   LIG    1       28.069 -15.906   4.226  0.00  0.00    -0.341 OA
BRANCH  30  31
ATOM     31  C   LIG    1       28.040 -17.001   5.150  0.00  0.00    +0.281 C 
ATOM     32  C   LIG    1       27.079 -18.136   4.711  0.00  0.00    +0.190 C 
ATOM     33  C   LIG    1       27.127 -19.328   5.704  0.00  0.00    +0.121 C 
ATOM     34  C   LIG    1       28.610 -19.766   5.938  0.00  0.00    +0.104 C 
ATOM     35  C   LIG    1       28.734 -20.809   7.055  0.00  0.00    +0.045 C 
ATOM     36  C   LIG    1       29.470 -18.534   6.271  0.00  0.00    +0.199 C 
ATOM     37  O   LIG    1       29.368 -17.529   5.251  0.00  0.00    -0.346 OA
BRANCH  33  38
ATOM     38  N   LIG    1       26.342 -20.508   5.264  0.00  0.00    -0.311 NA
ATOM     39  H   LIG    1       25.688 -20.179   4.544  0.00  0.00    +0.122 HD
ATOM     40  C   LIG    1       25.602 -21.182   6.314  0.00  0.00    +0.101 C 
ENDBRANCH  33  38
BRANCH  32  41
ATOM     41  O   LIG    1       27.445 -18.590   3.388  0.00  0.00    -0.385 OA
ATOM     42  H   LIG    1       26.972 -19.431   3.257  0.00  0.00    +0.210 HD
ENDBRANCH  32  41
BRANCH  34  43
ATOM     43  O   LIG    1       29.136 -20.372   4.741  0.00  0.00    -0.385 OA
ATOM     44  H   LIG    1       29.058 -19.696   4.034  0.00  0.00    +0.210 HD
ENDBRANCH  34  43
ENDBRANCH  30  31
ENDBRANCH   3  30
TORSDOF 13
ENDMDL
