MODEL 1
REMARK VINA RESULT:      -4.9      0.000      0.000
REMARK  Name = *****
REMARK                            x       y       z     vdW  Elec       q    Type
REMARK                         _______ _______ _______ _____ _____    ______ ____
ROOT
ATOM      1  C   LIG    1       26.428 -14.387   3.634  0.00  0.00    +0.068 A 
ATOM      2  C   LIG    1       25.523 -13.959   4.609  0.00  0.00    +0.031 A 
ATOM      3  C   LIG    1       24.538 -13.021   4.293  0.00  0.00    +0.047 A 
ATOM      4  C   LIG    1       24.471 -12.501   3.006  0.00  0.00    +0.117 A 
ATOM      5  C   LIG    1       25.378 -12.898   2.028  0.00  0.00    +0.047 A 
ATOM      6  C   LIG    1       26.361 -13.838   2.349  0.00  0.00    +0.031 A 
ENDROOT
BRANCH   1   9
ATOM      7  C   LIG    1       25.922 -17.209   3.288  0.00  0.00    +0.109 C 
ATOM      8  C   LIG    1       27.190 -16.574   3.783  0.00  0.00    +0.184 C 
ATOM      9  N   LIG    1       27.428 -15.314   3.946  0.00  0.00    -0.218 NA
BRANCH   8  10
ATOM     10  O   LIG    1       28.161 -17.446   4.116  0.00  0.00    -0.496 OA
ATOM     11  H   LIG    1       28.084 -17.780   5.022  0.00  0.00    +0.293 HD
ENDBRANCH   8  10
ENDBRANCH   1   9
BRANCH   4  12
ATOM     12  O   LIG    1       23.495 -11.588   2.741  0.00  0.00    -0.507 OA
ATOM     13  H   LIG    1       22.691 -11.847   3.219  0.00  0.00    +0.292 HD
ENDBRANCH   4  12
TORSDOF 3
ENDMDL
MODEL 2
REMARK VINA RESULT:      -4.8      0.045      1.457
REMARK  Name = *****
REMARK                            x       y       z     vdW  Elec       q    Type
REMARK                         _______ _______ _______ _____ _____    ______ ____
ROOT
ATOM      1  C   LIG    1       26.469 -14.348   3.655  0.00  0.00    +0.068 A 
ATOM      2  C   LIG    1       26.389 -13.803   2.371  0.00  0.00    +0.031 A 
ATOM      3  C   LIG    1       25.392 -12.877   2.058  0.00  0.00    +0.047 A 
ATOM      4  C   LIG    1       24.466 -12.510   3.029  0.00  0.00    +0.117 A 
ATOM      5  C   LIG    1       24.516 -13.060   4.306  0.00  0.00    +0.047 A 
ATOM      6  C   LIG    1       25.517 -13.984   4.614  0.00  0.00    +0.031 A 
ENDROOT
BRANCH   1   9
ATOM      7  C   LIG    1       25.935 -17.163   3.294  0.00  0.00    +0.109 C 
ATOM      8  C   LIG    1       27.205 -16.543   3.802  0.00  0.00    +0.184 C 
ATOM      9  N   LIG    1       27.456 -15.288   3.972  0.00  0.00    -0.218 NA
BRANCH   8  10
ATOM     10  O   LIG    1       28.164 -17.428   4.139  0.00  0.00    -0.496 OA
ATOM     11  H   LIG    1       29.053 -17.043   4.158  0.00  0.00    +0.293 HD
ENDBRANCH   8  10
ENDBRANCH   1   9
BRANCH   4  12
ATOM     12  O   LIG    1       23.509 -11.605   2.682  0.00  0.00    -0.507 OA
ATOM     13  H   LIG    1       22.879 -11.524   3.417  0.00  0.00    +0.292 HD
ENDBRANCH   4  12
TORSDOF 3
ENDMDL
MODEL 3
REMARK VINA RESULT:      -4.8      6.369      7.559
REMARK  Name = *****
REMARK                            x       y       z     vdW  Elec       q    Type
REMARK                         _______ _______ _______ _____ _____    ______ ____
ROOT
ATOM      1  C   LIG    1       25.020 -21.006   5.524  0.00  0.00    +0.068 A 
ATOM      2  C   LIG    1       25.619 -21.234   6.766  0.00  0.00    +0.031 A 
ATOM      3  C   LIG    1       26.866 -20.679   7.061  0.00  0.00    +0.047 A 
ATOM      4  C   LIG    1       27.518 -19.908   6.105  0.00  0.00    +0.117 A 
ATOM      5  C   LIG    1       26.948 -19.689   4.855  0.00  0.00    +0.047 A 
ATOM      6  C   LIG    1       25.699 -20.246   4.566  0.00  0.00    +0.031 A 
ENDROOT
BRANCH   1   9
ATOM      7  C   LIG    1       22.708 -19.304   5.215  0.00  0.00    +0.109 C 
ATOM      8  C   LIG    1       22.753 -20.799   5.076  0.00  0.00    +0.184 C 
ATOM      9  N   LIG    1       23.779 -21.572   5.215  0.00  0.00    -0.218 NA
BRANCH   8  10
ATOM     10  O   LIG    1       21.565 -21.373   4.805  0.00  0.00    -0.496 OA
ATOM     11  H   LIG    1       21.088 -21.662   5.597  0.00  0.00    +0.293 HD
ENDBRANCH   8  10
ENDBRANCH   1   9
BRANCH   4  12
ATOM     12  O   LIG    1       28.733 -19.386   6.433  0.00  0.00    -0.507 OA
ATOM     13  H   LIG    1       29.397 -19.736   5.816  0.00  0.00    +0.292 HD
ENDBRANCH   4  12
TORSDOF 3
ENDMDL
MODEL 4
REMARK VINA RESULT:      -4.8      6.460      7.078
REMARK  Name = *****
REMARK                            x       y       z     vdW  Elec       q    Type
REMARK                         _______ _______ _______ _____ _____    ______ ____
ROOT
ATOM      1  C   LIG    1       25.749 -21.022   6.209  0.00  0.00    +0.068 A 
ATOM      2  C   LIG    1       25.613 -20.653   4.868  0.00  0.00    +0.031 A 
ATOM      3  C   LIG    1       24.398 -20.156   4.393  0.00  0.00    +0.047 A 
ATOM      4  C   LIG    1       23.315 -20.044   5.258  0.00  0.00    +0.117 A 
ATOM      5  C   LIG    1       23.425 -20.428   6.591  0.00  0.00    +0.047 A 
ATOM      6  C   LIG    1       24.644 -20.923   7.062  0.00  0.00    +0.031 A 
ENDROOT
BRANCH   1   9
ATOM      7  C   LIG    1       28.186 -19.512   5.858  0.00  0.00    +0.109 C 
ATOM      8  C   LIG    1       28.041 -20.848   6.529  0.00  0.00    +0.184 C 
ATOM      9  N   LIG    1       26.958 -21.535   6.689  0.00  0.00    -0.218 NA
BRANCH   8  10
ATOM     10  O   LIG    1       29.195 -21.378   6.978  0.00  0.00    -0.496 OA
ATOM     11  H   LIG    1       29.685 -20.789   7.570  0.00  0.00    +0.293 HD
ENDBRANCH   8  10
ENDBRANCH   1   9
BRANCH   4  12
ATOM     12  O   LIG    1       22.148 -19.556   4.754  0.00  0.00    -0.507 OA
ATOM     13  H   LIG    1       21.457 -20.229   4.867  0.00  0.00    +0.292 HD
ENDBRANCH   4  12
TORSDOF 3
ENDMDL
MODEL 5
REMARK VINA RESULT:      -4.4      5.570      7.649
REMARK  Name = *****
REMARK                            x       y       z     vdW  Elec       q    Type
REMARK                         _______ _______ _______ _____ _____    ______ ____
ROOT
ATOM      1  C   LIG    1       23.178 -20.235   5.044  0.00  0.00    +0.068 A 
ATOM      2  C   LIG    1       23.174 -20.586   6.396  0.00  0.00    +0.031 A 
ATOM      3  C   LIG    1       24.374 -20.844   7.062  0.00  0.00    +0.047 A 
ATOM      4  C   LIG    1       25.576 -20.765   6.367  0.00  0.00    +0.117 A 
ATOM      5  C   LIG    1       25.597 -20.440   5.014  0.00  0.00    +0.047 A 
ATOM      6  C   LIG    1       24.394 -20.181   4.354  0.00  0.00    +0.031 A 
ENDROOT
BRANCH   1   9
ATOM      7  C   LIG    1       22.382 -17.518   4.477  0.00  0.00    +0.109 C 
ATOM      8  C   LIG    1       21.636 -18.770   4.115  0.00  0.00    +0.184 C 
ATOM      9  N   LIG    1       21.979 -19.990   4.366  0.00  0.00    -0.218 NA
BRANCH   8  10
ATOM     10  O   LIG    1       20.464 -18.563   3.485  0.00  0.00    -0.496 OA
ATOM     11  H   LIG    1       19.939 -19.369   3.374  0.00  0.00    +0.293 HD
ENDBRANCH   8  10
ENDBRANCH   1   9
BRANCH   4  12
ATOM     12  O   LIG    1       26.723 -21.026   7.054  0.00  0.00    -0.507 OA
ATOM     13  H   LIG    1       27.412 -21.284   6.419  0.00  0.00    +0.292 HD
ENDBRANCH   4  12
TORSDOF 3
ENDMDL
MODEL 6
REMARK VINA RESULT:      -3.9      6.094      6.775
REMARK  Name = *****
REMARK                            x       y       z     vdW  Elec       q    Type
REMARK                         _______ _______ _______ _____ _____    ______ ____
ROOT
ATOM      1  C   LIG    1       25.800 -20.064   4.981  0.00  0.00    +0.068 A 
ATOM      2  C   LIG    1       25.205 -20.731   6.056  0.00  0.00    +0.031 A 
ATOM      3  C   LIG    1       23.870 -21.136   5.984  0.00  0.00    +0.047 A 
ATOM      4  C   LIG    1       23.129 -20.857   4.841  0.00  0.00    +0.117 A 
ATOM      5  C   LIG    1       23.697 -20.173   3.771  0.00  0.00    +0.047 A 
ATOM      6  C   LIG    1       25.034 -19.773   3.848  0.00  0.00    +0.031 A 
ENDROOT
BRANCH   1   9
ATOM      7  C   LIG    1       27.519 -21.091   7.062  0.00  0.00    +0.109 C 
ATOM      8  C   LIG    1       27.891 -20.113   5.985  0.00  0.00    +0.184 C 
ATOM      9  N   LIG    1       27.132 -19.643   5.052  0.00  0.00    -0.218 NA
BRANCH   8  10
ATOM     10  O   LIG    1       29.162 -19.669   6.045  0.00  0.00    -0.496 OA
ATOM     11  H   LIG    1       29.819 -20.360   5.878  0.00  0.00    +0.293 HD
ENDBRANCH   8  10
ENDBRANCH   1   9
BRANCH   4  12
ATOM     12  O   LIG    1       21.830 -21.267   4.813  0.00  0.00    -0.507 OA
ATOM     13  H   LIG    1       21.257 -20.489   4.909  0.00  0.00    +0.292 HD
ENDBRANCH   4  12
TORSDOF 3
ENDMDL
MODEL 7
REMARK VINA RESULT:      -3.7      2.537      3.277
REMARK  Name = *****
REMARK                            x       y       z     vdW  Elec       q    Type
REMARK                         _______ _______ _______ _____ _____    ______ ____
ROOT
ATOM      1  C   LIG    1       26.199 -14.162   3.315  0.00  0.00    +0.068 A 
ATOM      2  C   LIG    1       25.895 -15.524   3.396  0.00  0.00    +0.031 A 
ATOM      3  C   LIG    1       24.651 -15.941   3.874  0.00  0.00    +0.047 A 
ATOM      4  C   LIG    1       23.720 -14.994   4.286  0.00  0.00    +0.117 A 
ATOM      5  C   LIG    1       24.014 -13.636   4.234  0.00  0.00    +0.047 A 
ATOM      6  C   LIG    1       25.259 -13.223   3.753  0.00  0.00    +0.031 A 
ENDROOT
BRANCH   1   9
ATOM      7  C   LIG    1       28.097 -13.013   5.163  0.00  0.00    +0.109 C 
ATOM      8  C   LIG    1       28.290 -13.228   3.689  0.00  0.00    +0.184 C 
ATOM      9  N   LIG    1       27.449 -13.736   2.851  0.00  0.00    -0.218 NA
BRANCH   8  10
ATOM     10  O   LIG    1       29.475 -12.802   3.210  0.00  0.00    -0.496 OA
ATOM     11  H   LIG    1       29.576 -11.839   3.235  0.00  0.00    +0.293 HD
ENDBRANCH   8  10
ENDBRANCH   1   9
BRANCH   4  12
ATOM     12  O   LIG    1       22.520 -15.444   4.747  0.00  0.00    -0.507 OA
ATOM     13  H   LIG    1       22.681 -16.167   5.376  0.00  0.00    +0.292 HD
ENDBRANCH   4  12
TORSDOF 3
ENDMDL
MODEL 8
REMARK VINA RESULT:      -3.7      2.713      3.345
REMARK  Name = *****
REMARK                            x       y       z     vdW  Elec       q    Type
REMARK                         _______ _______ _______ _____ _____    ______ ____
ROOT
ATOM      1  C   LIG    1       26.883 -14.700   3.788  0.00  0.00    +0.068 A 
ATOM      2  C   LIG    1       27.947 -14.120   3.093  0.00  0.00    +0.031 A 
ATOM      3  C   LIG    1       28.690 -13.090   3.673  0.00  0.00    +0.047 A 
ATOM      4  C   LIG    1       28.356 -12.632   4.943  0.00  0.00    +0.117 A 
ATOM      5  C   LIG    1       27.286 -13.182   5.640  0.00  0.00    +0.047 A 
ATOM      6  C   LIG    1       26.546 -14.214   5.056  0.00  0.00    +0.031 A 
ENDROOT
BRANCH   1   9
ATOM      7  C   LIG    1       27.627 -17.458   4.215  0.00  0.00    +0.109 C 
ATOM      8  C   LIG    1       26.465 -16.951   3.410  0.00  0.00    +0.184 C 
ATOM      9  N   LIG    1       26.124 -15.722   3.208  0.00  0.00    -0.218 NA
BRANCH   8  10
ATOM     10  O   LIG    1       25.732 -17.913   2.817  0.00  0.00    -0.496 OA
ATOM     11  H   LIG    1       25.242 -17.602   2.042  0.00  0.00    +0.293 HD
ENDBRANCH   8  10
ENDBRANCH   1   9
BRANCH   4  12
ATOM     12  O   LIG    1       29.106 -11.625   5.471  0.00  0.00    -0.507 OA
ATOM     13  H   LIG    1       29.471 -11.096   4.743  0.00  0.00    +0.292 HD
ENDBRANCH   4  12
TORSDOF 3
ENDMDL
MODEL 9
REMARK VINA RESULT:      -3.7      1.498      4.680
REMARK  Name = *****
REMARK                            x       y       z     vdW  Elec       q    Type
REMARK                         _______ _______ _______ _____ _____    ______ ____
ROOT
ATOM      1  C   LIG    1       25.993 -13.891   2.799  0.00  0.00    +0.068 A 
ATOM      2  C   LIG    1       27.181 -13.515   3.431  0.00  0.00    +0.031 A 
ATOM      3  C   LIG    1       27.981 -14.474   4.056  0.00  0.00    +0.047 A 
ATOM      4  C   LIG    1       27.581 -15.805   4.062  0.00  0.00    +0.117 A 
ATOM      5  C   LIG    1       26.389 -16.194   3.458  0.00  0.00    +0.047 A 
ATOM      6  C   LIG    1       25.594 -15.231   2.832  0.00  0.00    +0.031 A 
ENDROOT
BRANCH   1   9
ATOM      7  C   LIG    1       23.938 -12.560   4.330  0.00  0.00    +0.109 C 
ATOM      8  C   LIG    1       24.265 -12.344   2.881  0.00  0.00    +0.184 C 
ATOM      9  N   LIG    1       25.178 -12.935   2.183  0.00  0.00    -0.218 NA
BRANCH   8  10
ATOM     10  O   LIG    1       23.478 -11.447   2.256  0.00  0.00    -0.496 OA
ATOM     11  H   LIG    1       22.544 -11.701   2.238  0.00  0.00    +0.293 HD
ENDBRANCH   8  10
ENDBRANCH   1   9
BRANCH   4  12
ATOM     12  O   LIG    1       28.390 -16.707   4.684  0.00  0.00    -0.507 OA
ATOM     13  H   LIG    1       27.906 -17.545   4.776  0.00  0.00    +0.292 HD
ENDBRANCH   4  12
TORSDOF 3
ENDMDL
