MODEL 1
REMARK VINA RESULT:      -5.0      0.000      0.000
REMARK  Name = *****
REMARK                            x       y       z     vdW  Elec       q    Type
REMARK                         _______ _______ _______ _____ _____    ______ ____
ROOT
ATOM      1  C   LIG    1       24.210 -20.187   4.819  0.00  0.00    +0.318 C 
ATOM      2 CL   LIG    1       24.114 -20.368   3.025  0.00  0.00    -0.081 Cl
ENDROOT
BRANCH   1   3
ATOM      3  C   LIG    1       22.801 -20.062   5.442  0.00  0.00    +0.430 C 
ATOM      4  F   LIG    1       22.244 -18.841   5.249  0.00  0.00    -0.167 F 
ATOM      5  F   LIG    1       22.856 -20.246   6.785  0.00  0.00    -0.167 F 
ATOM      6  F   LIG    1       21.933 -20.970   4.937  0.00  0.00    -0.167 F 
ENDBRANCH   1   3
BRANCH   1   7
ATOM      7  O   LIG    1       24.986 -21.301   5.272  0.00  0.00    -0.294 OA
BRANCH   7   9
ATOM      8  F   LIG    1       26.847 -20.059   5.139  0.00  0.00    -0.178 F 
ATOM      9  C   LIG    1       26.160 -20.902   5.945  0.00  0.00    +0.484 C 
ATOM     10  F   LIG    1       25.835 -20.229   7.057  0.00  0.00    -0.178 F 
ENDBRANCH   7   9
ENDBRANCH   1   7
TORSDOF 3
ENDMDL
MODEL 2
REMARK VINA RESULT:      -4.9      1.939      3.309
REMARK  Name = *****
REMARK                            x       y       z     vdW  Elec       q    Type
REMARK                         _______ _______ _______ _____ _____    ______ ____
ROOT
ATOM      1  C   LIG    1       24.704 -20.063   5.094  0.00  0.00    +0.318 C 
ATOM      2 CL   LIG    1       26.477 -20.236   5.387  0.00  0.00    -0.081 Cl
ENDROOT
BRANCH   1   3
ATOM      3  C   LIG    1       24.427 -19.431   3.710  0.00  0.00    +0.430 C 
ATOM      4  F   LIG    1       23.298 -18.682   3.688  0.00  0.00    -0.167 F 
ATOM      5  F   LIG    1       24.261 -20.396   2.771  0.00  0.00    -0.167 F 
ATOM      6  F   LIG    1       25.437 -18.627   3.302  0.00  0.00    -0.167 F 
ENDBRANCH   1   3
BRANCH   1   7
ATOM      7  O   LIG    1       24.156 -21.370   5.295  0.00  0.00    -0.294 OA
BRANCH   7   9
ATOM      8  F   LIG    1       22.891 -20.213   6.736  0.00  0.00    -0.178 F 
ATOM      9  C   LIG    1       22.929 -21.340   5.988  0.00  0.00    +0.484 C 
ATOM     10  F   LIG    1       21.917 -21.281   5.112  0.00  0.00    -0.178 F 
ENDBRANCH   7   9
ENDBRANCH   1   7
TORSDOF 3
ENDMDL
MODEL 3
REMARK VINA RESULT:      -4.9      6.757      7.274
REMARK  Name = *****
REMARK                            x       y       z     vdW  Elec       q    Type
REMARK                         _______ _______ _______ _____ _____    ______ ____
ROOT
ATOM      1  C   LIG    1       25.861 -14.049   2.867  0.00  0.00    +0.318 C 
ATOM      2 CL   LIG    1       26.474 -15.674   3.359  0.00  0.00    -0.081 Cl
ENDROOT
BRANCH   1   3
ATOM      3  C   LIG    1       24.587 -13.671   3.658  0.00  0.00    +0.430 C 
ATOM      4  F   LIG    1       24.051 -14.719   4.329  0.00  0.00    -0.167 F 
ATOM      5  F   LIG    1       23.620 -13.225   2.817  0.00  0.00    -0.167 F 
ATOM      6  F   LIG    1       24.819 -12.700   4.571  0.00  0.00    -0.167 F 
ENDBRANCH   1   3
BRANCH   1   7
ATOM      7  O   LIG    1       26.971 -13.159   3.027  0.00  0.00    -0.294 OA
BRANCH   7   9
ATOM      8  F   LIG    1       29.141 -13.154   3.583  0.00  0.00    -0.178 F 
ATOM      9  C   LIG    1       27.932 -13.654   3.932  0.00  0.00    +0.484 C 
ATOM     10  F   LIG    1       27.653 -13.220   5.168  0.00  0.00    -0.178 F 
ENDBRANCH   7   9
ENDBRANCH   1   7
TORSDOF 3
ENDMDL
MODEL 4
REMARK VINA RESULT:      -4.8      2.254      2.606
REMARK  Name = *****
REMARK                            x       y       z     vdW  Elec       q    Type
REMARK                         _______ _______ _______ _____ _____    ______ ____
ROOT
ATOM      1  C   LIG    1       24.378 -21.051   5.350  0.00  0.00    +0.318 C 
ATOM      2 CL   LIG    1       25.496 -21.550   6.677  0.00  0.00    -0.081 Cl
ENDROOT
BRANCH   1   3
ATOM      3  C   LIG    1       22.943 -20.833   5.883  0.00  0.00    +0.430 C 
ATOM      4  F   LIG    1       22.663 -19.530   6.128  0.00  0.00    -0.167 F 
ATOM      5  F   LIG    1       22.768 -21.487   7.059  0.00  0.00    -0.167 F 
ATOM      6  F   LIG    1       22.001 -21.279   5.019  0.00  0.00    -0.167 F 
ENDBRANCH   1   3
BRANCH   1   7
ATOM      7  O   LIG    1       24.991 -19.907   4.747  0.00  0.00    -0.294 OA
BRANCH   7   9
ATOM      8  F   LIG    1       24.101 -20.901   2.946  0.00  0.00    -0.178 F 
ATOM      9  C   LIG    1       24.593 -19.726   3.406  0.00  0.00    +0.484 C 
ATOM     10  F   LIG    1       23.608 -18.821   3.346  0.00  0.00    -0.178 F 
ENDBRANCH   7   9
ENDBRANCH   1   7
TORSDOF 3
ENDMDL
MODEL 5
REMARK VINA RESULT:      -4.8      2.148      2.646
REMARK  Name = *****
REMARK                            x       y       z     vdW  Elec       q    Type
REMARK                         _______ _______ _______ _____ _____    ______ ____
ROOT
ATOM      1  C   LIG    1       23.257 -19.261   4.591  0.00  0.00    +0.318 C 
ATOM      2 CL   LIG    1       21.794 -18.269   4.222  0.00  0.00    -0.081 Cl
ENDROOT
BRANCH   1   3
ATOM      3  C   LIG    1       22.877 -20.553   5.351  0.00  0.00    +0.430 C 
ATOM      4  F   LIG    1       23.745 -21.570   5.131  0.00  0.00    -0.167 F 
ATOM      5  F   LIG    1       21.660 -20.999   4.952  0.00  0.00    -0.167 F 
ATOM      6  F   LIG    1       22.829 -20.365   6.691  0.00  0.00    -0.167 F 
ENDBRANCH   1   3
BRANCH   1   7
ATOM      7  O   LIG    1       23.910 -19.457   3.333  0.00  0.00    -0.294 OA
BRANCH   7   9
ATOM      8  F   LIG    1       25.324 -17.720   3.282  0.00  0.00    -0.178 F 
ATOM      9  C   LIG    1       25.266 -19.070   3.362  0.00  0.00    +0.484 C 
ATOM     10  F   LIG    1       25.813 -19.432   4.530  0.00  0.00    -0.178 F 
ENDBRANCH   7   9
ENDBRANCH   1   7
TORSDOF 3
ENDMDL
MODEL 6
REMARK VINA RESULT:      -4.7      6.888      7.944
REMARK  Name = *****
REMARK                            x       y       z     vdW  Elec       q    Type
REMARK                         _______ _______ _______ _____ _____    ______ ____
ROOT
ATOM      1  C   LIG    1       26.282 -13.613   4.211  0.00  0.00    +0.318 C 
ATOM      2 CL   LIG    1       26.908 -13.498   5.900  0.00  0.00    -0.081 Cl
ENDROOT
BRANCH   1   3
ATOM      3  C   LIG    1       27.345 -14.214   3.262  0.00  0.00    +0.430 C 
ATOM      4  F   LIG    1       27.017 -14.088   1.953  0.00  0.00    -0.167 F 
ATOM      5  F   LIG    1       27.490 -15.543   3.490  0.00  0.00    -0.167 F 
ATOM      6  F   LIG    1       28.558 -13.634   3.417  0.00  0.00    -0.167 F 
ENDBRANCH   1   3
BRANCH   1   7
ATOM      7  O   LIG    1       25.058 -14.350   4.309  0.00  0.00    -0.294 OA
BRANCH   7   9
ATOM      8  F   LIG    1       23.889 -12.450   4.514  0.00  0.00    -0.178 F 
ATOM      9  C   LIG    1       23.949 -13.619   3.835  0.00  0.00    +0.484 C 
ATOM     10  F   LIG    1       24.121 -13.330   2.538  0.00  0.00    -0.178 F 
ENDBRANCH   7   9
ENDBRANCH   1   7
TORSDOF 3
ENDMDL
MODEL 7
REMARK VINA RESULT:      -4.7      6.881      8.018
REMARK  Name = *****
REMARK                            x       y       z     vdW  Elec       q    Type
REMARK                         _______ _______ _______ _____ _____    ______ ____
ROOT
ATOM      1  C   LIG    1       26.012 -14.428   3.337  0.00  0.00    +0.318 C 
ATOM      2 CL   LIG    1       26.082 -16.230   3.253  0.00  0.00    -0.081 Cl
ENDROOT
BRANCH   1   3
ATOM      3  C   LIG    1       27.250 -13.856   4.065  0.00  0.00    +0.430 C 
ATOM      4  F   LIG    1       28.200 -14.791   4.306  0.00  0.00    -0.167 F 
ATOM      5  F   LIG    1       26.900 -13.350   5.274  0.00  0.00    -0.167 F 
ATOM      6  F   LIG    1       27.847 -12.866   3.360  0.00  0.00    -0.167 F 
ENDBRANCH   1   3
BRANCH   1   7
ATOM      7  O   LIG    1       25.836 -13.991   1.985  0.00  0.00    -0.294 OA
BRANCH   7   9
ATOM      8  F   LIG    1       23.859 -13.315   2.795  0.00  0.00    -0.178 F 
ATOM      9  C   LIG    1       24.795 -13.049   1.854  0.00  0.00    +0.484 C 
ATOM     10  F   LIG    1       25.269 -11.818   2.088  0.00  0.00    -0.178 F 
ENDBRANCH   7   9
ENDBRANCH   1   7
TORSDOF 3
ENDMDL
MODEL 8
REMARK VINA RESULT:      -4.6      6.236      7.463
REMARK  Name = *****
REMARK                            x       y       z     vdW  Elec       q    Type
REMARK                         _______ _______ _______ _____ _____    ______ ____
ROOT
ATOM      1  C   LIG    1       26.300 -14.497   3.041  0.00  0.00    +0.318 C 
ATOM      2 CL   LIG    1       25.633 -12.978   2.330  0.00  0.00    -0.081 Cl
ENDROOT
BRANCH   1   3
ATOM      3  C   LIG    1       27.534 -14.204   3.926  0.00  0.00    +0.430 C 
ATOM      4  F   LIG    1       28.527 -13.570   3.255  0.00  0.00    -0.167 F 
ATOM      5  F   LIG    1       28.069 -15.359   4.394  0.00  0.00    -0.167 F 
ATOM      6  F   LIG    1       27.228 -13.428   4.992  0.00  0.00    -0.167 F 
ENDBRANCH   1   3
BRANCH   1   7
ATOM      7  O   LIG    1       25.198 -15.120   3.709  0.00  0.00    -0.294 OA
BRANCH   7   9
ATOM      8  F   LIG    1       23.009 -14.981   4.166  0.00  0.00    -0.178 F 
ATOM      9  C   LIG    1       24.108 -14.243   3.885  0.00  0.00    +0.484 C 
ATOM     10  F   LIG    1       24.339 -13.441   4.933  0.00  0.00    -0.178 F 
ENDBRANCH   7   9
ENDBRANCH   1   7
TORSDOF 3
ENDMDL
MODEL 9
REMARK VINA RESULT:      -4.6      6.111      6.709
REMARK  Name = *****
REMARK                            x       y       z     vdW  Elec       q    Type
REMARK                         _______ _______ _______ _____ _____    ______ ____
ROOT
ATOM      1  C   LIG    1       25.675 -13.334   3.914  0.00  0.00    +0.318 C 
ATOM      2 CL   LIG    1       26.164 -13.310   2.176  0.00  0.00    -0.081 Cl
ENDROOT
BRANCH   1   3
ATOM      3  C   LIG    1       24.136 -13.355   4.059  0.00  0.00    +0.430 C 
ATOM      4  F   LIG    1       23.685 -14.425   4.758  0.00  0.00    -0.167 F 
ATOM      5  F   LIG    1       23.544 -13.421   2.840  0.00  0.00    -0.167 F 
ATOM      6  F   LIG    1       23.665 -12.252   4.688  0.00  0.00    -0.167 F 
ENDBRANCH   1   3
BRANCH   1   7
ATOM      7  O   LIG    1       26.362 -14.452   4.486  0.00  0.00    -0.294 OA
BRANCH   7   9
ATOM      8  F   LIG    1       27.833 -16.062   3.974  0.00  0.00    -0.178 F 
ATOM      9  C   LIG    1       26.741 -15.406   3.519  0.00  0.00    +0.484 C 
ATOM     10  F   LIG    1       25.760 -16.305   3.364  0.00  0.00    -0.178 F 
ENDBRANCH   7   9
ENDBRANCH   1   7
TORSDOF 3
ENDMDL
