MODEL 1
REMARK VINA RESULT:      -0.5      0.000      0.000
REMARK  Name = *****
REMARK                            x       y       z     vdW  Elec       q    Type
REMARK                         _______ _______ _______ _____ _____    ______ ____
ROOT
ATOM      1  C   LIG    1       24.974 -17.626   3.299  0.00  0.00    +0.069 C 
ENDROOT
BRANCH   1   3
ATOM      2  C   LIG    1       24.487 -19.619   4.870  0.00  0.00    +0.130 A 
ATOM      3  C   LIG    1       25.420 -18.682   4.305  0.00  0.00    +0.040 A 
ATOM      4  C   LIG    1       26.774 -18.757   4.669  0.00  0.00    +0.138 A 
ATOM      5  C   LIG    1       27.157 -19.733   5.563  0.00  0.00    +0.107 A 
ATOM      6  C   LIG    1       28.489 -19.983   6.090  0.00  0.00    +0.344 C 
ATOM      7  O   LIG    1       28.380 -21.038   6.958  0.00  0.00    -0.456 OA
ATOM      8  C   LIG    1       27.028 -21.509   7.044  0.00  0.00    +0.269 C 
ATOM      9  O   LIG    1       29.475 -19.355   5.805  0.00  0.00    -0.245 OA
ATOM     10  C   LIG    1       26.273 -20.632   6.118  0.00  0.00    +0.014 A 
ATOM     11  C   LIG    1       24.911 -20.594   5.809  0.00  0.00    -0.001 A 
ATOM     12  C   LIG    1       24.001 -21.556   6.516  0.00  0.00    +0.048 C 
BRANCH   2  14
ATOM     13  C   LIG    1       22.092 -19.652   5.308  0.00  0.00    +0.277 C 
ATOM     14  O   LIG    1       23.196 -19.402   4.462  0.00  0.00    -0.494 OA
ENDBRANCH   2  14
BRANCH   4  15
ATOM     15  O   LIG    1       27.682 -17.877   4.152  0.00  0.00    -0.505 OA
ATOM     16  H   LIG    1       28.583 -18.133   4.452  0.00  0.00    +0.292 HD
ENDBRANCH   4  15
ENDBRANCH   1   3
BRANCH   1  17
ATOM     17  C   LIG    1       24.778 -16.260   3.905  0.00  0.00    -0.023 C 
ATOM     18  C   LIG    1       23.629 -15.596   4.134  0.00  0.00    -0.076 C 
ATOM     19  C   LIG    1       22.260 -16.162   3.883  0.00  0.00    +0.038 C 
BRANCH  18  20
ATOM     20  C   LIG    1       23.680 -14.191   4.700  0.00  0.00    +0.041 C 
BRANCH  20  21
ATOM     21  C   LIG    1       24.780 -13.320   4.085  0.00  0.00    +0.125 C 
BRANCH  21  22
ATOM     22  C   LIG    1       24.456 -12.897   2.667  0.00  0.00    +0.307 C 
ATOM     23  O   LIG    1       23.369 -12.467   2.311  0.00  0.00    -0.251 OA
BRANCH  22  24
ATOM     24  O   LIG    1       25.494 -13.163   1.836  0.00  0.00    -0.463 OA
BRANCH  24  25
ATOM     25  C   LIG    1       26.661 -13.792   2.384  0.00  0.00    +0.247 C 
BRANCH  25  26
ATOM     26  C   LIG    1       27.843 -12.825   2.628  0.00  0.00    +0.125 C 
BRANCH  26  27
ATOM     27  N   LIG    1       28.734 -13.163   3.759  0.00  0.00    -0.295 NA
ATOM     28  C   LIG    1       28.664 -12.242   4.913  0.00  0.00    +0.112 C 
ATOM     29  C   LIG    1       27.433 -12.421   5.817  0.00  0.00    +0.175 C 
ATOM     30  O   LIG    1       27.318 -13.773   6.278  0.00  0.00    -0.377 OA
ATOM     31  C   LIG    1       27.234 -14.665   5.160  0.00  0.00    +0.175 C 
ATOM     32  C   LIG    1       28.479 -14.538   4.262  0.00  0.00    +0.112 C 
ENDBRANCH  26  27
ENDBRANCH  25  26
ENDBRANCH  24  25
ENDBRANCH  22  24
ENDBRANCH  21  22
ENDBRANCH  20  21
ENDBRANCH  18  20
ENDBRANCH   1  17
TORSDOF 11
ENDMDL
MODEL 2
REMARK VINA RESULT:      -0.5      1.868      4.236
REMARK  Name = *****
REMARK                            x       y       z     vdW  Elec       q    Type
REMARK                         _______ _______ _______ _____ _____    ______ ____
ROOT
ATOM      1  C   LIG    1       26.145 -18.116   3.145  0.00  0.00    +0.069 C 
ENDROOT
BRANCH   1   3
ATOM      2  C   LIG    1       26.234 -19.790   5.112  0.00  0.00    +0.130 A 
ATOM      3  C   LIG    1       25.471 -19.062   4.134  0.00  0.00    +0.040 A 
ATOM      4  C   LIG    1       24.075 -19.206   4.106  0.00  0.00    +0.138 A 
ATOM      5  C   LIG    1       23.487 -20.049   5.024  0.00  0.00    +0.107 A 
ATOM      6  C   LIG    1       22.074 -20.362   5.166  0.00  0.00    +0.344 C 
ATOM      7  O   LIG    1       21.969 -21.260   6.195  0.00  0.00    -0.456 OA
ATOM      8  C   LIG    1       23.253 -21.572   6.752  0.00  0.00    +0.269 C 
ATOM      9  O   LIG    1       21.193 -19.909   4.483  0.00  0.00    -0.245 OA
ATOM     10  C   LIG    1       24.206 -20.758   5.960  0.00  0.00    +0.014 A 
ATOM     11  C   LIG    1       25.598 -20.671   6.024  0.00  0.00    -0.001 A 
ATOM     12  C   LIG    1       26.314 -21.536   7.020  0.00  0.00    +0.048 C 
BRANCH   2  14
ATOM     13  C   LIG    1       28.409 -19.369   6.123  0.00  0.00    +0.277 C 
ATOM     14  O   LIG    1       27.585 -19.588   4.995  0.00  0.00    -0.494 OA
ENDBRANCH   2  14
BRANCH   4  15
ATOM     15  O   LIG    1       23.325 -18.531   3.185  0.00  0.00    -0.505 OA
ATOM     16  H   LIG    1       22.381 -18.557   3.459  0.00  0.00    +0.292 HD
ENDBRANCH   4  15
ENDBRANCH   1   3
BRANCH   1  17
ATOM     17  C   LIG    1       27.045 -17.101   3.800  0.00  0.00    -0.023 C 
ATOM     18  C   LIG    1       27.184 -15.790   3.519  0.00  0.00    -0.076 C 
ATOM     19  C   LIG    1       26.367 -15.053   2.496  0.00  0.00    +0.038 C 
BRANCH  18  20
ATOM     20  C   LIG    1       28.210 -14.970   4.275  0.00  0.00    +0.041 C 
BRANCH  20  21
ATOM     21  C   LIG    1       27.694 -13.596   4.715  0.00  0.00    +0.125 C 
BRANCH  21  22
ATOM     22  C   LIG    1       28.010 -12.510   3.706  0.00  0.00    +0.307 C 
ATOM     23  O   LIG    1       28.844 -11.633   3.881  0.00  0.00    -0.251 OA
BRANCH  22  24
ATOM     24  O   LIG    1       27.172 -12.581   2.642  0.00  0.00    -0.463 OA
BRANCH  24  25
ATOM     25  C   LIG    1       26.137 -11.594   2.524  0.00  0.00    +0.247 C 
BRANCH  25  26
ATOM     26  C   LIG    1       24.853 -12.107   1.833  0.00  0.00    +0.125 C 
BRANCH  26  27
ATOM     27  N   LIG    1       23.655 -12.220   2.693  0.00  0.00    -0.295 NA
ATOM     28  C   LIG    1       23.251 -13.600   3.032  0.00  0.00    +0.112 C 
ATOM     29  C   LIG    1       24.104 -14.282   4.114  0.00  0.00    +0.175 C 
ATOM     30  O   LIG    1       24.156 -13.494   5.309  0.00  0.00    -0.377 OA
ATOM     31  C   LIG    1       24.690 -12.197   5.015  0.00  0.00    +0.175 C 
ATOM     32  C   LIG    1       23.826 -11.473   3.966  0.00  0.00    +0.112 C 
ENDBRANCH  26  27
ENDBRANCH  25  26
ENDBRANCH  24  25
ENDBRANCH  22  24
ENDBRANCH  21  22
ENDBRANCH  20  21
ENDBRANCH  18  20
ENDBRANCH   1  17
TORSDOF 11
ENDMDL
MODEL 3
REMARK VINA RESULT:       1.6      2.169      4.837
REMARK  Name = *****
REMARK                            x       y       z     vdW  Elec       q    Type
REMARK                         _______ _______ _______ _____ _____    ______ ____
ROOT
ATOM      1  C   LIG    1       25.504 -20.979   4.274  0.00  0.00    +0.069 C 
ENDROOT
BRANCH   1   3
ATOM      2  C   LIG    1       27.518 -19.974   5.543  0.00  0.00    +0.130 A 
ATOM      3  C   LIG    1       26.462 -19.832   4.577  0.00  0.00    +0.040 A 
ATOM      4  C   LIG    1       26.327 -18.621   3.880  0.00  0.00    +0.138 A 
ATOM      5  C   LIG    1       27.218 -17.606   4.155  0.00  0.00    +0.107 A 
ATOM      6  C   LIG    1       27.256 -16.275   3.573  0.00  0.00    +0.344 C 
ATOM      7  O   LIG    1       28.299 -15.612   4.166  0.00  0.00    -0.456 OA
ATOM      8  C   LIG    1       28.965 -16.441   5.130  0.00  0.00    +0.269 C 
ATOM      9  O   LIG    1       26.493 -15.862   2.739  0.00  0.00    -0.245 OA
ATOM     10  C   LIG    1       28.228 -17.726   5.083  0.00  0.00    +0.014 A 
ATOM     11  C   LIG    1       28.400 -18.899   5.821  0.00  0.00    -0.001 A 
ATOM     12  C   LIG    1       29.474 -18.922   6.870  0.00  0.00    +0.048 C 
BRANCH   2  14
ATOM     13  C   LIG    1       26.464 -21.559   7.062  0.00  0.00    +0.277 C 
ATOM     14  O   LIG    1       27.503 -21.190   6.177  0.00  0.00    -0.494 OA
ENDBRANCH   2  14
BRANCH   4  15
ATOM     15  O   LIG    1       25.330 -18.456   2.960  0.00  0.00    -0.505 OA
ATOM     16  H   LIG    1       25.560 -18.958   2.146  0.00  0.00    +0.292 HD
ENDBRANCH   4  15
ENDBRANCH   1   3
BRANCH   1  17
ATOM     17  C   LIG    1       24.070 -20.543   4.118  0.00  0.00    -0.023 C 
ATOM     18  C   LIG    1       23.066 -20.608   5.014  0.00  0.00    -0.076 C 
ATOM     19  C   LIG    1       23.226 -21.084   6.430  0.00  0.00    +0.038 C 
BRANCH  18  20
ATOM     20  C   LIG    1       21.675 -20.163   4.610  0.00  0.00    +0.041 C 
BRANCH  20  21
ATOM     21  C   LIG    1       21.658 -19.223   3.400  0.00  0.00    +0.125 C 
BRANCH  21  22
ATOM     22  C   LIG    1       20.925 -17.928   3.685  0.00  0.00    +0.307 C 
ATOM     23  O   LIG    1       19.935 -17.552   3.074  0.00  0.00    -0.251 OA
BRANCH  22  24
ATOM     24  O   LIG    1       21.577 -17.201   4.625  0.00  0.00    -0.463 OA
BRANCH  24  25
ATOM     25  C   LIG    1       22.879 -16.688   4.306  0.00  0.00    +0.247 C 
BRANCH  25  26
ATOM     26  C   LIG    1       23.011 -15.156   4.469  0.00  0.00    +0.125 C 
BRANCH  26  27
ATOM     27  N   LIG    1       24.205 -14.539   3.853  0.00  0.00    -0.295 NA
ATOM     28  C   LIG    1       23.927 -13.487   2.854  0.00  0.00    +0.112 C 
ATOM     29  C   LIG    1       23.513 -12.126   3.438  0.00  0.00    +0.175 C 
ATOM     30  O   LIG    1       24.483 -11.646   4.377  0.00  0.00    -0.377 OA
ATOM     31  C   LIG    1       24.651 -12.599   5.435  0.00  0.00    +0.175 C 
ATOM     32  C   LIG    1       25.110 -13.960   4.880  0.00  0.00    +0.112 C 
ENDBRANCH  26  27
ENDBRANCH  25  26
ENDBRANCH  24  25
ENDBRANCH  22  24
ENDBRANCH  21  22
ENDBRANCH  20  21
ENDBRANCH  18  20
ENDBRANCH   1  17
TORSDOF 11
ENDMDL
MODEL 4
REMARK VINA RESULT:       2.2      1.322      1.896
REMARK  Name = *****
REMARK                            x       y       z     vdW  Elec       q    Type
REMARK                         _______ _______ _______ _____ _____    ______ ____
ROOT
ATOM      1  C   LIG    1       23.732 -18.706   2.766  0.00  0.00    +0.069 C 
ENDROOT
BRANCH   1   3
ATOM      2  C   LIG    1       23.886 -20.175   4.886  0.00  0.00    +0.130 A 
ATOM      3  C   LIG    1       24.514 -19.301   3.932  0.00  0.00    +0.040 A 
ATOM      4  C   LIG    1       25.882 -19.011   4.064  0.00  0.00    +0.138 A 
ATOM      5  C   LIG    1       26.573 -19.578   5.112  0.00  0.00    +0.107 A 
ATOM      6  C   LIG    1       27.976 -19.404   5.449  0.00  0.00    +0.344 C 
ATOM      7  O   LIG    1       28.206 -20.143   6.580  0.00  0.00    -0.456 OA
ATOM      8  C   LIG    1       27.014 -20.805   7.025  0.00  0.00    +0.269 C 
ATOM      9  O   LIG    1       28.756 -18.723   4.836  0.00  0.00    -0.245 OA
ATOM     10  C   LIG    1       25.982 -20.409   6.037  0.00  0.00    +0.014 A 
ATOM     11  C   LIG    1       24.622 -20.719   5.970  0.00  0.00    -0.001 A 
ATOM     12  C   LIG    1       24.038 -21.569   7.062  0.00  0.00    +0.048 C 
BRANCH   2  14
ATOM     13  C   LIG    1       21.828 -21.445   5.166  0.00  0.00    +0.277 C 
ATOM     14  O   LIG    1       22.543 -20.335   4.663  0.00  0.00    -0.494 OA
ENDBRANCH   2  14
BRANCH   4  15
ATOM     15  O   LIG    1       26.503 -18.179   3.175  0.00  0.00    -0.505 OA
ATOM     16  H   LIG    1       26.765 -18.698   2.381  0.00  0.00    +0.292 HD
ENDBRANCH   4  15
ENDBRANCH   1   3
BRANCH   1  17
ATOM     17  C   LIG    1       23.324 -17.272   2.984  0.00  0.00    -0.023 C 
ATOM     18  C   LIG    1       22.738 -16.715   4.062  0.00  0.00    -0.076 C 
ATOM     19  C   LIG    1       22.442 -17.451   5.338  0.00  0.00    +0.038 C 
BRANCH  18  20
ATOM     20  C   LIG    1       22.357 -15.248   4.030  0.00  0.00    +0.041 C 
BRANCH  20  21
ATOM     21  C   LIG    1       23.482 -14.311   4.481  0.00  0.00    +0.125 C 
BRANCH  21  22
ATOM     22  C   LIG    1       23.994 -13.439   3.353  0.00  0.00    +0.307 C 
ATOM     23  O   LIG    1       23.361 -13.189   2.337  0.00  0.00    -0.251 OA
BRANCH  22  24
ATOM     24  O   LIG    1       25.280 -13.071   3.574  0.00  0.00    -0.463 OA
BRANCH  24  25
ATOM     25  C   LIG    1       25.582 -12.336   4.769  0.00  0.00    +0.247 C 
BRANCH  25  26
ATOM     26  C   LIG    1       26.240 -13.185   5.882  0.00  0.00    +0.125 C 
BRANCH  26  27
ATOM     27  N   LIG    1       27.645 -13.583   5.647  0.00  0.00    -0.295 NA
ATOM     28  C   LIG    1       27.829 -14.916   5.037  0.00  0.00    +0.112 C 
ATOM     29  C   LIG    1       27.546 -14.987   3.527  0.00  0.00    +0.175 C 
ATOM     30  O   LIG    1       28.323 -14.023   2.807  0.00  0.00    -0.377 OA
ATOM     31  C   LIG    1       28.038 -12.705   3.293  0.00  0.00    +0.175 C 
ATOM     32  C   LIG    1       28.357 -12.594   4.796  0.00  0.00    +0.112 C 
ENDBRANCH  26  27
ENDBRANCH  25  26
ENDBRANCH  24  25
ENDBRANCH  22  24
ENDBRANCH  21  22
ENDBRANCH  20  21
ENDBRANCH  18  20
ENDBRANCH   1  17
TORSDOF 11
ENDMDL
MODEL 5
REMARK VINA RESULT:       2.3      2.219      6.993
REMARK  Name = *****
REMARK                            x       y       z     vdW  Elec       q    Type
REMARK                         _______ _______ _______ _____ _____    ______ ____
ROOT
ATOM      1  C   LIG    1       23.576 -14.241   3.096  0.00  0.00    +0.069 C 
ENDROOT
BRANCH   1   3
ATOM      2  C   LIG    1       24.721 -12.915   4.996  0.00  0.00    +0.130 A 
ATOM      3  C   LIG    1       24.815 -13.657   3.768  0.00  0.00    +0.040 A 
ATOM      4  C   LIG    1       26.076 -13.870   3.189  0.00  0.00    +0.138 A 
ATOM      5  C   LIG    1       27.183 -13.352   3.826  0.00  0.00    +0.107 A 
ATOM      6  C   LIG    1       28.571 -13.435   3.403  0.00  0.00    +0.344 C 
ATOM      7  O   LIG    1       29.311 -12.758   4.337  0.00  0.00    -0.456 OA
ATOM      8  C   LIG    1       28.479 -12.217   5.372  0.00  0.00    +0.269 C 
ATOM      9  O   LIG    1       28.960 -13.989   2.408  0.00  0.00    -0.245 OA
ATOM     10  C   LIG    1       27.107 -12.633   4.997  0.00  0.00    +0.014 A 
ATOM     11  C   LIG    1       25.879 -12.371   5.609  0.00  0.00    -0.001 A 
ATOM     12  C   LIG    1       25.873 -11.512   6.841  0.00  0.00    +0.048 C 
BRANCH   2  14
ATOM     13  C   LIG    1       22.811 -11.474   5.450  0.00  0.00    +0.277 C 
ATOM     14  O   LIG    1       23.429 -12.745   5.422  0.00  0.00    -0.494 OA
ENDBRANCH   2  14
BRANCH   4  15
ATOM     15  O   LIG    1       26.195 -14.568   2.020  0.00  0.00    -0.505 OA
ATOM     16  H   LIG    1       27.146 -14.625   1.776  0.00  0.00    +0.292 HD
ENDBRANCH   4  15
ENDBRANCH   1   3
BRANCH   1  17
ATOM     17  C   LIG    1       23.509 -15.745   3.158  0.00  0.00    -0.023 C 
ATOM     18  C   LIG    1       22.938 -16.526   4.096  0.00  0.00    -0.076 C 
ATOM     19  C   LIG    1       22.159 -16.006   5.270  0.00  0.00    +0.038 C 
BRANCH  18  20
ATOM     20  C   LIG    1       23.052 -18.033   3.980  0.00  0.00    +0.041 C 
BRANCH  20  21
ATOM     21  C   LIG    1       22.284 -18.792   5.067  0.00  0.00    +0.125 C 
BRANCH  21  22
ATOM     22  C   LIG    1       22.918 -20.128   5.397  0.00  0.00    +0.307 C 
ATOM     23  O   LIG    1       22.843 -21.118   4.684  0.00  0.00    -0.251 OA
BRANCH  22  24
ATOM     24  O   LIG    1       23.480 -20.103   6.631  0.00  0.00    -0.463 OA
BRANCH  24  25
ATOM     25  C   LIG    1       24.491 -21.074   6.938  0.00  0.00    +0.247 C 
BRANCH  25  26
ATOM     26  C   LIG    1       25.915 -20.485   7.056  0.00  0.00    +0.125 C 
BRANCH  26  27
ATOM     27  N   LIG    1       26.890 -20.937   6.040  0.00  0.00    -0.295 NA
ATOM     28  C   LIG    1       27.188 -19.959   4.974  0.00  0.00    +0.112 C 
ATOM     29  C   LIG    1       28.131 -18.815   5.383  0.00  0.00    +0.175 C 
ATOM     30  O   LIG    1       29.358 -19.320   5.923  0.00  0.00    -0.377 OA
ATOM     31  C   LIG    1       29.086 -20.155   7.055  0.00  0.00    +0.175 C 
ATOM     32  C   LIG    1       28.180 -21.336   6.661  0.00  0.00    +0.112 C 
ENDBRANCH  26  27
ENDBRANCH  25  26
ENDBRANCH  24  25
ENDBRANCH  22  24
ENDBRANCH  21  22
ENDBRANCH  20  21
ENDBRANCH  18  20
ENDBRANCH   1  17
TORSDOF 11
ENDMDL
