MODEL 1
REMARK VINA RESULT:      -8.6      0.000      0.000
REMARK  Name = *****
REMARK                            x       y       z     vdW  Elec       q    Type
REMARK                         _______ _______ _______ _____ _____    ______ ____
ROOT
ATOM      1  C   LIG    1       30.705 -19.427   7.252  0.00  0.00    +0.164 A 
ATOM      2  C   LIG    1       30.517 -20.553   8.074  0.00  0.00    +0.162 A 
ATOM      3  C   LIG    1       29.318 -21.260   7.976  0.00  0.00    +0.062 A 
ATOM      4  C   LIG    1       28.312 -20.858   7.076  0.00  0.00    +0.044 A 
ATOM      5  C   LIG    1       28.493 -19.750   6.257  0.00  0.00    +0.082 A 
ATOM      6  N   LIG    1       27.557 -19.332   5.397  0.00  0.00    -0.214 NA
ATOM      7  C   LIG    1       26.411 -20.025   5.318  0.00  0.00    +0.220 A 
ATOM      8  N   LIG    1       26.161 -21.106   6.072  0.00  0.00    -0.199 NA
ATOM      9  C   LIG    1       27.085 -21.492   6.950  0.00  0.00    +0.129 A 
ATOM     10  C   LIG    1       29.679 -19.042   6.374  0.00  0.00    +0.078 A 
ENDROOT
BRANCH   9  11
ATOM     11  N   LIG    1       26.724 -22.579   7.757  0.00  0.00    -0.343 N 
ATOM     12  H   LIG    1       27.403 -23.329   7.672  0.00  0.00    +0.144 HD
ATOM     13  H   LIG    1       26.693 -22.226   8.712  0.00  0.00    +0.144 HD
ENDBRANCH   9  11
BRANCH   1  15
ATOM     14  C   LIG    1       31.962 -17.766   8.397  0.00  0.00    +0.277 C 
ATOM     15  O   LIG    1       31.889 -18.731   7.341  0.00  0.00    -0.491 OA
ENDBRANCH   1  15
BRANCH   2  16
ATOM     16  O   LIG    1       31.496 -20.905   8.973  0.00  0.00    -0.491 OA
ATOM     17  C   LIG    1       31.442 -22.259   9.435  0.00  0.00    +0.277 C 
ENDBRANCH   2  16
BRANCH   7  18
ATOM     18  N   LIG    1       25.412 -19.571   4.460  0.00  0.00    -0.303 N 
ATOM     19  C   LIG    1       25.867 -18.583   3.492  0.00  0.00    +0.132 C 
BRANCH  18  20
ATOM     20  C   LIG    1       24.459 -20.594   4.004  0.00  0.00    +0.109 C 
BRANCH  20  21
ATOM     21  C   LIG    1       23.083 -20.474   4.680  0.00  0.00    +0.037 C 
BRANCH  21  22
ATOM     22  C   LIG    1       22.751 -21.667   5.577  0.00  0.00    +0.105 C 
BRANCH  22  23
ATOM     23  N   LIG    1       23.797 -22.673   5.500  0.00  0.00    -0.313 N 
ATOM     24  H   LIG    1       24.632 -22.498   4.942  0.00  0.00    +0.149 HD
ATOM     25  C   LIG    1       23.732 -23.892   6.121  0.00  0.00    +0.242 C 
ATOM     26  O   LIG    1       22.834 -24.199   6.920  0.00  0.00    -0.273 OA
BRANCH  25  27
ATOM     27  C   LIG    1       24.857 -24.875   5.756  0.00  0.00    +0.204 C 
ATOM     28  O   LIG    1       25.686 -25.215   6.883  0.00  0.00    -0.367 OA
ATOM     29  C   LIG    1       25.853 -26.636   6.886  0.00  0.00    +0.161 C 
ATOM     30  C   LIG    1       24.595 -27.183   6.258  0.00  0.00    +0.031 C 
ATOM     31  C   LIG    1       24.319 -26.169   5.173  0.00  0.00    +0.043 C 
ENDBRANCH  25  27
ENDBRANCH  22  23
ENDBRANCH  21  22
ENDBRANCH  20  21
ENDBRANCH  18  20
ENDBRANCH   7  18
TORSDOF 9
ENDMDL
MODEL 2
REMARK VINA RESULT:      -7.8      1.426      2.965
REMARK  Name = *****
REMARK                            x       y       z     vdW  Elec       q    Type
REMARK                         _______ _______ _______ _____ _____    ______ ____
ROOT
ATOM      1  C   LIG    1       30.631 -20.364   8.211  0.00  0.00    +0.164 A 
ATOM      2  C   LIG    1       30.965 -19.217   7.468  0.00  0.00    +0.162 A 
ATOM      3  C   LIG    1       30.063 -18.755   6.510  0.00  0.00    +0.062 A 
ATOM      4  C   LIG    1       28.841 -19.419   6.285  0.00  0.00    +0.044 A 
ATOM      5  C   LIG    1       28.502 -20.549   7.018  0.00  0.00    +0.082 A 
ATOM      6  N   LIG    1       27.356 -21.213   6.828  0.00  0.00    -0.214 NA
ATOM      7  C   LIG    1       26.502 -20.754   5.901  0.00  0.00    +0.220 A 
ATOM      8  N   LIG    1       26.755 -19.669   5.153  0.00  0.00    -0.199 NA
ATOM      9  C   LIG    1       27.913 -19.036   5.328  0.00  0.00    +0.129 A 
ATOM     10  C   LIG    1       29.412 -21.014   7.956  0.00  0.00    +0.078 A 
ENDROOT
BRANCH   9  11
ATOM     11  N   LIG    1       28.144 -17.961   4.459  0.00  0.00    -0.343 N 
ATOM     12  H   LIG    1       27.266 -17.587   4.113  0.00  0.00    +0.144 HD
ATOM     13  H   LIG    1       28.647 -17.261   4.999  0.00  0.00    +0.144 HD
ENDBRANCH   9  11
BRANCH   1  15
ATOM     14  C   LIG    1       31.381 -22.198   9.523  0.00  0.00    +0.277 C 
ATOM     15  O   LIG    1       31.516 -20.818   9.163  0.00  0.00    -0.491 OA
ENDBRANCH   1  15
BRANCH   2  16
ATOM     16  O   LIG    1       32.178 -18.605   7.676  0.00  0.00    -0.491 OA
ATOM     17  C   LIG    1       32.186 -17.590   8.684  0.00  0.00    +0.277 C 
ENDBRANCH   2  16
BRANCH   7  18
ATOM     18  N   LIG    1       25.328 -21.464   5.662  0.00  0.00    -0.303 N 
ATOM     19  C   LIG    1       24.630 -21.063   4.449  0.00  0.00    +0.132 C 
BRANCH  18  20
ATOM     20  C   LIG    1       25.381 -22.898   5.984  0.00  0.00    +0.109 C 
BRANCH  20  21
ATOM     21  C   LIG    1       24.280 -23.332   6.966  0.00  0.00    +0.037 C 
BRANCH  21  22
ATOM     22  C   LIG    1       23.343 -24.391   6.385  0.00  0.00    +0.105 C 
BRANCH  22  23
ATOM     23  N   LIG    1       23.963 -25.705   6.433  0.00  0.00    -0.313 N 
ATOM     24  H   LIG    1       23.799 -26.317   7.230  0.00  0.00    +0.149 HD
ATOM     25  C   LIG    1       24.803 -26.189   5.464  0.00  0.00    +0.242 C 
ATOM     26  O   LIG    1       25.005 -25.605   4.388  0.00  0.00    -0.273 OA
BRANCH  25  27
ATOM     27  C   LIG    1       25.495 -27.520   5.802  0.00  0.00    +0.204 C 
ATOM     28  O   LIG    1       25.590 -27.753   7.219  0.00  0.00    -0.367 OA
ATOM     29  C   LIG    1       25.169 -29.099   7.466  0.00  0.00    +0.161 C 
ATOM     30  C   LIG    1       24.169 -29.407   6.379  0.00  0.00    +0.031 C 
ATOM     31  C   LIG    1       24.778 -28.709   5.186  0.00  0.00    +0.043 C 
ENDBRANCH  25  27
ENDBRANCH  22  23
ENDBRANCH  21  22
ENDBRANCH  20  21
ENDBRANCH  18  20
ENDBRANCH   7  18
TORSDOF 9
ENDMDL
MODEL 3
REMARK VINA RESULT:      -7.6      2.547      4.246
REMARK  Name = *****
REMARK                            x       y       z     vdW  Elec       q    Type
REMARK                         _______ _______ _______ _____ _____    ______ ____
ROOT
ATOM      1  C   LIG    1       29.811 -20.612   8.033  0.00  0.00    +0.164 A 
ATOM      2  C   LIG    1       29.782 -19.563   7.096  0.00  0.00    +0.162 A 
ATOM      3  C   LIG    1       28.688 -19.463   6.237  0.00  0.00    +0.062 A 
ATOM      4  C   LIG    1       27.630 -20.391   6.301  0.00  0.00    +0.044 A 
ATOM      5  C   LIG    1       27.648 -21.426   7.227  0.00  0.00    +0.082 A 
ATOM      6  N   LIG    1       26.668 -22.332   7.313  0.00  0.00    -0.214 NA
ATOM      7  C   LIG    1       25.624 -22.219   6.478  0.00  0.00    +0.220 A 
ATOM      8  N   LIG    1       25.530 -21.248   5.557  0.00  0.00    -0.199 NA
ATOM      9  C   LIG    1       26.528 -20.372   5.458  0.00  0.00    +0.129 A 
ATOM     10  C   LIG    1       28.749 -21.530   8.064  0.00  0.00    +0.078 A 
ENDROOT
BRANCH   9  11
ATOM     11  N   LIG    1       26.400 -19.435   4.425  0.00  0.00    -0.343 N 
ATOM     12  H   LIG    1       27.313 -19.146   4.089  0.00  0.00    +0.144 HD
ATOM     13  H   LIG    1       25.873 -19.896   3.686  0.00  0.00    +0.144 HD
ENDBRANCH   9  11
BRANCH   1  15
ATOM     14  C   LIG    1       31.331 -22.041   9.170  0.00  0.00    +0.277 C 
ATOM     15  O   LIG    1       30.886 -20.709   8.887  0.00  0.00    -0.491 OA
ENDBRANCH   1  15
BRANCH   2  16
ATOM     16  O   LIG    1       30.842 -18.690   7.024  0.00  0.00    -0.491 OA
ATOM     17  C   LIG    1       31.110 -17.955   8.222  0.00  0.00    +0.277 C 
ENDBRANCH   2  16
BRANCH   7  18
ATOM     18  N   LIG    1       24.620 -23.184   6.526  0.00  0.00    -0.303 N 
ATOM     19  C   LIG    1       23.271 -22.640   6.459  0.00  0.00    +0.132 C 
BRANCH  18  20
ATOM     20  C   LIG    1       24.901 -24.425   5.787  0.00  0.00    +0.109 C 
BRANCH  20  21
ATOM     21  C   LIG    1       25.453 -25.544   6.685  0.00  0.00    +0.037 C 
BRANCH  21  22
ATOM     22  C   LIG    1       26.159 -26.648   5.898  0.00  0.00    +0.105 C 
BRANCH  22  23
ATOM     23  N   LIG    1       25.856 -27.953   6.462  0.00  0.00    -0.313 N 
ATOM     24  H   LIG    1       26.385 -28.299   7.261  0.00  0.00    +0.149 HD
ATOM     25  C   LIG    1       24.895 -28.795   5.967  0.00  0.00    +0.242 C 
ATOM     26  O   LIG    1       24.100 -28.465   5.074  0.00  0.00    -0.273 OA
BRANCH  25  27
ATOM     27  C   LIG    1       24.867 -30.199   6.594  0.00  0.00    +0.204 C 
ATOM     28  O   LIG    1       23.571 -30.820   6.510  0.00  0.00    -0.367 OA
ATOM     29  C   LIG    1       23.762 -32.160   6.044  0.00  0.00    +0.161 C 
ATOM     30  C   LIG    1       25.000 -32.108   5.184  0.00  0.00    +0.031 C 
ATOM     31  C   LIG    1       25.870 -31.136   5.945  0.00  0.00    +0.043 C 
ENDBRANCH  25  27
ENDBRANCH  22  23
ENDBRANCH  21  22
ENDBRANCH  20  21
ENDBRANCH  18  20
ENDBRANCH   7  18
TORSDOF 9
ENDMDL
MODEL 4
REMARK VINA RESULT:      -7.4      3.749      8.590
REMARK  Name = *****
REMARK                            x       y       z     vdW  Elec       q    Type
REMARK                         _______ _______ _______ _____ _____    ______ ____
ROOT
ATOM      1  C   LIG    1       26.324 -29.869   9.710  0.00  0.00    +0.164 A 
ATOM      2  C   LIG    1       25.473 -30.767   9.040  0.00  0.00    +0.162 A 
ATOM      3  C   LIG    1       24.862 -30.353   7.857  0.00  0.00    +0.062 A 
ATOM      4  C   LIG    1       25.087 -29.063   7.338  0.00  0.00    +0.044 A 
ATOM      5  C   LIG    1       25.931 -28.173   7.991  0.00  0.00    +0.082 A 
ATOM      6  N   LIG    1       26.162 -26.936   7.536  0.00  0.00    -0.214 NA
ATOM      7  C   LIG    1       25.565 -26.556   6.396  0.00  0.00    +0.220 A 
ATOM      8  N   LIG    1       24.738 -27.357   5.706  0.00  0.00    -0.199 NA
ATOM      9  C   LIG    1       24.488 -28.573   6.187  0.00  0.00    +0.129 A 
ATOM     10  C   LIG    1       26.519 -28.585   9.177  0.00  0.00    +0.078 A 
ENDROOT
BRANCH   9  11
ATOM     11  N   LIG    1       23.557 -29.323   5.458  0.00  0.00    -0.343 N 
ATOM     12  H   LIG    1       23.345 -30.193   5.936  0.00  0.00    +0.144 HD
ATOM     13  H   LIG    1       22.724 -28.744   5.378  0.00  0.00    +0.144 HD
ENDBRANCH   9  11
BRANCH   1  15
ATOM     14  C   LIG    1       28.010 -29.449  11.331  0.00  0.00    +0.277 C 
ATOM     15  O   LIG    1       26.934 -30.277  10.874  0.00  0.00    -0.491 OA
ENDBRANCH   1  15
BRANCH   2  16
ATOM     16  O   LIG    1       25.236 -32.008   9.583  0.00  0.00    -0.491 OA
ATOM     17  C   LIG    1       25.356 -33.106   8.673  0.00  0.00    +0.277 C 
ENDBRANCH   2  16
BRANCH   7  18
ATOM     18  N   LIG    1       25.762 -25.256   5.938  0.00  0.00    -0.303 N 
ATOM     19  C   LIG    1       25.028 -24.938   4.722  0.00  0.00    +0.132 C 
BRANCH  18  20
ATOM     20  C   LIG    1       25.844 -24.224   6.983  0.00  0.00    +0.109 C 
BRANCH  20  21
ATOM     21  C   LIG    1       24.602 -23.319   7.029  0.00  0.00    +0.037 C 
BRANCH  21  22
ATOM     22  C   LIG    1       24.925 -21.876   7.417  0.00  0.00    +0.105 C 
BRANCH  22  23
ATOM     23  N   LIG    1       26.134 -21.425   6.747  0.00  0.00    -0.313 N 
ATOM     24  H   LIG    1       26.287 -21.649   5.765  0.00  0.00    +0.149 HD
ATOM     25  C   LIG    1       27.132 -20.719   7.366  0.00  0.00    +0.242 C 
ATOM     26  O   LIG    1       27.035 -20.279   8.522  0.00  0.00    -0.273 OA
BRANCH  25  27
ATOM     27  C   LIG    1       28.402 -20.506   6.526  0.00  0.00    +0.204 C 
ATOM     28  O   LIG    1       28.263 -19.440   5.568  0.00  0.00    -0.367 OA
ATOM     29  C   LIG    1       29.432 -18.620   5.659  0.00  0.00    +0.161 C 
ATOM     30  C   LIG    1       29.890 -18.741   7.092  0.00  0.00    +0.031 C 
ATOM     31  C   LIG    1       29.613 -20.195   7.388  0.00  0.00    +0.043 C 
ENDBRANCH  25  27
ENDBRANCH  22  23
ENDBRANCH  21  22
ENDBRANCH  20  21
ENDBRANCH  18  20
ENDBRANCH   7  18
TORSDOF 9
ENDMDL
MODEL 5
REMARK VINA RESULT:      -7.2      2.001      8.480
REMARK  Name = *****
REMARK                            x       y       z     vdW  Elec       q    Type
REMARK                         _______ _______ _______ _____ _____    ______ ____
ROOT
ATOM      1  C   LIG    1       25.736 -26.492   6.852  0.00  0.00    +0.164 A 
ATOM      2  C   LIG    1       24.405 -26.478   6.397  0.00  0.00    +0.162 A 
ATOM      3  C   LIG    1       23.782 -25.248   6.188  0.00  0.00    +0.062 A 
ATOM      4  C   LIG    1       24.466 -24.040   6.428  0.00  0.00    +0.044 A 
ATOM      5  C   LIG    1       25.782 -24.045   6.872  0.00  0.00    +0.082 A 
ATOM      6  N   LIG    1       26.462 -22.919   7.119  0.00  0.00    -0.214 NA
ATOM      7  C   LIG    1       25.845 -21.746   6.913  0.00  0.00    +0.220 A 
ATOM      8  N   LIG    1       24.576 -21.656   6.484  0.00  0.00    -0.199 NA
ATOM      9  C   LIG    1       23.899 -22.783   6.274  0.00  0.00    +0.129 A 
ATOM     10  C   LIG    1       26.388 -25.272   7.095  0.00  0.00    +0.078 A 
ENDROOT
BRANCH   9  11
ATOM     11  N   LIG    1       22.558 -22.613   5.903  0.00  0.00    -0.343 N 
ATOM     12  H   LIG    1       22.401 -22.959   4.962  0.00  0.00    +0.144 HD
ATOM     13  H   LIG    1       22.007 -23.139   6.579  0.00  0.00    +0.144 HD
ENDBRANCH   9  11
BRANCH   1  15
ATOM     14  C   LIG    1       26.369 -28.176   8.404  0.00  0.00    +0.277 C 
ATOM     15  O   LIG    1       26.356 -27.704   7.052  0.00  0.00    -0.491 OA
ENDBRANCH   1  15
BRANCH   2  16
ATOM     16  O   LIG    1       23.743 -27.668   6.206  0.00  0.00    -0.491 OA
ATOM     17  C   LIG    1       24.235 -28.474   5.131  0.00  0.00    +0.277 C 
ENDBRANCH   2  16
BRANCH   7  18
ATOM     18  N   LIG    1       26.527 -20.569   7.212  0.00  0.00    -0.303 N 
ATOM     19  C   LIG    1       26.563 -20.250   8.632  0.00  0.00    +0.132 C 
BRANCH  18  20
ATOM     20  C   LIG    1       27.742 -20.325   6.420  0.00  0.00    +0.109 C 
BRANCH  20  21
ATOM     21  C   LIG    1       29.031 -20.701   7.170  0.00  0.00    +0.037 C 
BRANCH  21  22
ATOM     22  C   LIG    1       30.186 -19.738   6.894  0.00  0.00    +0.105 C 
BRANCH  22  23
ATOM     23  N   LIG    1       30.185 -18.648   7.855  0.00  0.00    -0.313 N 
ATOM     24  H   LIG    1       29.475 -17.920   7.799  0.00  0.00    +0.149 HD
ATOM     25  C   LIG    1       31.117 -18.506   8.850  0.00  0.00    +0.242 C 
ATOM     26  O   LIG    1       31.969 -19.370   9.109  0.00  0.00    -0.273 OA
BRANCH  25  27
ATOM     27  C   LIG    1       31.041 -17.186   9.635  0.00  0.00    +0.204 C 
ATOM     28  O   LIG    1       30.653 -17.377  11.008  0.00  0.00    -0.367 OA
ATOM     29  C   LIG    1       31.546 -16.610  11.822  0.00  0.00    +0.161 C 
ATOM     30  C   LIG    1       32.845 -16.571  11.055  0.00  0.00    +0.031 C 
ATOM     31  C   LIG    1       32.364 -16.441   9.630  0.00  0.00    +0.043 C 
ENDBRANCH  25  27
ENDBRANCH  22  23
ENDBRANCH  21  22
ENDBRANCH  20  21
ENDBRANCH  18  20
ENDBRANCH   7  18
TORSDOF 9
ENDMDL
MODEL 6
REMARK VINA RESULT:      -7.1      3.883      8.525
REMARK  Name = *****
REMARK                            x       y       z     vdW  Elec       q    Type
REMARK                         _______ _______ _______ _____ _____    ______ ____
ROOT
ATOM      1  C   LIG    1       26.461 -30.050   9.587  0.00  0.00    +0.164 A 
ATOM      2  C   LIG    1       25.613 -30.931   8.891  0.00  0.00    +0.162 A 
ATOM      3  C   LIG    1       24.953 -30.466   7.753  0.00  0.00    +0.062 A 
ATOM      4  C   LIG    1       25.127 -29.142   7.306  0.00  0.00    +0.044 A 
ATOM      5  C   LIG    1       25.966 -28.267   7.984  0.00  0.00    +0.082 A 
ATOM      6  N   LIG    1       26.150 -27.000   7.596  0.00  0.00    -0.214 NA
ATOM      7  C   LIG    1       25.506 -26.572   6.500  0.00  0.00    +0.220 A 
ATOM      8  N   LIG    1       24.680 -27.354   5.789  0.00  0.00    -0.199 NA
ATOM      9  C   LIG    1       24.478 -28.603   6.205  0.00  0.00    +0.129 A 
ATOM     10  C   LIG    1       26.604 -28.731   9.125  0.00  0.00    +0.078 A 
ENDROOT
BRANCH   9  11
ATOM     11  N   LIG    1       23.544 -29.336   5.461  0.00  0.00    -0.343 N 
ATOM     12  H   LIG    1       23.820 -30.311   5.402  0.00  0.00    +0.144 HD
ATOM     13  H   LIG    1       22.655 -29.241   5.947  0.00  0.00    +0.144 HD
ENDBRANCH   9  11
BRANCH   1  15
ATOM     14  C   LIG    1       26.644 -29.994  11.956  0.00  0.00    +0.277 C 
ATOM     15  O   LIG    1       27.119 -30.508  10.705  0.00  0.00    -0.491 OA
ENDBRANCH   1  15
BRANCH   2  16
ATOM     16  O   LIG    1       25.428 -32.208   9.366  0.00  0.00    -0.491 OA
ATOM     17  C   LIG    1       24.193 -32.431  10.053  0.00  0.00    +0.277 C 
ENDBRANCH   2  16
BRANCH   7  18
ATOM     18  N   LIG    1       25.653 -25.241   6.114  0.00  0.00    -0.303 N 
ATOM     19  C   LIG    1       25.026 -24.921   4.840  0.00  0.00    +0.132 C 
BRANCH  18  20
ATOM     20  C   LIG    1       25.551 -24.254   7.200  0.00  0.00    +0.109 C 
BRANCH  20  21
ATOM     21  C   LIG    1       26.590 -23.127   7.083  0.00  0.00    +0.037 C 
BRANCH  21  22
ATOM     22  C   LIG    1       25.988 -21.735   7.278  0.00  0.00    +0.105 C 
BRANCH  22  23
ATOM     23  N   LIG    1       25.004 -21.454   6.245  0.00  0.00    -0.313 N 
ATOM     24  H   LIG    1       25.213 -21.668   5.271  0.00  0.00    +0.149 HD
ATOM     25  C   LIG    1       23.785 -20.879   6.488  0.00  0.00    +0.242 C 
ATOM     26  O   LIG    1       23.349 -20.670   7.631  0.00  0.00    -0.273 OA
BRANCH  25  27
ATOM     27  C   LIG    1       22.977 -20.500   5.235  0.00  0.00    +0.204 C 
ATOM     28  O   LIG    1       22.257 -19.263   5.391  0.00  0.00    -0.367 OA
ATOM     29  C   LIG    1       22.487 -18.477   4.217  0.00  0.00    +0.161 C 
ATOM     30  C   LIG    1       23.856 -18.884   3.730  0.00  0.00    +0.031 C 
ATOM     31  C   LIG    1       23.859 -20.368   4.006  0.00  0.00    +0.043 C 
ENDBRANCH  25  27
ENDBRANCH  22  23
ENDBRANCH  21  22
ENDBRANCH  20  21
ENDBRANCH  18  20
ENDBRANCH   7  18
TORSDOF 9
ENDMDL
MODEL 7
REMARK VINA RESULT:      -6.8      3.659      9.127
REMARK  Name = *****
REMARK                            x       y       z     vdW  Elec       q    Type
REMARK                         _______ _______ _______ _____ _____    ______ ____
ROOT
ATOM      1  C   LIG    1       25.597 -19.833   4.402  0.00  0.00    +0.164 A 
ATOM      2  C   LIG    1       24.747 -20.782   4.998  0.00  0.00    +0.162 A 
ATOM      3  C   LIG    1       25.177 -21.429   6.157  0.00  0.00    +0.062 A 
ATOM      4  C   LIG    1       26.434 -21.143   6.723  0.00  0.00    +0.044 A 
ATOM      5  C   LIG    1       27.277 -20.202   6.143  0.00  0.00    +0.082 A 
ATOM      6  N   LIG    1       28.482 -19.910   6.645  0.00  0.00    -0.214 NA
ATOM      7  C   LIG    1       28.877 -20.543   7.760  0.00  0.00    +0.220 A 
ATOM      8  N   LIG    1       28.122 -21.462   8.381  0.00  0.00    -0.199 NA
ATOM      9  C   LIG    1       26.939 -21.770   7.853  0.00  0.00    +0.129 A 
ATOM     10  C   LIG    1       26.851 -19.578   4.980  0.00  0.00    +0.078 A 
ENDROOT
BRANCH   9  11
ATOM     11  N   LIG    1       26.240 -22.793   8.508  0.00  0.00    -0.343 N 
ATOM     12  H   LIG    1       26.022 -22.522   9.462  0.00  0.00    +0.144 HD
ATOM     13  H   LIG    1       25.389 -22.945   7.972  0.00  0.00    +0.144 HD
ENDBRANCH   9  11
BRANCH   1  15
ATOM     14  C   LIG    1       25.558 -17.812   3.152  0.00  0.00    +0.277 C 
ATOM     15  O   LIG    1       25.174 -19.187   3.262  0.00  0.00    -0.491 OA
ENDBRANCH   1  15
BRANCH   2  16
ATOM     16  O   LIG    1       23.540 -21.075   4.409  0.00  0.00    -0.491 OA
ATOM     17  C   LIG    1       22.423 -21.130   5.301  0.00  0.00    +0.277 C 
ENDBRANCH   2  16
BRANCH   7  18
ATOM     18  N   LIG    1       30.148 -20.281   8.264  0.00  0.00    -0.303 N 
ATOM     19  C   LIG    1       30.871 -21.468   8.696  0.00  0.00    +0.132 C 
BRANCH  18  20
ATOM     20  C   LIG    1       30.903 -19.233   7.559  0.00  0.00    +0.109 C 
BRANCH  20  21
ATOM     21  C   LIG    1       31.962 -18.559   8.447  0.00  0.00    +0.037 C 
BRANCH  21  22
ATOM     22  C   LIG    1       31.456 -17.284   9.120  0.00  0.00    +0.105 C 
BRANCH  22  23
ATOM     23  N   LIG    1       32.305 -16.926  10.244  0.00  0.00    -0.313 N 
ATOM     24  H   LIG    1       33.316 -17.019  10.169  0.00  0.00    +0.149 HD
ATOM     25  C   LIG    1       31.829 -16.483  11.451  0.00  0.00    +0.242 C 
ATOM     26  O   LIG    1       30.634 -16.215  11.651  0.00  0.00    -0.273 OA
BRANCH  25  27
ATOM     27  C   LIG    1       32.885 -16.342  12.560  0.00  0.00    +0.204 C 
ATOM     28  O   LIG    1       33.024 -14.987  13.026  0.00  0.00    -0.367 OA
ATOM     29  C   LIG    1       33.025 -15.018  14.457  0.00  0.00    +0.161 C 
ATOM     30  C   LIG    1       32.183 -16.214  14.827  0.00  0.00    +0.031 C 
ATOM     31  C   LIG    1       32.571 -17.213  13.763  0.00  0.00    +0.043 C 
ENDBRANCH  25  27
ENDBRANCH  22  23
ENDBRANCH  21  22
ENDBRANCH  20  21
ENDBRANCH  18  20
ENDBRANCH   7  18
TORSDOF 9
ENDMDL
MODEL 8
REMARK VINA RESULT:      -6.6      4.310      9.651
REMARK  Name = *****
REMARK                            x       y       z     vdW  Elec       q    Type
REMARK                         _______ _______ _______ _____ _____    ______ ____
ROOT
ATOM      1  C   LIG    1       24.468 -32.239   6.859  0.00  0.00    +0.164 A 
ATOM      2  C   LIG    1       25.101 -32.306   8.113  0.00  0.00    +0.162 A 
ATOM      3  C   LIG    1       25.621 -31.134   8.663  0.00  0.00    +0.062 A 
ATOM      4  C   LIG    1       25.519 -29.906   7.980  0.00  0.00    +0.044 A 
ATOM      5  C   LIG    1       24.890 -29.831   6.744  0.00  0.00    +0.082 A 
ATOM      6  N   LIG    1       24.782 -28.686   6.061  0.00  0.00    -0.214 NA
ATOM      7  C   LIG    1       25.289 -27.570   6.607  0.00  0.00    +0.220 A 
ATOM      8  N   LIG    1       25.909 -27.558   7.796  0.00  0.00    -0.199 NA
ATOM      9  C   LIG    1       26.042 -28.710   8.451  0.00  0.00    +0.129 A 
ATOM     10  C   LIG    1       24.393 -31.003   6.195  0.00  0.00    +0.078 A 
ENDROOT
BRANCH   9  11
ATOM     11  N   LIG    1       26.768 -28.637   9.647  0.00  0.00    -0.343 N 
ATOM     12  H   LIG    1       27.720 -28.332   9.470  0.00  0.00    +0.144 HD
ATOM     13  H   LIG    1       26.278 -27.968  10.237  0.00  0.00    +0.144 HD
ENDBRANCH   9  11
BRANCH   1  15
ATOM     14  C   LIG    1       23.263 -33.233   5.067  0.00  0.00    +0.277 C 
ATOM     15  O   LIG    1       23.947 -33.391   6.316  0.00  0.00    -0.491 OA
ENDBRANCH   1  15
BRANCH   2  16
ATOM     16  O   LIG    1       25.224 -33.520   8.745  0.00  0.00    -0.491 OA
ATOM     17  C   LIG    1       24.220 -33.804   9.724  0.00  0.00    +0.277 C 
ENDBRANCH   2  16
BRANCH   7  18
ATOM     18  N   LIG    1       25.223 -26.381   5.883  0.00  0.00    -0.303 N 
ATOM     19  C   LIG    1       25.674 -26.501   4.504  0.00  0.00    +0.132 C 
BRANCH  18  20
ATOM     20  C   LIG    1       24.044 -25.543   6.152  0.00  0.00    +0.109 C 
BRANCH  20  21
ATOM     21  C   LIG    1       24.408 -24.082   6.464  0.00  0.00    +0.037 C 
BRANCH  21  22
ATOM     22  C   LIG    1       25.835 -23.919   6.988  0.00  0.00    +0.105 C 
BRANCH  22  23
ATOM     23  N   LIG    1       26.268 -22.536   6.871  0.00  0.00    -0.313 N 
ATOM     24  H   LIG    1       26.443 -22.133   5.952  0.00  0.00    +0.149 HD
ATOM     25  C   LIG    1       26.493 -21.712   7.943  0.00  0.00    +0.242 C 
ATOM     26  O   LIG    1       26.215 -22.028   9.110  0.00  0.00    -0.273 OA
BRANCH  25  27
ATOM     27  C   LIG    1       27.125 -20.352   7.603  0.00  0.00    +0.204 C 
ATOM     28  O   LIG    1       28.168 -19.978   8.522  0.00  0.00    -0.367 OA
ATOM     29  C   LIG    1       29.285 -19.526   7.749  0.00  0.00    +0.161 C 
ATOM     30  C   LIG    1       29.202 -20.289   6.449  0.00  0.00    +0.031 C 
ATOM     31  C   LIG    1       27.713 -20.328   6.204  0.00  0.00    +0.043 C 
ENDBRANCH  25  27
ENDBRANCH  22  23
ENDBRANCH  21  22
ENDBRANCH  20  21
ENDBRANCH  18  20
ENDBRANCH   7  18
TORSDOF 9
ENDMDL
MODEL 9
REMARK VINA RESULT:      -6.6      4.776      8.755
REMARK  Name = *****
REMARK                            x       y       z     vdW  Elec       q    Type
REMARK                         _______ _______ _______ _____ _____    ______ ____
ROOT
ATOM      1  C   LIG    1       26.974 -29.185  11.502  0.00  0.00    +0.164 A 
ATOM      2  C   LIG    1       26.253 -30.381  11.672  0.00  0.00    +0.162 A 
ATOM      3  C   LIG    1       25.432 -30.820  10.633  0.00  0.00    +0.062 A 
ATOM      4  C   LIG    1       25.323 -30.085   9.436  0.00  0.00    +0.044 A 
ATOM      5  C   LIG    1       26.037 -28.907   9.258  0.00  0.00    +0.082 A 
ATOM      6  N   LIG    1       25.953 -28.176   8.141  0.00  0.00    -0.214 NA
ATOM      7  C   LIG    1       25.158 -28.615   7.153  0.00  0.00    +0.220 A 
ATOM      8  N   LIG    1       24.437 -29.744   7.246  0.00  0.00    -0.199 NA
ATOM      9  C   LIG    1       24.503 -30.444   8.376  0.00  0.00    +0.129 A 
ATOM     10  C   LIG    1       26.835 -28.467  10.303  0.00  0.00    +0.078 A 
ENDROOT
BRANCH   9  11
ATOM     11  N   LIG    1       23.666 -31.566   8.433  0.00  0.00    -0.343 N 
ATOM     12  H   LIG    1       24.150 -32.353   8.854  0.00  0.00    +0.144 HD
ATOM     13  H   LIG    1       22.862 -31.294   8.994  0.00  0.00    +0.144 HD
ENDBRANCH   9  11
BRANCH   1  15
ATOM     14  C   LIG    1       27.241 -27.731  13.363  0.00  0.00    +0.277 C 
ATOM     15  O   LIG    1       27.791 -28.753  12.522  0.00  0.00    -0.491 OA
ENDBRANCH   1  15
BRANCH   2  16
ATOM     16  O   LIG    1       26.344 -31.063  12.862  0.00  0.00    -0.491 OA
ATOM     17  C   LIG    1       25.116 -31.202  13.582  0.00  0.00    +0.277 C 
ENDBRANCH   2  16
BRANCH   7  18
ATOM     18  N   LIG    1       25.026 -27.839   6.004  0.00  0.00    -0.303 N 
ATOM     19  C   LIG    1       24.495 -28.562   4.858  0.00  0.00    +0.132 C 
BRANCH  18  20
ATOM     20  C   LIG    1       24.563 -26.460   6.224  0.00  0.00    +0.109 C 
BRANCH  20  21
ATOM     21  C   LIG    1       25.559 -25.406   5.713  0.00  0.00    +0.037 C 
BRANCH  21  22
ATOM     22  C   LIG    1       25.913 -24.356   6.767  0.00  0.00    +0.105 C 
BRANCH  22  23
ATOM     23  N   LIG    1       25.634 -23.019   6.272  0.00  0.00    -0.313 N 
ATOM     24  H   LIG    1       26.360 -22.493   5.787  0.00  0.00    +0.149 HD
ATOM     25  C   LIG    1       24.435 -22.377   6.437  0.00  0.00    +0.242 C 
ATOM     26  O   LIG    1       23.428 -22.932   6.905  0.00  0.00    -0.273 OA
BRANCH  25  27
ATOM     27  C   LIG    1       24.415 -20.902   6.002  0.00  0.00    +0.204 C 
ATOM     28  O   LIG    1       24.698 -20.731   4.601  0.00  0.00    -0.367 OA
ATOM     29  C   LIG    1       23.724 -19.828   4.069  0.00  0.00    +0.161 C 
ATOM     30  C   LIG    1       22.489 -20.036   4.911  0.00  0.00    +0.031 C 
ATOM     31  C   LIG    1       23.078 -20.240   6.286  0.00  0.00    +0.043 C 
ENDBRANCH  25  27
ENDBRANCH  22  23
ENDBRANCH  21  22
ENDBRANCH  20  21
ENDBRANCH  18  20
ENDBRANCH   7  18
TORSDOF 9
ENDMDL
