MODEL 1
REMARK VINA RESULT:       0.7      0.000      0.000
REMARK  Name = *****
REMARK                            x       y       z     vdW  Elec       q    Type
REMARK                         _______ _______ _______ _____ _____    ______ ____
ROOT
ATOM      1  C   LIG    1       26.189 -17.233   3.457  0.00  0.00    +0.129 C 
ATOM      2  C   LIG    1       26.704 -18.413   4.205  0.00  0.00    +0.032 A 
ATOM      3  C   LIG    1       26.225 -19.728   4.023  0.00  0.00    +0.024 A 
ATOM      4  C   LIG    1       26.776 -20.790   4.761  0.00  0.00    +0.017 A 
ATOM      5  C   LIG    1       27.783 -20.556   5.697  0.00  0.00    +0.021 A 
ATOM      6  C   LIG    1       28.251 -19.261   5.889  0.00  0.00    +0.042 A 
ATOM      7 CL   LIG    1       29.474 -18.965   7.062  0.00  0.00    -0.084 Cl
ATOM      8  S   LIG    1       24.886 -20.136   2.903  0.00  0.00    -0.088 S 
ATOM      9  C   LIG    1       23.604 -19.146   3.664  0.00  0.00    +0.020 A 
ATOM     10  C   LIG    1       23.736 -17.757   3.836  0.00  0.00    -0.008 A 
ATOM     11  C   LIG    1       22.694 -17.045   4.451  0.00  0.00    +0.009 A 
ATOM     12  C   LIG    1       21.543 -17.697   4.893  0.00  0.00    +0.001 A 
ATOM     13  C   LIG    1       21.412 -19.071   4.713  0.00  0.00    +0.001 A 
ATOM     14  C   LIG    1       22.438 -19.793   4.102  0.00  0.00    +0.015 A 
ATOM     15  C   LIG    1       27.728 -18.201   5.148  0.00  0.00    +0.032 A 
ATOM     16  C   LIG    1       24.875 -16.971   3.323  0.00  0.00    +0.055 C 
ENDROOT
BRANCH   1  17
ATOM     17  O   LIG    1       27.216 -16.426   2.974  0.00  0.00    -0.490 OA
BRANCH  17  18
ATOM     18  C   LIG    1       27.344 -15.106   3.522  0.00  0.00    +0.244 C 
BRANCH  18  19
ATOM     19  C   LIG    1       26.866 -14.062   2.490  0.00  0.00    +0.124 C 
BRANCH  19  21
ATOM     20  C   LIG    1       24.751 -12.878   2.271  0.00  0.00    +0.104 C 
ATOM     21  N   LIG    1       25.982 -13.016   3.052  0.00  0.00    -0.305 NA
ATOM     22  C   LIG    1       25.634 -13.327   4.444  0.00  0.00    +0.104 C 
ENDBRANCH  19  21
ENDBRANCH  18  19
ENDBRANCH  17  18
ENDBRANCH   1  17
TORSDOF 4
ENDMDL
MODEL 2
REMARK VINA RESULT:       2.3      2.397      3.511
REMARK  Name = *****
REMARK                            x       y       z     vdW  Elec       q    Type
REMARK                         _______ _______ _______ _____ _____    ______ ____
ROOT
ATOM      1  C   LIG    1       23.232 -16.658   4.005  0.00  0.00    +0.129 C 
ATOM      2  C   LIG    1       24.709 -16.479   3.944  0.00  0.00    +0.032 A 
ATOM      3  C   LIG    1       25.592 -17.428   3.384  0.00  0.00    +0.024 A 
ATOM      4  C   LIG    1       26.974 -17.175   3.354  0.00  0.00    +0.017 A 
ATOM      5  C   LIG    1       27.493 -16.000   3.896  0.00  0.00    +0.021 A 
ATOM      6  C   LIG    1       26.629 -15.067   4.459  0.00  0.00    +0.042 A 
ATOM      7 CL   LIG    1       27.268 -13.627   5.151  0.00  0.00    -0.084 Cl
ATOM      8  S   LIG    1       25.047 -19.004   2.726  0.00  0.00    -0.088 S 
ATOM      9  C   LIG    1       24.338 -19.677   4.225  0.00  0.00    +0.020 A 
ATOM     10  C   LIG    1       23.311 -19.021   4.926  0.00  0.00    -0.008 A 
ATOM     11  C   LIG    1       22.809 -19.601   6.101  0.00  0.00    +0.009 A 
ATOM     12  C   LIG    1       23.318 -20.810   6.578  0.00  0.00    +0.001 A 
ATOM     13  C   LIG    1       24.329 -21.461   5.877  0.00  0.00    +0.001 A 
ATOM     14  C   LIG    1       24.838 -20.897   4.706  0.00  0.00    +0.015 A 
ATOM     15  C   LIG    1       25.253 -15.295   4.476  0.00  0.00    +0.032 A 
ATOM     16  C   LIG    1       22.652 -17.787   4.452  0.00  0.00    +0.055 C 
ENDROOT
BRANCH   1  17
ATOM     17  O   LIG    1       22.546 -15.515   3.603  0.00  0.00    -0.490 OA
BRANCH  17  18
ATOM     18  C   LIG    1       23.076 -14.242   3.999  0.00  0.00    +0.244 C 
BRANCH  18  19
ATOM     19  C   LIG    1       23.494 -13.438   2.749  0.00  0.00    +0.124 C 
BRANCH  19  21
ATOM     20  C   LIG    1       24.033 -11.781   4.448  0.00  0.00    +0.104 C 
ATOM     21  N   LIG    1       23.808 -12.016   3.020  0.00  0.00    -0.305 NA
ATOM     22  C   LIG    1       25.001 -11.600   2.272  0.00  0.00    +0.104 C 
ENDBRANCH  19  21
ENDBRANCH  18  19
ENDBRANCH  17  18
ENDBRANCH   1  17
TORSDOF 4
ENDMDL
MODEL 3
REMARK VINA RESULT:       2.4      3.337      6.334
REMARK  Name = *****
REMARK                            x       y       z     vdW  Elec       q    Type
REMARK                         _______ _______ _______ _____ _____    ______ ____
ROOT
ATOM      1  C   LIG    1       24.568 -18.956   3.693  0.00  0.00    +0.129 C 
ATOM      2  C   LIG    1       24.342 -17.517   4.003  0.00  0.00    +0.032 A 
ATOM      3  C   LIG    1       25.260 -16.493   3.687  0.00  0.00    +0.024 A 
ATOM      4  C   LIG    1       24.963 -15.155   4.003  0.00  0.00    +0.017 A 
ATOM      5  C   LIG    1       23.774 -14.827   4.652  0.00  0.00    +0.021 A 
ATOM      6  C   LIG    1       22.871 -15.833   4.977  0.00  0.00    +0.042 A 
ATOM      7 CL   LIG    1       21.415 -15.435   5.801  0.00  0.00    -0.084 Cl
ATOM      8  S   LIG    1       26.850 -16.805   2.920  0.00  0.00    -0.088 S 
ATOM      9  C   LIG    1       27.551 -17.845   4.196  0.00  0.00    +0.020 A 
ATOM     10  C   LIG    1       26.930 -19.035   4.615  0.00  0.00    -0.008 A 
ATOM     11  C   LIG    1       27.531 -19.797   5.629  0.00  0.00    +0.009 A 
ATOM     12  C   LIG    1       28.724 -19.385   6.224  0.00  0.00    +0.001 A 
ATOM     13  C   LIG    1       29.341 -18.212   5.801  0.00  0.00    +0.001 A 
ATOM     14  C   LIG    1       28.756 -17.443   4.792  0.00  0.00    +0.015 A 
ATOM     15  C   LIG    1       23.143 -17.162   4.650  0.00  0.00    +0.032 A 
ATOM     16  C   LIG    1       25.717 -19.593   3.985  0.00  0.00    +0.055 C 
ENDROOT
BRANCH   1  17
ATOM     17  O   LIG    1       23.446 -19.555   3.128  0.00  0.00    -0.490 OA
BRANCH  17  18
ATOM     18  C   LIG    1       23.104 -20.880   3.560  0.00  0.00    +0.244 C 
BRANCH  18  19
ATOM     19  C   LIG    1       22.293 -20.810   4.871  0.00  0.00    +0.124 C 
BRANCH  19  21
ATOM     20  C   LIG    1       24.434 -21.572   5.743  0.00  0.00    +0.104 C 
ATOM     21  N   LIG    1       23.063 -21.184   6.080  0.00  0.00    -0.305 NA
ATOM     22  C   LIG    1       23.100 -20.069   7.034  0.00  0.00    +0.104 C 
ENDBRANCH  19  21
ENDBRANCH  18  19
ENDBRANCH  17  18
ENDBRANCH   1  17
TORSDOF 4
ENDMDL
MODEL 4
REMARK VINA RESULT:       3.1      3.080      6.024
REMARK  Name = *****
REMARK                            x       y       z     vdW  Elec       q    Type
REMARK                         _______ _______ _______ _____ _____    ______ ____
ROOT
ATOM      1  C   LIG    1       24.941 -18.341   3.620  0.00  0.00    +0.129 C 
ATOM      2  C   LIG    1       25.330 -16.913   3.783  0.00  0.00    +0.032 A 
ATOM      3  C   LIG    1       26.650 -16.437   3.625  0.00  0.00    +0.024 A 
ATOM      4  C   LIG    1       26.932 -15.069   3.783  0.00  0.00    +0.017 A 
ATOM      5  C   LIG    1       25.920 -14.171   4.121  0.00  0.00    +0.021 A 
ATOM      6  C   LIG    1       24.620 -14.636   4.289  0.00  0.00    +0.042 A 
ATOM      7 CL   LIG    1       23.374 -13.535   4.731  0.00  0.00    -0.084 Cl
ATOM      8  S   LIG    1       28.041 -17.509   3.264  0.00  0.00    -0.088 S 
ATOM      9  C   LIG    1       27.960 -18.535   4.728  0.00  0.00    +0.020 A 
ATOM     10  C   LIG    1       26.810 -19.269   5.063  0.00  0.00    -0.008 A 
ATOM     11  C   LIG    1       26.813 -20.045   6.232  0.00  0.00    +0.009 A 
ATOM     12  C   LIG    1       27.936 -20.091   7.059  0.00  0.00    +0.001 A 
ATOM     13  C   LIG    1       29.077 -19.371   6.719  0.00  0.00    +0.001 A 
ATOM     14  C   LIG    1       29.090 -18.595   5.559  0.00  0.00    +0.015 A 
ATOM     15  C   LIG    1       24.323 -15.987   4.114  0.00  0.00    +0.032 A 
ATOM     16  C   LIG    1       25.610 -19.351   4.207  0.00  0.00    +0.055 C 
ENDROOT
BRANCH   1  17
ATOM     17  O   LIG    1       23.791 -18.488   2.849  0.00  0.00    -0.490 OA
BRANCH  17  18
ATOM     18  C   LIG    1       22.781 -19.393   3.318  0.00  0.00    +0.244 C 
BRANCH  18  19
ATOM     19  C   LIG    1       22.438 -19.078   4.790  0.00  0.00    +0.124 C 
BRANCH  19  21
ATOM     20  C   LIG    1       22.349 -21.509   4.862  0.00  0.00    +0.104 C 
ATOM     21  N   LIG    1       22.302 -20.276   5.650  0.00  0.00    -0.305 NA
ATOM     22  C   LIG    1       23.369 -20.311   6.658  0.00  0.00    +0.104 C 
ENDBRANCH  19  21
ENDBRANCH  18  19
ENDBRANCH  17  18
ENDBRANCH   1  17
TORSDOF 4
ENDMDL
