MODEL 1
REMARK VINA RESULT:       7.5      0.000      0.000
REMARK  Name = *****
REMARK                            x       y       z     vdW  Elec       q    Type
REMARK                         _______ _______ _______ _____ _____    ______ ____
ROOT
ATOM      1  C   LIG    1       25.075 -17.328   4.212  0.00  0.00    +0.039 A 
ATOM      2  C   LIG    1       25.966 -16.531   3.476  0.00  0.00    +0.155 A 
ATOM      3  F   LIG    1       27.259 -16.878   3.341  0.00  0.00    -0.203 F 
ATOM      4  C   LIG    1       25.553 -15.340   2.862  0.00  0.00    +0.084 A 
ATOM      5  C   LIG    1       24.229 -14.925   2.962  0.00  0.00    +0.027 A 
ATOM      6  C   LIG    1       23.328 -15.694   3.693  0.00  0.00    +0.003 A 
ATOM      7  C   LIG    1       23.755 -16.865   4.334  0.00  0.00    +0.013 A 
ENDROOT
BRANCH   1  11
ATOM      8  C   LIG    1       27.184 -19.862   5.695  0.00  0.00    +0.085 A 
ATOM      9  S   LIG    1       25.850 -20.928   5.746  0.00  0.00    -0.069 S 
ATOM     10  C   LIG    1       24.794 -19.724   5.090  0.00  0.00    +0.065 A 
ATOM     11  C   LIG    1       25.545 -18.574   4.835  0.00  0.00    +0.090 A 
ATOM     12  N   LIG    1       26.889 -18.664   5.236  0.00  0.00    -0.243 NA
BRANCH  10  13
ATOM     13  C   LIG    1       23.390 -20.115   4.879  0.00  0.00    +0.085 A 
ATOM     14  N   LIG    1       22.640 -19.257   4.162  0.00  0.00    -0.214 NA
ATOM     15  C   LIG    1       21.370 -19.604   3.931  0.00  0.00    +0.213 A 
ATOM     16  N   LIG    1       20.789 -20.723   4.367  0.00  0.00    -0.223 NA
ATOM     17  C   LIG    1       21.563 -21.566   5.067  0.00  0.00    +0.116 A 
ATOM     18  C   LIG    1       22.876 -21.304   5.365  0.00  0.00    +0.049 A 
BRANCH  15  19
ATOM     19  N   LIG    1       20.575 -18.716   3.240  0.00  0.00    -0.328 N 
ATOM     20  H   LIG    1       20.263 -17.972   3.846  0.00  0.00    +0.145 HD
ATOM     21  H   LIG    1       19.875 -19.220   2.713  0.00  0.00    +0.145 HD
ENDBRANCH  15  19
ENDBRANCH  10  13
BRANCH   8  23
ATOM     22  C   LIG    1       29.253 -19.222   7.061  0.00  0.00    +0.018 C 
ATOM     23  C   LIG    1       28.564 -20.301   6.196  0.00  0.00    +0.011 C 
ATOM     24  C   LIG    1       28.428 -21.571   7.057  0.00  0.00    +0.018 C 
ATOM     25  C   LIG    1       29.474 -20.610   4.993  0.00  0.00    +0.018 C 
ENDBRANCH   8  23
ENDBRANCH   1  11
BRANCH   4  26
ATOM     26  N   LIG    1       26.511 -14.497   2.202  0.00  0.00    -0.213 N 
ATOM     27  H   LIG    1       27.278 -15.012   1.761  0.00  0.00    +0.174 HD
BRANCH  26  28
ATOM     28  S   LIG    1       27.154 -13.212   3.123  0.00  0.00    +0.078 S 
ATOM     29  O   LIG    1       27.695 -12.216   2.232  0.00  0.00    -0.150 OA
ATOM     30  O   LIG    1       28.019 -13.829   4.117  0.00  0.00    -0.150 OA
BRANCH  28  31
ATOM     31  C   LIG    1       25.755 -12.549   3.950  0.00  0.00    +0.178 A 
ATOM     32  C   LIG    1       24.706 -11.995   3.224  0.00  0.00    +0.153 A 
ATOM     33  F   LIG    1       24.723 -11.944   1.887  0.00  0.00    -0.203 F 
ATOM     34  C   LIG    1       23.602 -11.447   3.877  0.00  0.00    +0.040 A 
ATOM     35  C   LIG    1       23.538 -11.461   5.268  0.00  0.00    +0.006 A 
ATOM     36  C   LIG    1       24.577 -12.035   5.998  0.00  0.00    +0.040 A 
ATOM     37  C   LIG    1       25.674 -12.584   5.335  0.00  0.00    +0.153 A 
ATOM     38  F   LIG    1       26.656 -13.108   6.082  0.00  0.00    -0.203 F 
ENDBRANCH  28  31
ENDBRANCH  26  28
ENDBRANCH   4  26
TORSDOF 7
ENDMDL
MODEL 2
REMARK VINA RESULT:       9.1      2.216      4.935
REMARK  Name = *****
REMARK                            x       y       z     vdW  Elec       q    Type
REMARK                         _______ _______ _______ _____ _____    ______ ____
ROOT
ATOM      1  C   LIG    1       24.849 -17.320   3.597  0.00  0.00    +0.039 A 
ATOM      2  C   LIG    1       24.614 -16.068   3.009  0.00  0.00    +0.155 A 
ATOM      3  F   LIG    1       23.365 -15.661   2.718  0.00  0.00    -0.203 F 
ATOM      4  C   LIG    1       25.664 -15.196   2.689  0.00  0.00    +0.084 A 
ATOM      5  C   LIG    1       26.980 -15.556   2.964  0.00  0.00    +0.027 A 
ATOM      6  C   LIG    1       27.240 -16.796   3.540  0.00  0.00    +0.003 A 
ATOM      7  C   LIG    1       26.188 -17.678   3.825  0.00  0.00    +0.013 A 
ENDROOT
BRANCH   1  11
ATOM      8  C   LIG    1       21.526 -18.715   3.865  0.00  0.00    +0.085 A 
ATOM      9  S   LIG    1       22.141 -19.966   4.852  0.00  0.00    -0.069 S 
ATOM     10  C   LIG    1       23.756 -19.363   4.702  0.00  0.00    +0.065 A 
ATOM     11  C   LIG    1       23.720 -18.204   3.924  0.00  0.00    +0.090 A 
ATOM     12  N   LIG    1       22.448 -17.887   3.420  0.00  0.00    -0.243 NA
BRANCH  10  13
ATOM     13  C   LIG    1       24.810 -20.100   5.420  0.00  0.00    +0.085 A 
ATOM     14  N   LIG    1       26.074 -19.852   5.029  0.00  0.00    -0.214 NA
ATOM     15  C   LIG    1       27.050 -20.487   5.685  0.00  0.00    +0.213 A 
ATOM     16  N   LIG    1       26.867 -21.352   6.684  0.00  0.00    -0.223 NA
ATOM     17  C   LIG    1       25.598 -21.570   7.061  0.00  0.00    +0.116 A 
ATOM     18  C   LIG    1       24.523 -20.976   6.452  0.00  0.00    +0.049 A 
BRANCH  15  19
ATOM     19  N   LIG    1       28.347 -20.281   5.267  0.00  0.00    -0.328 N 
ATOM     20  H   LIG    1       28.986 -20.858   5.794  0.00  0.00    +0.145 HD
ATOM     21  H   LIG    1       28.539 -19.290   5.218  0.00  0.00    +0.145 HD
ENDBRANCH  15  19
ENDBRANCH  10  13
BRANCH   8  23
ATOM     22  C   LIG    1       19.779 -18.271   2.047  0.00  0.00    +0.018 C 
ATOM     23  C   LIG    1       20.033 -18.640   3.526  0.00  0.00    +0.011 C 
ATOM     24  C   LIG    1       19.369 -20.005   3.784  0.00  0.00    +0.018 C 
ATOM     25  C   LIG    1       19.355 -17.580   4.412  0.00  0.00    +0.018 C 
ENDBRANCH   8  23
ENDBRANCH   1  11
BRANCH   4  26
ATOM     26  N   LIG    1       25.398 -13.967   1.996  0.00  0.00    -0.213 N 
ATOM     27  H   LIG    1       26.066 -13.762   1.247  0.00  0.00    +0.174 HD
BRANCH  26  28
ATOM     28  S   LIG    1       25.197 -12.575   2.964  0.00  0.00    +0.078 S 
ATOM     29  O   LIG    1       23.895 -12.613   3.583  0.00  0.00    -0.150 OA
ATOM     30  O   LIG    1       25.555 -11.447   2.118  0.00  0.00    -0.150 OA
BRANCH  28  31
ATOM     31  C   LIG    1       26.430 -12.746   4.201  0.00  0.00    +0.178 A 
ATOM     32  C   LIG    1       27.751 -12.404   3.930  0.00  0.00    +0.153 A 
ATOM     33  F   LIG    1       28.128 -11.941   2.733  0.00  0.00    -0.203 F 
ATOM     34  C   LIG    1       28.738 -12.559   4.904  0.00  0.00    +0.040 A 
ATOM     35  C   LIG    1       28.404 -13.048   6.164  0.00  0.00    +0.006 A 
ATOM     36  C   LIG    1       27.078 -13.371   6.446  0.00  0.00    +0.040 A 
ATOM     37  C   LIG    1       26.097 -13.208   5.467  0.00  0.00    +0.153 A 
ATOM     38  F   LIG    1       24.841 -13.549   5.781  0.00  0.00    -0.203 F 
ENDBRANCH  28  31
ENDBRANCH  26  28
ENDBRANCH   4  26
TORSDOF 7
ENDMDL
