MODEL 1
REMARK VINA RESULT:      -5.8      0.000      0.000
REMARK  Name = *****
REMARK                            x       y       z     vdW  Elec       q    Type
REMARK                         _______ _______ _______ _____ _____    ______ ____
ROOT
ATOM      1  C   LIG    1       25.352 -18.315   3.316  0.00  0.00    +0.000 C 
ENDROOT
BRANCH   1   2
ATOM      2  C   LIG    1       25.533 -19.820   3.561  0.00  0.00    -0.000 C 
BRANCH   2   3
ATOM      3  C   LIG    1       26.048 -20.095   4.986  0.00  0.00    -0.000 C 
BRANCH   3   4
ATOM      4  C   LIG    1       25.584 -21.454   5.532  0.00  0.00    -0.000 C 
BRANCH   4   5
ATOM      5  C   LIG    1       25.083 -21.370   6.986  0.00  0.00    -0.000 C 
BRANCH   5   6
ATOM      6  C   LIG    1       23.636 -20.842   7.057  0.00  0.00    -0.000 C 
BRANCH   6   7
ATOM      7  C   LIG    1       22.722 -21.497   6.009  0.00  0.00    -0.000 C 
BRANCH   7   8
ATOM      8  C   LIG    1       22.277 -20.579   4.852  0.00  0.00    -0.000 C 
BRANCH   8  10
ATOM      9  C   LIG    1       21.765 -18.210   4.043  0.00  0.00    +0.004 C 
ATOM     10  C   LIG    1       22.322 -19.080   5.169  0.00  0.00    -0.003 C 
ENDBRANCH   8  10
ENDBRANCH   7   8
ENDBRANCH   6   7
ENDBRANCH   5   6
ENDBRANCH   4   5
ENDBRANCH   3   4
ENDBRANCH   2   3
ENDBRANCH   1   2
BRANCH   1  11
ATOM     11  C   LIG    1       26.620 -17.495   3.583  0.00  0.00    +0.000 C 
BRANCH  11  12
ATOM     12  C   LIG    1       26.427 -15.990   3.327  0.00  0.00    +0.011 C 
BRANCH  12  13
ATOM     13  C   LIG    1       27.495 -15.077   3.932  0.00  0.00    +0.120 C 
BRANCH  13  14
ATOM     14  C   LIG    1       26.956 -13.708   4.277  0.00  0.00    +0.307 C 
ATOM     15  O   LIG    1       27.382 -13.000   5.169  0.00  0.00    -0.251 OA
BRANCH  14  16
ATOM     16  O   LIG    1       25.921 -13.408   3.441  0.00  0.00    -0.462 OA
BRANCH  16  17
ATOM     17  C   LIG    1       24.687 -13.033   4.077  0.00  0.00    +0.170 C 
ATOM     18  C   LIG    1       23.884 -14.315   4.261  0.00  0.00    +0.051 C 
ATOM     19  C   LIG    1       23.931 -12.036   3.209  0.00  0.00    +0.051 C 
ENDBRANCH  16  17
ENDBRANCH  14  16
ENDBRANCH  13  14
ENDBRANCH  12  13
ENDBRANCH  11  12
ENDBRANCH   1  11
TORSDOF 14
ENDMDL
MODEL 2
REMARK VINA RESULT:      -5.7      1.108      3.476
REMARK  Name = *****
REMARK                            x       y       z     vdW  Elec       q    Type
REMARK                         _______ _______ _______ _____ _____    ______ ____
ROOT
ATOM      1  C   LIG    1       22.127 -17.941   4.321  0.00  0.00    +0.000 C 
ENDROOT
BRANCH   1   2
ATOM      2  C   LIG    1       22.426 -19.017   5.375  0.00  0.00    -0.000 C 
BRANCH   2   3
ATOM      3  C   LIG    1       22.126 -20.427   4.834  0.00  0.00    -0.000 C 
BRANCH   3   4
ATOM      4  C   LIG    1       22.670 -21.539   5.744  0.00  0.00    -0.000 C 
BRANCH   4   5
ATOM      5  C   LIG    1       23.419 -20.988   6.972  0.00  0.00    -0.000 C 
BRANCH   5   6
ATOM      6  C   LIG    1       24.852 -21.551   7.061  0.00  0.00    -0.000 C 
BRANCH   6   7
ATOM      7  C   LIG    1       25.917 -20.444   7.043  0.00  0.00    -0.000 C 
BRANCH   7   8
ATOM      8  C   LIG    1       26.667 -20.268   5.707  0.00  0.00    -0.000 C 
BRANCH   8  10
ATOM      9  C   LIG    1       25.586 -19.002   3.768  0.00  0.00    +0.004 C 
ATOM     10  C   LIG    1       25.782 -20.352   4.458  0.00  0.00    -0.003 C 
ENDBRANCH   8  10
ENDBRANCH   7   8
ENDBRANCH   6   7
ENDBRANCH   5   6
ENDBRANCH   4   5
ENDBRANCH   3   4
ENDBRANCH   2   3
ENDBRANCH   1   2
BRANCH   1  11
ATOM     11  C   LIG    1       22.312 -16.509   4.839  0.00  0.00    +0.000 C 
BRANCH  11  12
ATOM     12  C   LIG    1       23.339 -15.704   4.026  0.00  0.00    +0.011 C 
BRANCH  12  13
ATOM     13  C   LIG    1       23.795 -14.388   4.659  0.00  0.00    +0.120 C 
BRANCH  13  14
ATOM     14  C   LIG    1       24.295 -13.397   3.633  0.00  0.00    +0.307 C 
ATOM     15  O   LIG    1       23.790 -12.312   3.414  0.00  0.00    -0.251 OA
BRANCH  14  16
ATOM     16  O   LIG    1       25.382 -13.918   2.995  0.00  0.00    -0.462 OA
BRANCH  16  17
ATOM     17  C   LIG    1       26.507 -14.238   3.831  0.00  0.00    +0.170 C 
ATOM     18  C   LIG    1       27.598 -13.227   3.498  0.00  0.00    +0.051 C 
ATOM     19  C   LIG    1       26.979 -15.659   3.554  0.00  0.00    +0.051 C 
ENDBRANCH  16  17
ENDBRANCH  14  16
ENDBRANCH  13  14
ENDBRANCH  12  13
ENDBRANCH  11  12
ENDBRANCH   1  11
TORSDOF 14
ENDMDL
MODEL 3
REMARK VINA RESULT:      -5.6      1.604      3.850
REMARK  Name = *****
REMARK                            x       y       z     vdW  Elec       q    Type
REMARK                         _______ _______ _______ _____ _____    ______ ____
ROOT
ATOM      1  C   LIG    1       22.939 -15.417   4.509  0.00  0.00    +0.000 C 
ENDROOT
BRANCH   1   2
ATOM      2  C   LIG    1       23.390 -16.840   4.152  0.00  0.00    -0.000 C 
BRANCH   2   3
ATOM      3  C   LIG    1       22.354 -17.884   4.606  0.00  0.00    -0.000 C 
BRANCH   3   4
ATOM      4  C   LIG    1       22.669 -19.296   4.088  0.00  0.00    -0.000 C 
BRANCH   4   5
ATOM      5  C   LIG    1       22.315 -20.396   5.107  0.00  0.00    -0.000 C 
BRANCH   5   6
ATOM      6  C   LIG    1       23.161 -20.273   6.390  0.00  0.00    -0.000 C 
BRANCH   6   7
ATOM      7  C   LIG    1       24.406 -21.173   6.356  0.00  0.00    -0.000 C 
BRANCH   7   8
ATOM      8  C   LIG    1       25.652 -20.556   5.689  0.00  0.00    -0.000 C 
BRANCH   8  10
ATOM      9  C   LIG    1       28.111 -19.890   5.898  0.00  0.00    +0.004 C 
ATOM     10  C   LIG    1       26.936 -20.641   6.523  0.00  0.00    -0.003 C 
ENDBRANCH   8  10
ENDBRANCH   7   8
ENDBRANCH   6   7
ENDBRANCH   5   6
ENDBRANCH   4   5
ENDBRANCH   3   4
ENDBRANCH   2   3
ENDBRANCH   1   2
BRANCH   1  11
ATOM     11  C   LIG    1       24.061 -14.376   4.403  0.00  0.00    +0.000 C 
BRANCH  11  12
ATOM     12  C   LIG    1       23.691 -13.183   3.506  0.00  0.00    +0.011 C 
BRANCH  12  13
ATOM     13  C   LIG    1       24.614 -12.947   2.309  0.00  0.00    +0.120 C 
BRANCH  13  14
ATOM     14  C   LIG    1       25.963 -13.605   2.483  0.00  0.00    +0.307 C 
ATOM     15  O   LIG    1       26.268 -14.691   2.029  0.00  0.00    -0.251 OA
BRANCH  14  16
ATOM     16  O   LIG    1       26.766 -12.796   3.232  0.00  0.00    -0.462 OA
BRANCH  16  17
ATOM     17  C   LIG    1       27.763 -13.461   4.026  0.00  0.00    +0.170 C 
ATOM     18  C   LIG    1       27.248 -13.461   5.461  0.00  0.00    +0.051 C 
ATOM     19  C   LIG    1       29.093 -12.724   3.925  0.00  0.00    +0.051 C 
ENDBRANCH  16  17
ENDBRANCH  14  16
ENDBRANCH  13  14
ENDBRANCH  12  13
ENDBRANCH  11  12
ENDBRANCH   1  11
TORSDOF 14
ENDMDL
MODEL 4
REMARK VINA RESULT:      -5.4      1.689      4.131
REMARK  Name = *****
REMARK                            x       y       z     vdW  Elec       q    Type
REMARK                         _______ _______ _______ _____ _____    ______ ____
ROOT
ATOM      1  C   LIG    1       22.532 -17.778   4.115  0.00  0.00    +0.000 C 
ENDROOT
BRANCH   1   2
ATOM      2  C   LIG    1       22.405 -18.986   5.054  0.00  0.00    -0.000 C 
BRANCH   2   3
ATOM      3  C   LIG    1       23.294 -20.152   4.586  0.00  0.00    -0.000 C 
BRANCH   3   4
ATOM      4  C   LIG    1       24.584 -19.676   3.900  0.00  0.00    -0.000 C 
BRANCH   4   5
ATOM      5  C   LIG    1       25.842 -19.943   4.748  0.00  0.00    -0.000 C 
BRANCH   5   6
ATOM      6  C   LIG    1       25.483 -20.555   6.117  0.00  0.00    -0.000 C 
BRANCH   6   7
ATOM      7  C   LIG    1       26.694 -20.627   7.060  0.00  0.00    -0.000 C 
BRANCH   7   8
ATOM      8  C   LIG    1       28.073 -20.539   6.375  0.00  0.00    -0.000 C 
BRANCH   8  10
ATOM      9  C   LIG    1       29.406 -18.437   5.795  0.00  0.00    +0.004 C 
ATOM     10  C   LIG    1       28.974 -19.411   6.891  0.00  0.00    -0.003 C 
ENDBRANCH   8  10
ENDBRANCH   7   8
ENDBRANCH   6   7
ENDBRANCH   5   6
ENDBRANCH   4   5
ENDBRANCH   3   4
ENDBRANCH   2   3
ENDBRANCH   1   2
BRANCH   1  11
ATOM     11  C   LIG    1       22.754 -16.451   4.853  0.00  0.00    +0.000 C 
BRANCH  11  12
ATOM     12  C   LIG    1       23.022 -15.272   3.902  0.00  0.00    +0.011 C 
BRANCH  12  13
ATOM     13  C   LIG    1       23.854 -14.130   4.487  0.00  0.00    +0.120 C 
BRANCH  13  14
ATOM     14  C   LIG    1       24.654 -13.401   3.432  0.00  0.00    +0.307 C 
ATOM     15  O   LIG    1       24.434 -12.264   3.059  0.00  0.00    -0.251 OA
BRANCH  14  16
ATOM     16  O   LIG    1       25.642 -14.220   2.969  0.00  0.00    -0.462 OA
BRANCH  16  17
ATOM     17  C   LIG    1       26.634 -14.614   3.932  0.00  0.00    +0.170 C 
ATOM     18  C   LIG    1       27.752 -13.580   3.854  0.00  0.00    +0.051 C 
ATOM     19  C   LIG    1       27.157 -16.007   3.607  0.00  0.00    +0.051 C 
ENDBRANCH  16  17
ENDBRANCH  14  16
ENDBRANCH  13  14
ENDBRANCH  12  13
ENDBRANCH  11  12
ENDBRANCH   1  11
TORSDOF 14
ENDMDL
MODEL 5
REMARK VINA RESULT:      -5.3      3.058      7.623
REMARK  Name = *****
REMARK                            x       y       z     vdW  Elec       q    Type
REMARK                         _______ _______ _______ _____ _____    ______ ____
ROOT
ATOM      1  C   LIG    1       22.364 -16.526   4.759  0.00  0.00    +0.000 C 
ENDROOT
BRANCH   1   2
ATOM      2  C   LIG    1       23.229 -15.478   4.045  0.00  0.00    -0.000 C 
BRANCH   2   3
ATOM      3  C   LIG    1       23.803 -14.454   5.042  0.00  0.00    -0.000 C 
BRANCH   3   4
ATOM      4  C   LIG    1       24.029 -13.073   4.408  0.00  0.00    -0.000 C 
BRANCH   4   5
ATOM      5  C   LIG    1       23.873 -13.089   2.876  0.00  0.00    -0.000 C 
BRANCH   5   6
ATOM      6  C   LIG    1       25.158 -12.614   2.170  0.00  0.00    -0.000 C 
BRANCH   6   7
ATOM      7  C   LIG    1       26.251 -13.695   2.157  0.00  0.00    -0.000 C 
BRANCH   7   8
ATOM      8  C   LIG    1       27.346 -13.543   3.232  0.00  0.00    -0.000 C 
BRANCH   8  10
ATOM      9  C   LIG    1       26.809 -16.016   3.584  0.00  0.00    +0.004 C 
ATOM     10  C   LIG    1       27.692 -14.834   3.983  0.00  0.00    -0.003 C 
ENDBRANCH   8  10
ENDBRANCH   7   8
ENDBRANCH   6   7
ENDBRANCH   5   6
ENDBRANCH   4   5
ENDBRANCH   3   4
ENDBRANCH   2   3
ENDBRANCH   1   2
BRANCH   1  11
ATOM     11  C   LIG    1       22.436 -17.918   4.118  0.00  0.00    +0.000 C 
BRANCH  11  12
ATOM     12  C   LIG    1       22.311 -19.058   5.142  0.00  0.00    +0.011 C 
BRANCH  12  13
ATOM     13  C   LIG    1       23.062 -20.344   4.791  0.00  0.00    +0.120 C 
BRANCH  13  14
ATOM     14  C   LIG    1       23.638 -21.026   6.011  0.00  0.00    +0.307 C 
ATOM     15  O   LIG    1       23.044 -21.186   7.060  0.00  0.00    -0.251 OA
BRANCH  14  16
ATOM     16  O   LIG    1       24.918 -21.416   5.747  0.00  0.00    -0.462 OA
BRANCH  16  17
ATOM     17  C   LIG    1       25.949 -20.493   6.139  0.00  0.00    +0.170 C 
ATOM     18  C   LIG    1       26.421 -19.801   4.865  0.00  0.00    +0.051 C 
ATOM     19  C   LIG    1       27.095 -21.240   6.809  0.00  0.00    +0.051 C 
ENDBRANCH  16  17
ENDBRANCH  14  16
ENDBRANCH  13  14
ENDBRANCH  12  13
ENDBRANCH  11  12
ENDBRANCH   1  11
TORSDOF 14
ENDMDL
MODEL 6
REMARK VINA RESULT:      -5.1      1.682      2.223
REMARK  Name = *****
REMARK                            x       y       z     vdW  Elec       q    Type
REMARK                         _______ _______ _______ _____ _____    ______ ____
ROOT
ATOM      1  C   LIG    1       29.474 -18.210   5.488  0.00  0.00    +0.000 C 
ENDROOT
BRANCH   1   2
ATOM      2  C   LIG    1       29.087 -19.181   6.613  0.00  0.00    -0.000 C 
BRANCH   2   3
ATOM      3  C   LIG    1       28.137 -20.279   6.101  0.00  0.00    -0.000 C 
BRANCH   3   4
ATOM      4  C   LIG    1       26.966 -20.545   7.061  0.00  0.00    -0.000 C 
BRANCH   4   5
ATOM      5  C   LIG    1       25.599 -20.516   6.352  0.00  0.00    -0.000 C 
BRANCH   5   6
ATOM      6  C   LIG    1       25.742 -20.156   4.859  0.00  0.00    -0.000 C 
BRANCH   6   7
ATOM      7  C   LIG    1       24.445 -20.402   4.072  0.00  0.00    -0.000 C 
BRANCH   7   8
ATOM      8  C   LIG    1       23.197 -20.700   4.928  0.00  0.00    -0.000 C 
BRANCH   8  10
ATOM      9  C   LIG    1       22.632 -18.263   4.406  0.00  0.00    +0.004 C 
ATOM     10  C   LIG    1       22.110 -19.620   4.876  0.00  0.00    -0.003 C 
ENDBRANCH   8  10
ENDBRANCH   7   8
ENDBRANCH   6   7
ENDBRANCH   5   6
ENDBRANCH   4   5
ENDBRANCH   3   4
ENDBRANCH   2   3
ENDBRANCH   1   2
BRANCH   1  11
ATOM     11  C   LIG    1       28.319 -17.892   4.531  0.00  0.00    +0.000 C 
BRANCH  11  12
ATOM     12  C   LIG    1       27.978 -16.393   4.479  0.00  0.00    +0.011 C 
BRANCH  12  13
ATOM     13  C   LIG    1       26.808 -16.015   3.568  0.00  0.00    +0.120 C 
BRANCH  13  14
ATOM     14  C   LIG    1       26.844 -14.561   3.157  0.00  0.00    +0.307 C 
ATOM     15  O   LIG    1       27.831 -13.852   3.207  0.00  0.00    -0.251 OA
BRANCH  14  16
ATOM     16  O   LIG    1       25.603 -14.180   2.738  0.00  0.00    -0.462 OA
BRANCH  16  17
ATOM     17  C   LIG    1       24.770 -13.554   3.728  0.00  0.00    +0.170 C 
ATOM     18  C   LIG    1       23.777 -14.612   4.194  0.00  0.00    +0.051 C 
ATOM     19  C   LIG    1       24.048 -12.357   3.125  0.00  0.00    +0.051 C 
ENDBRANCH  16  17
ENDBRANCH  14  16
ENDBRANCH  13  14
ENDBRANCH  12  13
ENDBRANCH  11  12
ENDBRANCH   1  11
TORSDOF 14
ENDMDL
MODEL 7
REMARK VINA RESULT:      -4.8      2.794      6.749
REMARK  Name = *****
REMARK                            x       y       z     vdW  Elec       q    Type
REMARK                         _______ _______ _______ _____ _____    ______ ____
ROOT
ATOM      1  C   LIG    1       26.164 -19.659   4.333  0.00  0.00    +0.000 C 
ENDROOT
BRANCH   1   2
ATOM      2  C   LIG    1       25.788 -18.419   3.509  0.00  0.00    -0.000 C 
BRANCH   2   3
ATOM      3  C   LIG    1       26.859 -17.320   3.634  0.00  0.00    -0.000 C 
BRANCH   3   4
ATOM      4  C   LIG    1       26.309 -15.919   3.327  0.00  0.00    -0.000 C 
BRANCH   4   5
ATOM      5  C   LIG    1       27.322 -14.802   3.637  0.00  0.00    -0.000 C 
BRANCH   5   6
ATOM      6  C   LIG    1       27.019 -13.521   2.833  0.00  0.00    -0.000 C 
BRANCH   6   7
ATOM      7  C   LIG    1       25.636 -13.565   2.165  0.00  0.00    -0.000 C 
BRANCH   7   8
ATOM      8  C   LIG    1       24.819 -12.259   2.247  0.00  0.00    -0.000 C 
BRANCH   8  10
ATOM      9  C   LIG    1       23.913 -13.396   4.349  0.00  0.00    +0.004 C 
ATOM     10  C   LIG    1       23.949 -12.124   3.502  0.00  0.00    -0.003 C 
ENDBRANCH   8  10
ENDBRANCH   7   8
ENDBRANCH   6   7
ENDBRANCH   5   6
ENDBRANCH   4   5
ENDBRANCH   3   4
ENDBRANCH   2   3
ENDBRANCH   1   2
BRANCH   1  11
ATOM     11  C   LIG    1       25.039 -20.698   4.422  0.00  0.00    +0.000 C 
BRANCH  11  12
ATOM     12  C   LIG    1       24.859 -21.268   5.839  0.00  0.00    +0.011 C 
BRANCH  12  13
ATOM     13  C   LIG    1       23.554 -20.886   6.541  0.00  0.00    +0.120 C 
BRANCH  13  14
ATOM     14  C   LIG    1       22.472 -20.482   5.567  0.00  0.00    +0.307 C 
ATOM     15  O   LIG    1       21.847 -21.255   4.866  0.00  0.00    -0.251 OA
BRANCH  14  16
ATOM     16  O   LIG    1       22.323 -19.126   5.596  0.00  0.00    -0.462 OA
BRANCH  16  17
ATOM     17  C   LIG    1       22.275 -18.472   4.316  0.00  0.00    +0.170 C 
ATOM     18  C   LIG    1       22.520 -16.990   4.574  0.00  0.00    +0.051 C 
ATOM     19  C   LIG    1       20.916 -18.694   3.664  0.00  0.00    +0.051 C 
ENDBRANCH  16  17
ENDBRANCH  14  16
ENDBRANCH  13  14
ENDBRANCH  12  13
ENDBRANCH  11  12
ENDBRANCH   1  11
TORSDOF 14
ENDMDL
MODEL 8
REMARK VINA RESULT:      -4.7      2.780      6.932
REMARK  Name = *****
REMARK                            x       y       z     vdW  Elec       q    Type
REMARK                         _______ _______ _______ _____ _____    ______ ____
ROOT
ATOM      1  C   LIG    1       27.184 -17.095   3.673  0.00  0.00    +0.000 C 
ENDROOT
BRANCH   1   2
ATOM      2  C   LIG    1       27.290 -15.595   3.979  0.00  0.00    -0.000 C 
BRANCH   2   3
ATOM      3  C   LIG    1       26.853 -14.746   2.771  0.00  0.00    -0.000 C 
BRANCH   3   4
ATOM      4  C   LIG    1       27.308 -13.283   2.879  0.00  0.00    -0.000 C 
BRANCH   4   5
ATOM      5  C   LIG    1       26.293 -12.299   2.268  0.00  0.00    -0.000 C 
BRANCH   5   6
ATOM      6  C   LIG    1       24.882 -12.915   2.191  0.00  0.00    -0.000 C 
BRANCH   6   7
ATOM      7  C   LIG    1       23.867 -12.161   3.065  0.00  0.00    -0.000 C 
BRANCH   7   8
ATOM      8  C   LIG    1       23.905 -12.502   4.569  0.00  0.00    -0.000 C 
BRANCH   8  10
ATOM      9  C   LIG    1       23.239 -14.963   4.398  0.00  0.00    +0.004 C 
ATOM     10  C   LIG    1       24.277 -13.955   4.888  0.00  0.00    -0.003 C 
ENDBRANCH   8  10
ENDBRANCH   7   8
ENDBRANCH   6   7
ENDBRANCH   5   6
ENDBRANCH   4   5
ENDBRANCH   3   4
ENDBRANCH   2   3
ENDBRANCH   1   2
BRANCH   1  11
ATOM     11  C   LIG    1       25.756 -17.555   3.352  0.00  0.00    +0.000 C 
BRANCH  11  12
ATOM     12  C   LIG    1       25.590 -19.083   3.407  0.00  0.00    +0.011 C 
BRANCH  12  13
ATOM     13  C   LIG    1       26.120 -19.757   4.674  0.00  0.00    +0.120 C 
BRANCH  13  14
ATOM     14  C   LIG    1       25.033 -20.469   5.446  0.00  0.00    +0.307 C 
ATOM     15  O   LIG    1       25.145 -20.872   6.588  0.00  0.00    -0.251 OA
BRANCH  14  16
ATOM     16  O   LIG    1       23.926 -20.590   4.659  0.00  0.00    -0.462 OA
BRANCH  16  17
ATOM     17  C   LIG    1       22.682 -20.185   5.256  0.00  0.00    +0.170 C 
ATOM     18  C   LIG    1       21.665 -21.272   4.927  0.00  0.00    +0.051 C 
ATOM     19  C   LIG    1       22.243 -18.839   4.693  0.00  0.00    +0.051 C 
ENDBRANCH  16  17
ENDBRANCH  14  16
ENDBRANCH  13  14
ENDBRANCH  12  13
ENDBRANCH  11  12
ENDBRANCH   1  11
TORSDOF 14
ENDMDL
MODEL 9
REMARK VINA RESULT:      -4.7      1.742      4.930
REMARK  Name = *****
REMARK                            x       y       z     vdW  Elec       q    Type
REMARK                         _______ _______ _______ _____ _____    ______ ____
ROOT
ATOM      1  C   LIG    1       24.380 -20.102   3.830  0.00  0.00    +0.000 C 
ENDROOT
BRANCH   1   2
ATOM      2  C   LIG    1       23.285 -19.060   3.559  0.00  0.00    -0.000 C 
BRANCH   2   3
ATOM      3  C   LIG    1       22.410 -18.833   4.806  0.00  0.00    -0.000 C 
BRANCH   3   4
ATOM      4  C   LIG    1       22.022 -17.359   4.997  0.00  0.00    -0.000 C 
BRANCH   4   5
ATOM      5  C   LIG    1       22.828 -16.410   4.090  0.00  0.00    -0.000 C 
BRANCH   5   6
ATOM      6  C   LIG    1       23.147 -15.080   4.801  0.00  0.00    -0.000 C 
BRANCH   6   7
ATOM      7  C   LIG    1       23.929 -14.110   3.902  0.00  0.00    -0.000 C 
BRANCH   7   8
ATOM      8  C   LIG    1       23.924 -12.636   4.356  0.00  0.00    -0.000 C 
BRANCH   8  10
ATOM      9  C   LIG    1       24.589 -12.032   1.963  0.00  0.00    +0.004 C 
ATOM     10  C   LIG    1       23.821 -11.614   3.217  0.00  0.00    -0.003 C 
ENDBRANCH   8  10
ENDBRANCH   7   8
ENDBRANCH   6   7
ENDBRANCH   5   6
ENDBRANCH   4   5
ENDBRANCH   3   4
ENDBRANCH   2   3
ENDBRANCH   1   2
BRANCH   1  11
ATOM     11  C   LIG    1       25.801 -19.531   3.749  0.00  0.00    +0.000 C 
BRANCH  11  12
ATOM     12  C   LIG    1       25.831 -18.055   3.317  0.00  0.00    +0.011 C 
BRANCH  12  13
ATOM     13  C   LIG    1       27.031 -17.247   3.816  0.00  0.00    +0.120 C 
BRANCH  13  14
ATOM     14  C   LIG    1       26.949 -15.790   3.422  0.00  0.00    +0.307 C 
ATOM     15  O   LIG    1       26.270 -15.356   2.511  0.00  0.00    -0.251 OA
BRANCH  14  16
ATOM     16  O   LIG    1       27.758 -15.057   4.238  0.00  0.00    -0.462 OA
BRANCH  16  17
ATOM     17  C   LIG    1       27.473 -13.649   4.306  0.00  0.00    +0.170 C 
ATOM     18  C   LIG    1       28.729 -12.926   3.834  0.00  0.00    +0.051 C 
ATOM     19  C   LIG    1       27.120 -13.253   5.734  0.00  0.00    +0.051 C 
ENDBRANCH  16  17
ENDBRANCH  14  16
ENDBRANCH  13  14
ENDBRANCH  12  13
ENDBRANCH  11  12
ENDBRANCH   1  11
TORSDOF 14
ENDMDL
