MODEL 1
REMARK VINA RESULT:      -8.2      0.000      0.000
REMARK  Name = *****
REMARK                            x       y       z     vdW  Elec       q    Type
REMARK                         _______ _______ _______ _____ _____    ______ ____
ROOT
ATOM      1  C   LIG    1       23.310 -24.443   6.476  0.00  0.00    +0.003 C 
ATOM      2  C   LIG    1       23.584 -23.128   6.359  0.00  0.00    -0.050 C 
ATOM      3  C   LIG    1       22.449 -22.133   6.250  0.00  0.00    +0.044 C 
ENDROOT
BRANCH   1   5
ATOM      4  C   LIG    1       24.382 -26.432   5.523  0.00  0.00    +0.003 C 
ATOM      5  C   LIG    1       24.243 -25.551   6.529  0.00  0.00    +0.001 C 
BRANCH   4   7
ATOM      6  C   LIG    1       26.734 -27.022   5.060  0.00  0.00    +0.044 C 
ATOM      7  C   LIG    1       25.371 -27.499   5.506  0.00  0.00    -0.044 C 
ATOM      8  C   LIG    1       25.205 -28.791   5.851  0.00  0.00    +0.094 C 
BRANCH   8   9
ATOM      9  C   LIG    1       24.049 -29.583   6.320  0.00  0.00    +0.330 C 
ATOM     10  O   LIG    1       24.070 -30.138   7.404  0.00  0.00    -0.246 OA
BRANCH   9  11
ATOM     11  O   LIG    1       23.031 -29.715   5.454  0.00  0.00    -0.477 OA
ATOM     12  H   LIG    1       22.178 -29.907   5.877  0.00  0.00    +0.295 HD
ENDBRANCH   9  11
ENDBRANCH   8   9
ENDBRANCH   4   7
ENDBRANCH   1   5
BRANCH   2  13
ATOM     13  C   LIG    1       24.911 -22.525   6.280  0.00  0.00    +0.003 C 
ATOM     14  C   LIG    1       25.186 -21.237   6.547  0.00  0.00    +0.004 C 
BRANCH  14  15
ATOM     15  C   LIG    1       26.466 -20.518   6.405  0.00  0.00    -0.043 C 
ATOM     16  C   LIG    1       27.391 -20.567   7.666  0.00  0.00    -0.010 C 
ATOM     17  C   LIG    1       26.650 -20.269   8.997  0.00  0.00    +0.016 C 
ATOM     18  C   LIG    1       28.019 -21.973   7.781  0.00  0.00    +0.016 C 
ATOM     19  C   LIG    1       28.523 -19.504   7.589  0.00  0.00    +0.011 C 
ATOM     20  C   LIG    1       29.179 -19.455   6.223  0.00  0.00    +0.005 C 
ATOM     21  C   LIG    1       28.151 -19.087   5.167  0.00  0.00    +0.031 C 
ATOM     22  C   LIG    1       26.817 -19.801   5.301  0.00  0.00    -0.069 C 
ATOM     23  C   LIG    1       25.950 -19.582   4.083  0.00  0.00    +0.039 C 
ENDBRANCH  14  15
ENDBRANCH   2  13
TORSDOF 6
ENDMDL
MODEL 2
REMARK VINA RESULT:      -8.1      4.791      7.536
REMARK  Name = *****
REMARK                            x       y       z     vdW  Elec       q    Type
REMARK                         _______ _______ _______ _____ _____    ______ ____
ROOT
ATOM      1  C   LIG    1       27.732 -22.265   7.576  0.00  0.00    +0.003 C 
ATOM      2  C   LIG    1       26.493 -22.601   7.162  0.00  0.00    -0.050 C 
ATOM      3  C   LIG    1       26.109 -24.061   7.057  0.00  0.00    +0.044 C 
ENDROOT
BRANCH   1   5
ATOM      4  C   LIG    1       29.347 -20.539   6.926  0.00  0.00    +0.003 C 
ATOM      5  C   LIG    1       28.311 -20.941   7.683  0.00  0.00    +0.001 C 
BRANCH   4   7
ATOM      6  C   LIG    1       29.468 -18.373   5.745  0.00  0.00    +0.044 C 
ATOM      7  C   LIG    1       29.893 -19.189   6.945  0.00  0.00    -0.044 C 
ATOM      8  C   LIG    1       30.675 -18.623   7.883  0.00  0.00    +0.094 C 
BRANCH   8   9
ATOM      9  C   LIG    1       31.266 -19.105   9.149  0.00  0.00    +0.330 C 
ATOM     10  O   LIG    1       32.169 -19.922   9.147  0.00  0.00    -0.246 OA
BRANCH   9  11
ATOM     11  O   LIG    1       30.695 -18.654  10.278  0.00  0.00    -0.477 OA
ATOM     12  H   LIG    1       29.899 -18.117  10.127  0.00  0.00    +0.295 HD
ENDBRANCH   9  11
ENDBRANCH   8   9
ENDBRANCH   4   7
ENDBRANCH   1   5
BRANCH   2  13
ATOM     13  C   LIG    1       25.441 -21.680   6.744  0.00  0.00    +0.003 C 
ATOM     14  C   LIG    1       25.268 -21.231   5.489  0.00  0.00    +0.004 C 
BRANCH  14  15
ATOM     15  C   LIG    1       24.301 -20.235   4.991  0.00  0.00    -0.043 C 
ATOM     16  C   LIG    1       22.838 -20.420   5.513  0.00  0.00    -0.010 C 
ATOM     17  C   LIG    1       22.326 -21.884   5.435  0.00  0.00    +0.016 C 
ATOM     18  C   LIG    1       22.766 -19.975   6.990  0.00  0.00    +0.016 C 
ATOM     19  C   LIG    1       21.821 -19.592   4.678  0.00  0.00    +0.011 C 
ATOM     20  C   LIG    1       22.308 -18.183   4.403  0.00  0.00    +0.005 C 
ATOM     21  C   LIG    1       23.604 -18.229   3.610  0.00  0.00    +0.031 C 
ATOM     22  C   LIG    1       24.609 -19.259   4.092  0.00  0.00    -0.069 C 
ATOM     23  C   LIG    1       25.954 -19.069   3.428  0.00  0.00    +0.039 C 
ENDBRANCH  14  15
ENDBRANCH   2  13
TORSDOF 6
ENDMDL
MODEL 3
REMARK VINA RESULT:      -7.8      5.476      8.736
REMARK  Name = *****
REMARK                            x       y       z     vdW  Elec       q    Type
REMARK                         _______ _______ _______ _____ _____    ______ ____
ROOT
ATOM      1  C   LIG    1       29.064 -18.079   5.245  0.00  0.00    +0.003 C 
ATOM      2  C   LIG    1       27.889 -18.564   4.796  0.00  0.00    -0.050 C 
ATOM      3  C   LIG    1       27.029 -17.718   3.881  0.00  0.00    +0.044 C 
ENDROOT
BRANCH   1   5
ATOM      4  C   LIG    1       30.021 -18.399   7.479  0.00  0.00    +0.003 C 
ATOM      5  C   LIG    1       29.994 -18.697   6.169  0.00  0.00    +0.001 C 
BRANCH   4   7
ATOM      6  C   LIG    1       30.756 -20.572   8.393  0.00  0.00    +0.044 C 
ATOM      7  C   LIG    1       30.879 -19.066   8.448  0.00  0.00    -0.044 C 
ATOM      8  C   LIG    1       31.738 -18.506   9.322  0.00  0.00    +0.094 C 
BRANCH   8   9
ATOM      9  C   LIG    1       32.107 -17.111   9.641  0.00  0.00    +0.330 C 
ATOM     10  O   LIG    1       31.855 -16.631  10.731  0.00  0.00    -0.246 OA
BRANCH   9  11
ATOM     11  O   LIG    1       32.651 -16.399   8.640  0.00  0.00    -0.477 OA
ATOM     12  H   LIG    1       32.802 -15.465   8.861  0.00  0.00    +0.295 HD
ENDBRANCH   9  11
ENDBRANCH   8   9
ENDBRANCH   4   7
ENDBRANCH   1   5
BRANCH   2  13
ATOM     13  C   LIG    1       27.300 -19.855   5.136  0.00  0.00    +0.003 C 
ATOM     14  C   LIG    1       26.110 -20.022   5.739  0.00  0.00    +0.004 C 
BRANCH  14  15
ATOM     15  C   LIG    1       25.478 -21.270   6.205  0.00  0.00    -0.043 C 
ATOM     16  C   LIG    1       24.010 -21.488   5.712  0.00  0.00    -0.010 C 
ATOM     17  C   LIG    1       23.107 -20.234   5.864  0.00  0.00    +0.016 C 
ATOM     18  C   LIG    1       24.028 -21.876   4.217  0.00  0.00    +0.016 C 
ATOM     19  C   LIG    1       23.291 -22.603   6.522  0.00  0.00    +0.011 C 
ATOM     20  C   LIG    1       24.164 -23.825   6.726  0.00  0.00    +0.005 C 
ATOM     21  C   LIG    1       25.414 -23.445   7.502  0.00  0.00    +0.031 C 
ATOM     22  C   LIG    1       26.074 -22.154   7.053  0.00  0.00    -0.069 C 
ATOM     23  C   LIG    1       27.435 -21.980   7.689  0.00  0.00    +0.039 C 
ENDBRANCH  14  15
ENDBRANCH   2  13
TORSDOF 6
ENDMDL
MODEL 4
REMARK VINA RESULT:      -7.6      2.130      3.969
REMARK  Name = *****
REMARK                            x       y       z     vdW  Elec       q    Type
REMARK                         _______ _______ _______ _____ _____    ______ ____
ROOT
ATOM      1  C   LIG    1       23.674 -19.853   4.212  0.00  0.00    +0.003 C 
ATOM      2  C   LIG    1       24.944 -19.481   3.957  0.00  0.00    -0.050 C 
ATOM      3  C   LIG    1       25.226 -18.484   2.853  0.00  0.00    +0.044 C 
ENDROOT
BRANCH   1   5
ATOM      4  C   LIG    1       23.922 -21.913   5.519  0.00  0.00    +0.003 C 
ATOM      5  C   LIG    1       23.203 -20.831   5.172  0.00  0.00    +0.001 C 
BRANCH   4   7
ATOM      6  C   LIG    1       22.761 -22.210   7.677  0.00  0.00    +0.044 C 
ATOM      7  C   LIG    1       23.519 -22.863   6.545  0.00  0.00    -0.044 C 
ATOM      8  C   LIG    1       23.725 -24.194   6.571  0.00  0.00    +0.094 C 
BRANCH   8   9
ATOM      9  C   LIG    1       24.405 -25.142   5.662  0.00  0.00    +0.330 C 
ATOM     10  O   LIG    1       25.524 -24.911   5.242  0.00  0.00    -0.246 OA
BRANCH   9  11
ATOM     11  O   LIG    1       23.686 -26.208   5.275  0.00  0.00    -0.477 OA
ATOM     12  H   LIG    1       24.114 -27.060   5.466  0.00  0.00    +0.295 HD
ENDBRANCH   9  11
ENDBRANCH   8   9
ENDBRANCH   4   7
ENDBRANCH   1   5
BRANCH   2  13
ATOM     13  C   LIG    1       26.142 -19.980   4.624  0.00  0.00    +0.003 C 
ATOM     14  C   LIG    1       26.479 -19.715   5.898  0.00  0.00    +0.004 C 
BRANCH  14  15
ATOM     15  C   LIG    1       27.705 -20.093   6.626  0.00  0.00    -0.043 C 
ATOM     16  C   LIG    1       27.491 -21.122   7.784  0.00  0.00    -0.010 C 
ATOM     17  C   LIG    1       26.292 -20.783   8.710  0.00  0.00    +0.016 C 
ATOM     18  C   LIG    1       27.238 -22.521   7.180  0.00  0.00    +0.016 C 
ATOM     19  C   LIG    1       28.724 -21.188   8.729  0.00  0.00    +0.011 C 
ATOM     20  C   LIG    1       30.035 -21.230   7.968  0.00  0.00    +0.005 C 
ATOM     21  C   LIG    1       30.186 -19.975   7.125  0.00  0.00    +0.031 C 
ATOM     22  C   LIG    1       28.932 -19.555   6.380  0.00  0.00    -0.069 C 
ATOM     23  C   LIG    1       29.228 -18.464   5.375  0.00  0.00    +0.039 C 
ENDBRANCH  14  15
ENDBRANCH   2  13
TORSDOF 6
ENDMDL
MODEL 5
REMARK VINA RESULT:      -7.5      4.802      7.607
REMARK  Name = *****
REMARK                            x       y       z     vdW  Elec       q    Type
REMARK                         _______ _______ _______ _____ _____    ______ ____
ROOT
ATOM      1  C   LIG    1       27.787 -22.332   7.599  0.00  0.00    +0.003 C 
ATOM      2  C   LIG    1       26.547 -22.679   7.198  0.00  0.00    -0.050 C 
ATOM      3  C   LIG    1       26.182 -24.143   7.073  0.00  0.00    +0.044 C 
ENDROOT
BRANCH   1   5
ATOM      4  C   LIG    1       29.315 -20.545   6.905  0.00  0.00    +0.003 C 
ATOM      5  C   LIG    1       28.349 -21.001   7.721  0.00  0.00    +0.001 C 
BRANCH   4   7
ATOM      6  C   LIG    1       29.452 -18.383   5.721  0.00  0.00    +0.044 C 
ATOM      7  C   LIG    1       29.836 -19.186   6.942  0.00  0.00    -0.044 C 
ATOM      8  C   LIG    1       30.566 -18.603   7.912  0.00  0.00    +0.094 C 
BRANCH   8   9
ATOM      9  C   LIG    1       31.106 -19.070   9.206  0.00  0.00    +0.330 C 
ATOM     10  O   LIG    1       30.648 -18.664  10.258  0.00  0.00    -0.246 OA
BRANCH   9  11
ATOM     11  O   LIG    1       32.168 -19.890   9.142  0.00  0.00    -0.477 OA
ATOM     12  H   LIG    1       31.978 -20.746   8.723  0.00  0.00    +0.295 HD
ENDBRANCH   9  11
ENDBRANCH   8   9
ENDBRANCH   4   7
ENDBRANCH   1   5
BRANCH   2  13
ATOM     13  C   LIG    1       25.476 -21.766   6.812  0.00  0.00    +0.003 C 
ATOM     14  C   LIG    1       25.298 -21.271   5.575  0.00  0.00    +0.004 C 
BRANCH  14  15
ATOM     15  C   LIG    1       24.310 -20.278   5.113  0.00  0.00    -0.043 C 
ATOM     16  C   LIG    1       24.726 -19.484   3.830  0.00  0.00    -0.010 C 
ATOM     17  C   LIG    1       26.183 -18.947   3.872  0.00  0.00    +0.016 C 
ATOM     18  C   LIG    1       24.601 -20.408   2.599  0.00  0.00    +0.016 C 
ATOM     19  C   LIG    1       23.839 -18.225   3.620  0.00  0.00    +0.011 C 
ATOM     20  C   LIG    1       22.366 -18.513   3.835  0.00  0.00    +0.005 C 
ATOM     21  C   LIG    1       22.133 -18.990   5.259  0.00  0.00    +0.031 C 
ATOM     22  C   LIG    1       23.148 -20.000   5.766  0.00  0.00    -0.069 C 
ATOM     23  C   LIG    1       22.708 -20.612   7.076  0.00  0.00    +0.039 C 
ENDBRANCH  14  15
ENDBRANCH   2  13
TORSDOF 6
ENDMDL
MODEL 6
REMARK VINA RESULT:      -7.5      2.108      4.326
REMARK  Name = *****
REMARK                            x       y       z     vdW  Elec       q    Type
REMARK                         _______ _______ _______ _____ _____    ______ ____
ROOT
ATOM      1  C   LIG    1       27.271 -22.679   7.263  0.00  0.00    +0.003 C 
ATOM      2  C   LIG    1       27.304 -21.362   6.976  0.00  0.00    -0.050 C 
ATOM      3  C   LIG    1       28.608 -20.601   7.094  0.00  0.00    +0.044 C 
ENDROOT
BRANCH   1   5
ATOM      4  C   LIG    1       25.775 -24.312   6.213  0.00  0.00    +0.003 C 
ATOM      5  C   LIG    1       26.124 -23.565   7.274  0.00  0.00    +0.001 C 
BRANCH   4   7
ATOM      6  C   LIG    1       23.370 -24.668   6.648  0.00  0.00    +0.044 C 
ATOM      7  C   LIG    1       24.686 -25.277   6.221  0.00  0.00    -0.044 C 
ATOM      8  C   LIG    1       24.728 -26.581   5.883  0.00  0.00    +0.094 C 
BRANCH   8   9
ATOM      9  C   LIG    1       25.807 -27.485   5.431  0.00  0.00    +0.330 C 
ATOM     10  O   LIG    1       26.751 -27.060   4.790  0.00  0.00    -0.246 OA
BRANCH   9  11
ATOM     11  O   LIG    1       25.636 -28.790   5.698  0.00  0.00    -0.477 OA
ATOM     12  H   LIG    1       26.457 -29.308   5.663  0.00  0.00    +0.295 HD
ENDBRANCH   9  11
ENDBRANCH   8   9
ENDBRANCH   4   7
ENDBRANCH   1   5
BRANCH   2  13
ATOM     13  C   LIG    1       26.168 -20.533   6.587  0.00  0.00    +0.003 C 
ATOM     14  C   LIG    1       25.465 -20.678   5.450  0.00  0.00    +0.004 C 
BRANCH  14  15
ATOM     15  C   LIG    1       24.371 -19.838   4.928  0.00  0.00    -0.043 C 
ATOM     16  C   LIG    1       22.942 -20.235   5.426  0.00  0.00    -0.010 C 
ATOM     17  C   LIG    1       22.654 -21.759   5.348  0.00  0.00    +0.016 C 
ATOM     18  C   LIG    1       22.778 -19.800   6.899  0.00  0.00    +0.016 C 
ATOM     19  C   LIG    1       21.829 -19.571   4.568  0.00  0.00    +0.011 C 
ATOM     20  C   LIG    1       22.108 -18.106   4.292  0.00  0.00    +0.005 C 
ATOM     21  C   LIG    1       23.410 -17.962   3.523  0.00  0.00    +0.031 C 
ATOM     22  C   LIG    1       24.548 -18.830   4.029  0.00  0.00    -0.069 C 
ATOM     23  C   LIG    1       25.862 -18.446   3.387  0.00  0.00    +0.039 C 
ENDBRANCH  14  15
ENDBRANCH   2  13
TORSDOF 6
ENDMDL
MODEL 7
REMARK VINA RESULT:      -7.3      5.126      7.945
REMARK  Name = *****
REMARK                            x       y       z     vdW  Elec       q    Type
REMARK                         _______ _______ _______ _____ _____    ______ ____
ROOT
ATOM      1  C   LIG    1       27.954 -18.769   4.989  0.00  0.00    +0.003 C 
ATOM      2  C   LIG    1       26.749 -18.914   4.403  0.00  0.00    -0.050 C 
ATOM      3  C   LIG    1       26.233 -17.838   3.472  0.00  0.00    +0.044 C 
ENDROOT
BRANCH   1   5
ATOM      4  C   LIG    1       29.386 -19.185   6.936  0.00  0.00    +0.003 C 
ATOM      5  C   LIG    1       28.594 -19.644   5.951  0.00  0.00    +0.001 C 
BRANCH   4   7
ATOM      6  C   LIG    1       29.338 -21.399   8.028  0.00  0.00    +0.044 C 
ATOM      7  C   LIG    1       29.968 -20.027   7.970  0.00  0.00    -0.044 C 
ATOM      8  C   LIG    1       30.971 -19.727   8.818  0.00  0.00    +0.094 C 
BRANCH   8   9
ATOM      9  C   LIG    1       31.797 -18.521   9.039  0.00  0.00    +0.330 C 
ATOM     10  O   LIG    1       32.077 -18.152  10.165  0.00  0.00    -0.246 OA
BRANCH   9  11
ATOM     11  O   LIG    1       32.139 -17.829   7.940  0.00  0.00    -0.477 OA
ATOM     12  H   LIG    1       31.499 -17.907   7.212  0.00  0.00    +0.295 HD
ENDBRANCH   9  11
ENDBRANCH   8   9
ENDBRANCH   4   7
ENDBRANCH   1   5
BRANCH   2  13
ATOM     13  C   LIG    1       25.818 -20.020   4.602  0.00  0.00    +0.003 C 
ATOM     14  C   LIG    1       25.084 -20.217   5.711  0.00  0.00    +0.004 C 
BRANCH  14  15
ATOM     15  C   LIG    1       24.195 -21.347   6.041  0.00  0.00    -0.043 C 
ATOM     16  C   LIG    1       24.869 -22.499   6.855  0.00  0.00    -0.010 C 
ATOM     17  C   LIG    1       26.252 -22.933   6.298  0.00  0.00    +0.016 C 
ATOM     18  C   LIG    1       25.074 -22.037   8.315  0.00  0.00    +0.016 C 
ATOM     19  C   LIG    1       24.006 -23.792   6.843  0.00  0.00    +0.011 C 
ATOM     20  C   LIG    1       22.537 -23.510   7.087  0.00  0.00    +0.005 C 
ATOM     21  C   LIG    1       21.995 -22.602   5.996  0.00  0.00    +0.031 C 
ATOM     22  C   LIG    1       22.901 -21.442   5.625  0.00  0.00    -0.069 C 
ATOM     23  C   LIG    1       22.190 -20.452   4.730  0.00  0.00    +0.039 C 
ENDBRANCH  14  15
ENDBRANCH   2  13
TORSDOF 6
ENDMDL
MODEL 8
REMARK VINA RESULT:      -7.2      3.951      6.448
REMARK  Name = *****
REMARK                            x       y       z     vdW  Elec       q    Type
REMARK                         _______ _______ _______ _____ _____    ______ ____
ROOT
ATOM      1  C   LIG    1       26.018 -24.242   6.650  0.00  0.00    +0.003 C 
ATOM      2  C   LIG    1       25.213 -24.233   5.568  0.00  0.00    -0.050 C 
ATOM      3  C   LIG    1       25.078 -25.482   4.723  0.00  0.00    +0.044 C 
ENDROOT
BRANCH   1   5
ATOM      4  C   LIG    1       27.045 -22.074   7.154  0.00  0.00    +0.003 C 
ATOM      5  C   LIG    1       26.331 -23.144   7.543  0.00  0.00    +0.001 C 
BRANCH   4   7
ATOM      6  C   LIG    1       26.078 -20.488   8.781  0.00  0.00    +0.044 C 
ATOM      7  C   LIG    1       27.298 -20.915   7.997  0.00  0.00    -0.044 C 
ATOM      8  C   LIG    1       28.453 -20.240   8.156  0.00  0.00    +0.094 C 
BRANCH   8   9
ATOM      9  C   LIG    1       29.804 -20.373   7.571  0.00  0.00    +0.330 C 
ATOM     10  O   LIG    1       30.126 -19.732   6.588  0.00  0.00    -0.246 OA
BRANCH   9  11
ATOM     11  O   LIG    1       30.605 -21.291   8.137  0.00  0.00    -0.477 OA
ATOM     12  H   LIG    1       30.329 -22.208   7.972  0.00  0.00    +0.295 HD
ENDBRANCH   9  11
ENDBRANCH   8   9
ENDBRANCH   4   7
ENDBRANCH   1   5
BRANCH   2  13
ATOM     13  C   LIG    1       24.451 -23.094   5.067  0.00  0.00    +0.003 C 
ATOM     14  C   LIG    1       24.838 -21.810   5.159  0.00  0.00    +0.004 C 
BRANCH  14  15
ATOM     15  C   LIG    1       24.101 -20.593   4.771  0.00  0.00    -0.043 C 
ATOM     16  C   LIG    1       22.674 -20.461   5.397  0.00  0.00    -0.010 C 
ATOM     17  C   LIG    1       21.829 -21.761   5.308  0.00  0.00    +0.016 C 
ATOM     18  C   LIG    1       22.806 -20.087   6.889  0.00  0.00    +0.016 C 
ATOM     19  C   LIG    1       21.825 -19.379   4.671  0.00  0.00    +0.011 C 
ATOM     20  C   LIG    1       22.610 -18.109   4.407  0.00  0.00    +0.005 C 
ATOM     21  C   LIG    1       23.803 -18.413   3.516  0.00  0.00    +0.031 C 
ATOM     22  C   LIG    1       24.569 -19.671   3.885  0.00  0.00    -0.069 C 
ATOM     23  C   LIG    1       25.874 -19.764   3.126  0.00  0.00    +0.039 C 
ENDBRANCH  14  15
ENDBRANCH   2  13
TORSDOF 6
ENDMDL
MODEL 9
REMARK VINA RESULT:      -7.0      2.318      4.334
REMARK  Name = *****
REMARK                            x       y       z     vdW  Elec       q    Type
REMARK                         _______ _______ _______ _____ _____    ______ ____
ROOT
ATOM      1  C   LIG    1       24.244 -19.941   4.462  0.00  0.00    +0.003 C 
ATOM      2  C   LIG    1       25.533 -19.557   4.370  0.00  0.00    -0.050 C 
ATOM      3  C   LIG    1       25.918 -18.444   3.418  0.00  0.00    +0.044 C 
ENDROOT
BRANCH   1   5
ATOM      4  C   LIG    1       24.316 -22.189   5.438  0.00  0.00    +0.003 C 
ATOM      5  C   LIG    1       23.685 -21.016   5.257  0.00  0.00    +0.001 C 
BRANCH   4   7
ATOM      6  C   LIG    1       22.655 -22.816   7.154  0.00  0.00    +0.044 C 
ATOM      7  C   LIG    1       23.825 -23.252   6.302  0.00  0.00    -0.044 C 
ATOM      8  C   LIG    1       24.272 -24.520   6.396  0.00  0.00    +0.094 C 
BRANCH   8   9
ATOM      9  C   LIG    1       25.360 -25.271   5.736  0.00  0.00    +0.330 C 
ATOM     10  O   LIG    1       26.363 -25.588   6.349  0.00  0.00    -0.246 OA
BRANCH   9  11
ATOM     11  O   LIG    1       25.207 -25.503   4.421  0.00  0.00    -0.477 OA
ATOM     12  H   LIG    1       26.028 -25.414   3.909  0.00  0.00    +0.295 HD
ENDBRANCH   9  11
ENDBRANCH   8   9
ENDBRANCH   4   7
ENDBRANCH   1   5
BRANCH   2  13
ATOM     13  C   LIG    1       26.663 -20.143   5.083  0.00  0.00    +0.003 C 
ATOM     14  C   LIG    1       27.245 -19.609   6.172  0.00  0.00    +0.004 C 
BRANCH  14  15
ATOM     15  C   LIG    1       28.440 -20.073   6.901  0.00  0.00    -0.043 C 
ATOM     16  C   LIG    1       29.685 -19.132   6.789  0.00  0.00    -0.010 C 
ATOM     17  C   LIG    1       29.980 -18.654   5.342  0.00  0.00    +0.016 C 
ATOM     18  C   LIG    1       29.453 -17.878   7.661  0.00  0.00    +0.016 C 
ATOM     19  C   LIG    1       30.987 -19.844   7.251  0.00  0.00    +0.011 C 
ATOM     20  C   LIG    1       30.795 -20.626   8.536  0.00  0.00    +0.005 C 
ATOM     21  C   LIG    1       29.744 -21.704   8.335  0.00  0.00    +0.031 C 
ATOM     22  C   LIG    1       28.510 -21.256   7.571  0.00  0.00    -0.069 C 
ATOM     23  C   LIG    1       27.414 -22.296   7.636  0.00  0.00    +0.039 C 
ENDBRANCH  14  15
ENDBRANCH   2  13
TORSDOF 6
ENDMDL
