MODEL 1
REMARK VINA RESULT:      -3.8      0.000      0.000
REMARK  Name = *****
REMARK                            x       y       z     vdW  Elec       q    Type
REMARK                         _______ _______ _______ _____ _____    ______ ____
ROOT
ATOM      1  C   LIG    1       32.619 -16.670  10.251  0.00  0.00    +0.096 C 
ATOM      2  N   LIG    1       32.369 -16.791   8.803  0.00  0.00    -0.314 NA
ATOM      3  H   LIG    1       31.672 -16.095   8.545  0.00  0.00    +0.122 HD
ATOM      4  C   LIG    1       31.799 -18.125   8.536  0.00  0.00    +0.096 C 
ATOM      5  C   LIG    1       30.532 -18.412   9.371  0.00  0.00    +0.096 C 
ATOM      6  N   LIG    1       30.759 -18.262  10.815  0.00  0.00    -0.314 NA
ATOM      7  H   LIG    1       29.874 -18.349  11.312  0.00  0.00    +0.122 HD
ATOM      8  C   LIG    1       31.365 -16.956  11.105  0.00  0.00    +0.096 C 
ENDROOT
TORSDOF 0
ENDMDL
MODEL 2
REMARK VINA RESULT:      -3.8      0.129      2.130
REMARK  Name = *****
REMARK                            x       y       z     vdW  Elec       q    Type
REMARK                         _______ _______ _______ _____ _____    ______ ____
ROOT
ATOM      1  C   LIG    1       31.238 -16.989  10.992  0.00  0.00    +0.096 C 
ATOM      2  N   LIG    1       30.676 -18.322  10.709  0.00  0.00    -0.314 NA
ATOM      3  H   LIG    1       31.358 -19.020  11.003  0.00  0.00    +0.122 HD
ATOM      4  C   LIG    1       30.491 -18.454   9.251  0.00  0.00    +0.096 C 
ATOM      5  C   LIG    1       31.790 -18.190   8.458  0.00  0.00    +0.096 C 
ATOM      6  N   LIG    1       32.378 -16.876   8.756  0.00  0.00    -0.314 NA
ATOM      7  H   LIG    1       33.286 -16.796   8.299  0.00  0.00    +0.122 HD
ATOM      8  C   LIG    1       32.536 -16.703  10.206  0.00  0.00    +0.096 C 
ENDROOT
TORSDOF 0
ENDMDL
MODEL 3
REMARK VINA RESULT:      -3.8      2.408      3.222
REMARK  Name = *****
REMARK                            x       y       z     vdW  Elec       q    Type
REMARK                         _______ _______ _______ _____ _____    ______ ____
ROOT
ATOM      1  C   LIG    1       30.093 -18.393   8.471  0.00  0.00    +0.096 C 
ATOM      2  N   LIG    1       29.142 -19.513   8.345  0.00  0.00    -0.314 NA
ATOM      3  H   LIG    1       28.749 -19.697   9.266  0.00  0.00    +0.122 HD
ATOM      4  C   LIG    1       29.887 -20.714   7.921  0.00  0.00    +0.096 C 
ATOM      5  C   LIG    1       31.062 -21.052   8.864  0.00  0.00    +0.096 C 
ATOM      6  N   LIG    1       32.000 -19.932   9.025  0.00  0.00    -0.314 NA
ATOM      7  H   LIG    1       32.690 -20.162   9.739  0.00  0.00    +0.122 HD
ATOM      8  C   LIG    1       31.278 -18.711   9.408  0.00  0.00    +0.096 C 
ENDROOT
TORSDOF 0
ENDMDL
MODEL 4
REMARK VINA RESULT:      -3.8      2.401      3.003
REMARK  Name = *****
REMARK                            x       y       z     vdW  Elec       q    Type
REMARK                         _______ _______ _______ _____ _____    ______ ____
ROOT
ATOM      1  C   LIG    1       31.271 -18.724   9.457  0.00  0.00    +0.096 C 
ATOM      2  N   LIG    1       32.022 -19.916   9.025  0.00  0.00    -0.314 NA
ATOM      3  H   LIG    1       32.420 -19.722   8.108  0.00  0.00    +0.122 HD
ATOM      4  C   LIG    1       31.077 -21.040   8.882  0.00  0.00    +0.096 C 
ATOM      5  C   LIG    1       29.904 -20.716   7.931  0.00  0.00    +0.096 C 
ATOM      6  N   LIG    1       29.167 -19.510   8.332  0.00  0.00    -0.314 NA
ATOM      7  H   LIG    1       28.479 -19.275   7.617  0.00  0.00    +0.122 HD
ATOM      8  C   LIG    1       30.090 -18.384   8.522  0.00  0.00    +0.096 C 
ENDROOT
TORSDOF 0
ENDMDL
MODEL 5
REMARK VINA RESULT:      -3.8      9.621     10.640
REMARK  Name = *****
REMARK                            x       y       z     vdW  Elec       q    Type
REMARK                         _______ _______ _______ _____ _____    ______ ____
ROOT
ATOM      1  C   LIG    1       24.018 -24.909   6.425  0.00  0.00    +0.096 C 
ATOM      2  N   LIG    1       22.791 -24.107   6.584  0.00  0.00    -0.314 NA
ATOM      3  H   LIG    1       22.290 -24.121   5.697  0.00  0.00    +0.122 HD
ATOM      4  C   LIG    1       23.177 -22.711   6.865  0.00  0.00    +0.096 C 
ATOM      5  C   LIG    1       24.121 -22.125   5.793  0.00  0.00    +0.096 C 
ATOM      6  N   LIG    1       25.333 -22.934   5.601  0.00  0.00    -0.314 NA
ATOM      7  H   LIG    1       25.865 -22.571   4.811  0.00  0.00    +0.122 HD
ATOM      8  C   LIG    1       24.978 -24.338   5.359  0.00  0.00    +0.096 C 
ENDROOT
TORSDOF 0
ENDMDL
MODEL 6
REMARK VINA RESULT:      -3.8      1.121      2.845
REMARK  Name = *****
REMARK                            x       y       z     vdW  Elec       q    Type
REMARK                         _______ _______ _______ _____ _____    ______ ____
ROOT
ATOM      1  C   LIG    1       30.270 -17.733  10.197  0.00  0.00    +0.096 C 
ATOM      2  N   LIG    1       30.483 -16.541  11.038  0.00  0.00    -0.314 NA
ATOM      3  H   LIG    1       29.972 -15.765  10.618  0.00  0.00    +0.122 HD
ATOM      4  C   LIG    1       31.918 -16.203  11.020  0.00  0.00    +0.096 C 
ATOM      5  C   LIG    1       32.469 -16.012   9.590  0.00  0.00    +0.096 C 
ATOM      6  N   LIG    1       32.234 -17.181   8.731  0.00  0.00    -0.314 NA
ATOM      7  H   LIG    1       32.511 -16.965   7.774  0.00  0.00    +0.122 HD
ATOM      8  C   LIG    1       30.816 -17.564   8.763  0.00  0.00    +0.096 C 
ENDROOT
TORSDOF 0
ENDMDL
MODEL 7
REMARK VINA RESULT:      -3.7      9.586     10.443
REMARK  Name = *****
REMARK                            x       y       z     vdW  Elec       q    Type
REMARK                         _______ _______ _______ _____ _____    ______ ____
ROOT
ATOM      1  C   LIG    1       24.991 -24.342   5.370  0.00  0.00    +0.096 C 
ATOM      2  N   LIG    1       25.377 -22.954   5.685  0.00  0.00    -0.314 NA
ATOM      3  H   LIG    1       25.855 -22.957   6.585  0.00  0.00    +0.122 HD
ATOM      4  C   LIG    1       24.151 -22.147   5.825  0.00  0.00    +0.096 C 
ATOM      5  C   LIG    1       23.168 -22.728   6.865  0.00  0.00    +0.096 C 
ATOM      6  N   LIG    1       22.801 -24.123   6.581  0.00  0.00    -0.314 NA
ATOM      7  H   LIG    1       22.246 -24.495   7.350  0.00  0.00    +0.122 HD
ATOM      8  C   LIG    1       24.006 -24.942   6.397  0.00  0.00    +0.096 C 
ENDROOT
TORSDOF 0
ENDMDL
MODEL 8
REMARK VINA RESULT:      -3.7      1.174      2.166
REMARK  Name = *****
REMARK                            x       y       z     vdW  Elec       q    Type
REMARK                         _______ _______ _______ _____ _____    ______ ____
ROOT
ATOM      1  C   LIG    1       30.747 -17.445   8.814  0.00  0.00    +0.096 C 
ATOM      2  N   LIG    1       32.192 -17.158   8.746  0.00  0.00    -0.314 NA
ATOM      3  H   LIG    1       32.689 -17.959   9.132  0.00  0.00    +0.122 HD
ATOM      4  C   LIG    1       32.479 -15.990   9.599  0.00  0.00    +0.096 C 
ATOM      5  C   LIG    1       31.991 -16.178  11.053  0.00  0.00    +0.096 C 
ATOM      6  N   LIG    1       30.558 -16.497  11.133  0.00  0.00    -0.314 NA
ATOM      7  H   LIG    1       30.311 -16.721  12.096  0.00  0.00    +0.122 HD
ATOM      8  C   LIG    1       30.237 -17.633  10.259  0.00  0.00    +0.096 C 
ENDROOT
TORSDOF 0
ENDMDL
MODEL 9
REMARK VINA RESULT:      -3.7      2.843      3.862
REMARK  Name = *****
REMARK                            x       y       z     vdW  Elec       q    Type
REMARK                         _______ _______ _______ _____ _____    ______ ____
ROOT
ATOM      1  C   LIG    1       29.897 -21.099   8.116  0.00  0.00    +0.096 C 
ATOM      2  N   LIG    1       29.893 -20.275   6.894  0.00  0.00    -0.314 NA
ATOM      3  H   LIG    1       30.579 -20.665   6.249  0.00  0.00    +0.122 HD
ATOM      4  C   LIG    1       30.327 -18.910   7.247  0.00  0.00    +0.096 C 
ATOM      5  C   LIG    1       31.696 -18.885   7.962  0.00  0.00    +0.096 C 
ATOM      6  N   LIG    1       31.724 -19.729   9.164  0.00  0.00    -0.314 NA
ATOM      7  H   LIG    1       32.673 -19.769   9.534  0.00  0.00    +0.122 HD
ATOM      8  C   LIG    1       31.257 -21.086   8.848  0.00  0.00    +0.096 C 
ENDROOT
TORSDOF 0
ENDMDL
