MODEL 1
REMARK VINA RESULT:      -4.7      0.000      0.000
REMARK  Name = *****
REMARK                            x       y       z     vdW  Elec       q    Type
REMARK                         _______ _______ _______ _____ _____    ______ ____
ROOT
ATOM      1  N   LIG    1       25.888 -18.666   4.298  0.00  0.00    -0.298 N 
ATOM      2  C   LIG    1       24.614 -19.308   4.445  0.00  0.00    +0.048 A 
ATOM      3  C   LIG    1       24.413 -20.367   5.354  0.00  0.00    +0.034 A 
ATOM      4  C   LIG    1       23.139 -20.949   5.542  0.00  0.00    +0.017 A 
ATOM      5  C   LIG    1       22.037 -20.508   4.823  0.00  0.00    +0.001 A 
ATOM      6  C   LIG    1       22.205 -19.496   3.900  0.00  0.00    +0.002 A 
ATOM      7  S   LIG    1       25.700 -21.102   6.325  0.00  0.00    -0.086 S 
ATOM      8  C   LIG    1       27.103 -20.092   5.930  0.00  0.00    +0.034 A 
ATOM      9  C   LIG    1       28.291 -20.460   6.599  0.00  0.00    +0.017 A 
ATOM     10  C   LIG    1       29.475 -19.758   6.399  0.00  0.00    +0.001 A 
ATOM     11  C   LIG    1       29.474 -18.681   5.540  0.00  0.00    +0.002 A 
ATOM     12  C   LIG    1       28.296 -18.314   4.871  0.00  0.00    +0.024 A 
ATOM     13  C   LIG    1       23.471 -18.913   3.711  0.00  0.00    +0.024 A 
ATOM     14  C   LIG    1       27.073 -19.013   5.028  0.00  0.00    +0.048 A 
ENDROOT
BRANCH   1  15
ATOM     15  C   LIG    1       25.993 -17.570   3.300  0.00  0.00    +0.115 C 
BRANCH  15  17
ATOM     16  C   LIG    1       24.415 -15.567   3.708  0.00  0.00    +0.010 C 
ATOM     17  C   LIG    1       25.818 -16.152   3.909  0.00  0.00    +0.018 C 
BRANCH  17  18
ATOM     18  C   LIG    1       26.902 -15.213   3.308  0.00  0.00    +0.088 C 
BRANCH  18  19
ATOM     19  N   LIG    1       27.644 -14.374   4.270  0.00  0.00    -0.308 NA
ATOM     20  C   LIG    1       26.708 -13.703   5.184  0.00  0.00    +0.104 C 
ATOM     21  C   LIG    1       28.478 -13.368   3.612  0.00  0.00    +0.104 C 
ENDBRANCH  18  19
ENDBRANCH  17  18
ENDBRANCH  15  17
ENDBRANCH   1  15
TORSDOF 4
ENDMDL
MODEL 2
REMARK VINA RESULT:      -4.5      0.768      4.255
REMARK  Name = *****
REMARK                            x       y       z     vdW  Elec       q    Type
REMARK                         _______ _______ _______ _____ _____    ______ ____
ROOT
ATOM      1  N   LIG    1       25.861 -19.243   4.504  0.00  0.00    -0.298 N 
ATOM      2  C   LIG    1       27.055 -19.479   5.263  0.00  0.00    +0.048 A 
ATOM      3  C   LIG    1       27.096 -20.414   6.318  0.00  0.00    +0.034 A 
ATOM      4  C   LIG    1       28.293 -20.690   7.016  0.00  0.00    +0.017 A 
ATOM      5  C   LIG    1       29.475 -20.036   6.699  0.00  0.00    +0.001 A 
ATOM      6  C   LIG    1       29.463 -19.090   5.693  0.00  0.00    +0.002 A 
ATOM      7  S   LIG    1       25.686 -21.312   6.905  0.00  0.00    -0.086 S 
ATOM      8  C   LIG    1       24.415 -20.815   5.772  0.00  0.00    +0.034 A 
ATOM      9  C   LIG    1       23.158 -21.413   6.010  0.00  0.00    +0.017 A 
ATOM     10  C   LIG    1       22.063 -21.129   5.202  0.00  0.00    +0.001 A 
ATOM     11  C   LIG    1       22.222 -20.257   4.147  0.00  0.00    +0.002 A 
ATOM     12  C   LIG    1       23.469 -19.659   3.909  0.00  0.00    +0.024 A 
ATOM     13  C   LIG    1       28.274 -18.813   4.995  0.00  0.00    +0.024 A 
ATOM     14  C   LIG    1       24.606 -19.901   4.720  0.00  0.00    +0.048 A 
ENDROOT
BRANCH   1  15
ATOM     15  C   LIG    1       25.926 -18.225   3.423  0.00  0.00    +0.115 C 
BRANCH  15  17
ATOM     16  C   LIG    1       24.342 -16.200   3.668  0.00  0.00    +0.010 C 
ATOM     17  C   LIG    1       25.744 -16.767   3.927  0.00  0.00    +0.018 C 
BRANCH  17  18
ATOM     18  C   LIG    1       26.834 -15.873   3.272  0.00  0.00    +0.088 C 
BRANCH  18  19
ATOM     19  N   LIG    1       26.722 -14.422   3.520  0.00  0.00    -0.308 NA
ATOM     20  C   LIG    1       26.343 -13.724   2.283  0.00  0.00    +0.104 C 
ATOM     21  C   LIG    1       27.963 -13.843   4.037  0.00  0.00    +0.104 C 
ENDBRANCH  18  19
ENDBRANCH  17  18
ENDBRANCH  15  17
ENDBRANCH   1  15
TORSDOF 4
ENDMDL
MODEL 3
REMARK VINA RESULT:      -2.3      1.918      5.927
REMARK  Name = *****
REMARK                            x       y       z     vdW  Elec       q    Type
REMARK                         _______ _______ _______ _____ _____    ______ ____
ROOT
ATOM      1  N   LIG    1       25.566 -17.526   3.766  0.00  0.00    -0.298 N 
ATOM      2  C   LIG    1       25.640 -16.099   3.636  0.00  0.00    +0.048 A 
ATOM      3  C   LIG    1       24.506 -15.277   3.796  0.00  0.00    +0.034 A 
ATOM      4  C   LIG    1       24.599 -13.868   3.732  0.00  0.00    +0.017 A 
ATOM      5  C   LIG    1       25.813 -13.240   3.493  0.00  0.00    +0.001 A 
ATOM      6  C   LIG    1       26.937 -14.017   3.298  0.00  0.00    +0.002 A 
ATOM      7  S   LIG    1       22.864 -15.887   4.059  0.00  0.00    -0.086 S 
ATOM      8  C   LIG    1       23.121 -17.637   4.184  0.00  0.00    +0.034 A 
ATOM      9  C   LIG    1       21.943 -18.382   4.417  0.00  0.00    +0.017 A 
ATOM     10  C   LIG    1       21.983 -19.766   4.546  0.00  0.00    +0.001 A 
ATOM     11  C   LIG    1       23.198 -20.410   4.456  0.00  0.00    +0.002 A 
ATOM     12  C   LIG    1       24.369 -19.673   4.222  0.00  0.00    +0.024 A 
ATOM     13  C   LIG    1       26.849 -15.419   3.361  0.00  0.00    +0.024 A 
ATOM     14  C   LIG    1       24.373 -18.264   4.061  0.00  0.00    +0.048 A 
ENDROOT
BRANCH   1  15
ATOM     15  C   LIG    1       26.820 -18.299   3.563  0.00  0.00    +0.115 C 
BRANCH  15  17
ATOM     16  C   LIG    1       29.060 -18.023   4.817  0.00  0.00    +0.010 C 
ATOM     17  C   LIG    1       27.620 -18.546   4.871  0.00  0.00    +0.018 C 
BRANCH  17  18
ATOM     18  C   LIG    1       27.594 -20.068   5.191  0.00  0.00    +0.088 C 
BRANCH  18  19
ATOM     19  N   LIG    1       27.491 -20.432   6.617  0.00  0.00    -0.308 NA
ATOM     20  C   LIG    1       28.728 -21.092   7.062  0.00  0.00    +0.104 C 
ATOM     21  C   LIG    1       26.353 -21.309   6.894  0.00  0.00    +0.104 C 
ENDBRANCH  18  19
ENDBRANCH  17  18
ENDBRANCH  15  17
ENDBRANCH   1  15
TORSDOF 4
ENDMDL
