MODEL 1
REMARK VINA RESULT:      -2.4      0.000      0.000
REMARK  Name = *****
REMARK                            x       y       z     vdW  Elec       q    Type
REMARK                         _______ _______ _______ _____ _____    ______ ____
ROOT
ATOM      1  N   LIG    1       24.303 -19.029   3.982  0.00  0.00    -0.298 N 
ATOM      2  C   LIG    1       25.075 -19.794   4.913  0.00  0.00    +0.049 A 
ATOM      3  C   LIG    1       24.502 -20.795   5.715  0.00  0.00    +0.034 A 
ATOM      4  C   LIG    1       25.288 -21.567   6.598  0.00  0.00    +0.018 A 
ATOM      5  C   LIG    1       26.657 -21.350   6.728  0.00  0.00    +0.018 A 
ATOM      6  C   LIG    1       27.253 -20.342   5.991  0.00  0.00    +0.040 A 
ATOM      7  S   LIG    1       22.778 -21.212   5.706  0.00  0.00    -0.086 S 
ATOM      8  C   LIG    1       22.102 -20.019   4.582  0.00  0.00    +0.034 A 
ATOM      9  C   LIG    1       20.697 -20.067   4.452  0.00  0.00    +0.017 A 
ATOM     10  C   LIG    1       20.028 -19.218   3.580  0.00  0.00    +0.001 A 
ATOM     11  C   LIG    1       20.759 -18.314   2.836  0.00  0.00    +0.002 A 
ATOM     12  C   LIG    1       22.156 -18.252   2.973  0.00  0.00    +0.024 A 
ATOM     13  C   LIG    1       26.466 -19.597   5.095  0.00  0.00    +0.041 A 
ATOM     14  C   LIG    1       22.878 -19.102   3.844  0.00  0.00    +0.048 A 
ENDROOT
BRANCH   6  15
ATOM     15  S   LIG    1       29.038 -20.077   6.128  0.00  0.00    +0.051 S 
ATOM     16  C   LIG    1       29.475 -21.570   7.062  0.00  0.00    +0.127 C 
ATOM     17  O   LIG    1       29.227 -18.914   7.054  0.00  0.00    -0.252 OA
ENDBRANCH   6  15
BRANCH   1  18
ATOM     18  C   LIG    1       25.037 -18.158   3.014  0.00  0.00    +0.112 C 
BRANCH  18  19
ATOM     19  C   LIG    1       25.742 -16.986   3.725  0.00  0.00    +0.038 C 
BRANCH  19  22
ATOM     20  C   LIG    1       27.520 -14.538   3.825  0.00  0.00    +0.105 C 
ATOM     21  N   LIG    1       26.546 -14.765   2.755  0.00  0.00    -0.302 NA
ATOM     22  C   LIG    1       25.382 -15.584   3.161  0.00  0.00    +0.058 C 
ATOM     23  C   LIG    1       24.468 -14.832   4.156  0.00  0.00    +0.019 C 
ATOM     24  C   LIG    1       24.063 -13.448   3.644  0.00  0.00    +0.003 C 
ATOM     25  C   LIG    1       25.267 -12.647   3.165  0.00  0.00    +0.015 C 
ATOM     26  C   LIG    1       26.115 -13.470   2.195  0.00  0.00    +0.084 C 
ENDBRANCH  19  22
ENDBRANCH  18  19
ENDBRANCH   1  18
TORSDOF 4
ENDMDL
MODEL 2
REMARK VINA RESULT:      -1.9      2.892      5.829
REMARK  Name = *****
REMARK                            x       y       z     vdW  Elec       q    Type
REMARK                         _______ _______ _______ _____ _____    ______ ____
ROOT
ATOM      1  N   LIG    1       24.677 -17.969   3.649  0.00  0.00    -0.298 N 
ATOM      2  C   LIG    1       24.611 -16.542   3.747  0.00  0.00    +0.049 A 
ATOM      3  C   LIG    1       23.484 -15.879   4.259  0.00  0.00    +0.034 A 
ATOM      4  C   LIG    1       23.454 -14.473   4.386  0.00  0.00    +0.018 A 
ATOM      5  C   LIG    1       24.531 -13.687   3.985  0.00  0.00    +0.018 A 
ATOM      6  C   LIG    1       25.642 -14.296   3.431  0.00  0.00    +0.040 A 
ATOM      7  S   LIG    1       22.011 -16.700   4.810  0.00  0.00    -0.086 S 
ATOM      8  C   LIG    1       22.356 -18.398   4.432  0.00  0.00    +0.034 A 
ATOM      9  C   LIG    1       21.288 -19.285   4.693  0.00  0.00    +0.017 A 
ATOM     10  C   LIG    1       21.423 -20.651   4.482  0.00  0.00    +0.001 A 
ATOM     11  C   LIG    1       22.624 -21.137   4.005  0.00  0.00    +0.002 A 
ATOM     12  C   LIG    1       23.684 -20.257   3.730  0.00  0.00    +0.024 A 
ATOM     13  C   LIG    1       25.671 -15.699   3.334  0.00  0.00    +0.041 A 
ATOM     14  C   LIG    1       23.593 -18.860   3.936  0.00  0.00    +0.048 A 
ENDROOT
BRANCH   6  15
ATOM     15  S   LIG    1       27.059 -13.283   2.940  0.00  0.00    +0.051 S 
ATOM     16  C   LIG    1       27.799 -13.019   4.575  0.00  0.00    +0.127 C 
ATOM     17  O   LIG    1       26.506 -11.965   2.494  0.00  0.00    -0.252 OA
ENDBRANCH   6  15
BRANCH   1  18
ATOM     18  C   LIG    1       25.996 -18.586   3.314  0.00  0.00    +0.112 C 
BRANCH  18  19
ATOM     19  C   LIG    1       26.208 -19.916   4.064  0.00  0.00    +0.038 C 
BRANCH  19  22
ATOM     20  C   LIG    1       26.485 -20.233   7.062  0.00  0.00    +0.105 C 
ATOM     21  N   LIG    1       27.474 -20.756   6.117  0.00  0.00    -0.302 NA
ATOM     22  C   LIG    1       27.549 -20.006   4.843  0.00  0.00    +0.058 C 
ATOM     23  C   LIG    1       28.140 -18.591   5.043  0.00  0.00    +0.019 C 
ATOM     24  C   LIG    1       29.475 -18.616   5.790  0.00  0.00    +0.003 C 
ATOM     25  C   LIG    1       29.396 -19.451   7.062  0.00  0.00    +0.015 C 
ATOM     26  C   LIG    1       28.794 -20.826   6.771  0.00  0.00    +0.084 C 
ENDBRANCH  19  22
ENDBRANCH  18  19
ENDBRANCH   1  18
TORSDOF 4
ENDMDL
MODEL 3
REMARK VINA RESULT:      -1.1      2.545      6.327
REMARK  Name = *****
REMARK                            x       y       z     vdW  Elec       q    Type
REMARK                         _______ _______ _______ _____ _____    ______ ____
ROOT
ATOM      1  N   LIG    1       25.534 -16.753   3.573  0.00  0.00    -0.298 N 
ATOM      2  C   LIG    1       24.243 -17.217   3.982  0.00  0.00    +0.049 A 
ATOM      3  C   LIG    1       23.187 -16.335   4.265  0.00  0.00    +0.034 A 
ATOM      4  C   LIG    1       21.909 -16.813   4.627  0.00  0.00    +0.018 A 
ATOM      5  C   LIG    1       21.651 -18.177   4.741  0.00  0.00    +0.018 A 
ATOM      6  C   LIG    1       22.677 -19.078   4.518  0.00  0.00    +0.040 A 
ATOM      7  S   LIG    1       23.318 -14.568   4.189  0.00  0.00    -0.086 S 
ATOM      8  C   LIG    1       25.033 -14.328   3.803  0.00  0.00    +0.034 A 
ATOM      9  C   LIG    1       25.442 -12.977   3.769  0.00  0.00    +0.017 A 
ATOM     10  C   LIG    1       26.747 -12.631   3.444  0.00  0.00    +0.001 A 
ATOM     11  C   LIG    1       27.651 -13.634   3.156  0.00  0.00    +0.002 A 
ATOM     12  C   LIG    1       27.252 -14.980   3.203  0.00  0.00    +0.024 A 
ATOM     13  C   LIG    1       23.938 -18.591   4.132  0.00  0.00    +0.041 A 
ATOM     14  C   LIG    1       25.932 -15.377   3.522  0.00  0.00    +0.048 A 
ENDROOT
BRANCH   6  15
ATOM     15  S   LIG    1       22.341 -20.853   4.631  0.00  0.00    +0.051 S 
ATOM     16  C   LIG    1       22.768 -21.112   6.375  0.00  0.00    +0.127 C 
ATOM     17  O   LIG    1       23.395 -21.539   3.817  0.00  0.00    -0.252 OA
ENDBRANCH   6  15
BRANCH   1  18
ATOM     18  C   LIG    1       26.514 -17.764   3.071  0.00  0.00    +0.112 C 
BRANCH  18  19
ATOM     19  C   LIG    1       26.325 -19.130   3.761  0.00  0.00    +0.038 C 
BRANCH  19  22
ATOM     20  C   LIG    1       26.188 -20.195   6.591  0.00  0.00    +0.105 C 
ATOM     21  N   LIG    1       27.222 -20.607   5.640  0.00  0.00    -0.302 NA
ATOM     22  C   LIG    1       27.539 -19.590   4.613  0.00  0.00    +0.058 C 
ATOM     23  C   LIG    1       28.256 -18.362   5.221  0.00  0.00    +0.019 C 
ATOM     24  C   LIG    1       29.475 -18.752   6.058  0.00  0.00    +0.003 C 
ATOM     25  C   LIG    1       29.145 -19.850   7.061  0.00  0.00    +0.015 C 
ATOM     26  C   LIG    1       28.434 -21.016   6.375  0.00  0.00    +0.084 C 
ENDBRANCH  19  22
ENDBRANCH  18  19
ENDBRANCH   1  18
TORSDOF 4
ENDMDL
