MODEL 1
REMARK VINA RESULT:      -8.0      0.000      0.000
REMARK  Name = *****
REMARK                            x       y       z     vdW  Elec       q    Type
REMARK                         _______ _______ _______ _____ _____    ______ ____
ROOT
ATOM      1  N   LIG    1       25.448 -19.955   4.878  0.00  0.00    -0.346 NA
ATOM      2  C   LIG    1       25.972 -20.345   6.133  0.00  0.00    +0.053 C 
ATOM      3  C   LIG    1       25.129 -20.965   7.075  0.00  0.00    +0.046 C 
ATOM      4  C   LIG    1       25.601 -21.369   8.328  0.00  0.00    +0.014 C 
ATOM      5  C   LIG    1       26.939 -21.171   8.666  0.00  0.00    +0.009 C 
ATOM      6  C   LIG    1       27.830 -20.558   7.771  0.00  0.00    -0.016 C 
ATOM      7  C   LIG    1       23.704 -21.207   6.742  0.00  0.00    +0.203 C 
ATOM      8  O   LIG    1       22.930 -21.726   7.544  0.00  0.00    -0.286 OA
ATOM      9  C   LIG    1       23.223 -20.811   5.404  0.00  0.00    +0.122 C 
ATOM     10  C   LIG    1       27.313 -20.149   6.517  0.00  0.00    +0.035 C 
ATOM     11  C   LIG    1       24.117 -20.233   4.589  0.00  0.00    +0.105 C 
ENDROOT
BRANCH   6  12
ATOM     12  C   LIG    1       29.259 -20.344   8.122  0.00  0.00    -0.015 C 
ATOM     13  C   LIG    1       30.082 -21.396   8.551  0.00  0.00    +0.028 C 
ATOM     14  C   LIG    1       31.409 -21.143   8.871  0.00  0.00    +0.111 C 
ATOM     15  N   LIG    1       31.979 -19.925   8.804  0.00  0.00    -0.263 NA
ATOM     16  C   LIG    1       31.188 -18.917   8.393  0.00  0.00    +0.111 C 
ATOM     17  C   LIG    1       29.855 -19.075   8.041  0.00  0.00    +0.028 C 
ENDBRANCH   6  12
BRANCH   1  19
ATOM     18  C   LIG    1       25.642 -18.025   3.346  0.00  0.00    +0.027 C 
ATOM     19  C   LIG    1       26.302 -19.290   3.876  0.00  0.00    +0.118 C 
ENDBRANCH   1  19
BRANCH   9  20
ATOM     20  C   LIG    1       21.837 -21.012   4.941  0.00  0.00    +0.342 C 
ATOM     21  O   LIG    1       21.209 -20.166   4.313  0.00  0.00    -0.245 OA
BRANCH  20  22
ATOM     22  O   LIG    1       21.300 -22.207   5.267  0.00  0.00    -0.477 OA
ATOM     23  H   LIG    1       21.803 -22.981   4.914  0.00  0.00    +0.295 HD
ENDBRANCH  20  22
ENDBRANCH   9  20
TORSDOF 4
ENDMDL
MODEL 2
REMARK VINA RESULT:      -7.1      1.724      3.077
REMARK  Name = *****
REMARK                            x       y       z     vdW  Elec       q    Type
REMARK                         _______ _______ _______ _____ _____    ______ ____
ROOT
ATOM      1  N   LIG    1       25.395 -22.176   6.529  0.00  0.00    -0.346 NA
ATOM      2  C   LIG    1       26.444 -21.244   6.354  0.00  0.00    +0.053 C 
ATOM      3  C   LIG    1       26.334 -20.253   5.360  0.00  0.00    +0.046 C 
ATOM      4  C   LIG    1       27.345 -19.309   5.149  0.00  0.00    +0.014 C 
ATOM      5  C   LIG    1       28.492 -19.327   5.942  0.00  0.00    +0.009 C 
ATOM      6  C   LIG    1       28.662 -20.290   6.949  0.00  0.00    -0.016 C 
ATOM      7  C   LIG    1       25.120 -20.193   4.510  0.00  0.00    +0.203 C 
ATOM      8  O   LIG    1       24.994 -19.358   3.616  0.00  0.00    -0.286 OA
ATOM      9  C   LIG    1       24.043 -21.170   4.762  0.00  0.00    +0.122 C 
ATOM     10  C   LIG    1       27.624 -21.238   7.124  0.00  0.00    +0.035 C 
ATOM     11  C   LIG    1       24.257 -22.064   5.738  0.00  0.00    +0.105 C 
ENDROOT
BRANCH   6  12
ATOM     12  C   LIG    1       29.880 -20.316   7.801  0.00  0.00    -0.015 C 
ATOM     13  C   LIG    1       30.624 -19.157   8.065  0.00  0.00    +0.028 C 
ATOM     14  C   LIG    1       31.757 -19.236   8.864  0.00  0.00    +0.111 C 
ATOM     15  N   LIG    1       32.213 -20.378   9.412  0.00  0.00    -0.263 NA
ATOM     16  C   LIG    1       31.498 -21.490   9.156  0.00  0.00    +0.111 C 
ATOM     17  C   LIG    1       30.347 -21.507   8.381  0.00  0.00    +0.028 C 
ENDBRANCH   6  12
BRANCH   1  19
ATOM     18  C   LIG    1       25.765 -24.590   6.916  0.00  0.00    +0.027 C 
ATOM     19  C   LIG    1       25.486 -23.235   7.551  0.00  0.00    +0.118 C 
ENDBRANCH   1  19
BRANCH   9  20
ATOM     20  C   LIG    1       22.778 -21.208   4.003  0.00  0.00    +0.342 C 
ATOM     21  O   LIG    1       21.689 -20.933   4.496  0.00  0.00    -0.245 OA
BRANCH  20  22
ATOM     22  O   LIG    1       22.907 -21.578   2.711  0.00  0.00    -0.477 OA
ATOM     23  H   LIG    1       22.055 -21.579   2.209  0.00  0.00    +0.295 HD
ENDBRANCH  20  22
ENDBRANCH   9  20
TORSDOF 4
ENDMDL
MODEL 3
REMARK VINA RESULT:      -6.6      7.989      9.796
REMARK  Name = *****
REMARK                            x       y       z     vdW  Elec       q    Type
REMARK                         _______ _______ _______ _____ _____    ______ ____
ROOT
ATOM      1  N   LIG    1       26.114 -29.431   8.632  0.00  0.00    -0.346 NA
ATOM      2  C   LIG    1       25.548 -28.683   7.573  0.00  0.00    +0.053 C 
ATOM      3  C   LIG    1       25.048 -29.354   6.441  0.00  0.00    +0.046 C 
ATOM      4  C   LIG    1       24.479 -28.659   5.368  0.00  0.00    +0.014 C 
ATOM      5  C   LIG    1       24.385 -27.268   5.410  0.00  0.00    +0.009 C 
ATOM      6  C   LIG    1       24.867 -26.542   6.509  0.00  0.00    -0.016 C 
ATOM      7  C   LIG    1       25.114 -30.834   6.371  0.00  0.00    +0.203 C 
ATOM      8  O   LIG    1       24.709 -31.457   5.392  0.00  0.00    -0.286 OA
ATOM      9  C   LIG    1       25.683 -31.562   7.522  0.00  0.00    +0.122 C 
ATOM     10  C   LIG    1       25.450 -27.278   7.570  0.00  0.00    +0.035 C 
ATOM     11  C   LIG    1       26.125 -30.818   8.546  0.00  0.00    +0.105 C 
ENDROOT
BRANCH   6  12
ATOM     12  C   LIG    1       24.771 -25.059   6.563  0.00  0.00    -0.015 C 
ATOM     13  C   LIG    1       25.912 -24.244   6.612  0.00  0.00    +0.028 C 
ATOM     14  C   LIG    1       25.768 -22.864   6.666  0.00  0.00    +0.111 C 
ATOM     15  N   LIG    1       24.579 -22.233   6.684  0.00  0.00    -0.263 NA
ATOM     16  C   LIG    1       23.485 -23.016   6.638  0.00  0.00    +0.111 C 
ATOM     17  C   LIG    1       23.530 -24.402   6.570  0.00  0.00    +0.028 C 
ENDBRANCH   6  12
BRANCH   1  19
ATOM     18  C   LIG    1       27.428 -29.734  10.705  0.00  0.00    +0.027 C 
ATOM     19  C   LIG    1       26.661 -28.757   9.825  0.00  0.00    +0.118 C 
ENDBRANCH   1  19
BRANCH   9  20
ATOM     20  C   LIG    1       25.791 -33.032   7.588  0.00  0.00    +0.342 C 
ATOM     21  O   LIG    1       25.469 -33.686   8.575  0.00  0.00    -0.245 OA
BRANCH  20  22
ATOM     22  O   LIG    1       26.281 -33.613   6.472  0.00  0.00    -0.477 OA
ATOM     23  H   LIG    1       25.964 -33.196   5.634  0.00  0.00    +0.295 HD
ENDBRANCH  20  22
ENDBRANCH   9  20
TORSDOF 4
ENDMDL
MODEL 4
REMARK VINA RESULT:      -6.3      3.581      7.030
REMARK  Name = *****
REMARK                            x       y       z     vdW  Elec       q    Type
REMARK                         _______ _______ _______ _____ _____    ______ ____
ROOT
ATOM      1  N   LIG    1       28.668 -19.654   6.369  0.00  0.00    -0.346 NA
ATOM      2  C   LIG    1       27.578 -20.455   6.784  0.00  0.00    +0.053 C 
ATOM      3  C   LIG    1       27.749 -21.363   7.846  0.00  0.00    +0.046 C 
ATOM      4  C   LIG    1       26.701 -22.176   8.292  0.00  0.00    +0.014 C 
ATOM      5  C   LIG    1       25.447 -22.089   7.689  0.00  0.00    +0.009 C 
ATOM      6  C   LIG    1       25.213 -21.204   6.625  0.00  0.00    -0.016 C 
ATOM      7  C   LIG    1       29.065 -21.468   8.522  0.00  0.00    +0.203 C 
ATOM      8  O   LIG    1       29.262 -22.263   9.439  0.00  0.00    -0.286 OA
ATOM      9  C   LIG    1       30.155 -20.582   8.069  0.00  0.00    +0.122 C 
ATOM     10  C   LIG    1       26.301 -20.408   6.191  0.00  0.00    +0.035 C 
ATOM     11  C   LIG    1       29.875 -19.755   7.052  0.00  0.00    +0.105 C 
ENDROOT
BRANCH   6  12
ATOM     12  C   LIG    1       23.879 -21.104   5.977  0.00  0.00    -0.015 C 
ATOM     13  C   LIG    1       22.944 -22.148   6.040  0.00  0.00    +0.028 C 
ATOM     14  C   LIG    1       21.713 -22.006   5.414  0.00  0.00    +0.111 C 
ATOM     15  N   LIG    1       21.343 -20.911   4.724  0.00  0.00    -0.263 NA
ATOM     16  C   LIG    1       22.241 -19.910   4.664  0.00  0.00    +0.111 C 
ATOM     17  C   LIG    1       23.490 -19.956   5.268  0.00  0.00    +0.028 C 
ENDBRANCH   6  12
BRANCH   1  19
ATOM     18  C   LIG    1       29.846 -18.010   4.947  0.00  0.00    +0.027 C 
ATOM     19  C   LIG    1       28.526 -18.704   5.249  0.00  0.00    +0.118 C 
ENDBRANCH   1  19
BRANCH   9  20
ATOM     20  C   LIG    1       31.504 -20.573   8.667  0.00  0.00    +0.342 C 
ATOM     21  O   LIG    1       32.046 -19.556   9.086  0.00  0.00    -0.245 OA
BRANCH  20  22
ATOM     22  O   LIG    1       32.108 -21.779   8.715  0.00  0.00    -0.477 OA
ATOM     23  H   LIG    1       32.402 -22.114   7.833  0.00  0.00    +0.295 HD
ENDBRANCH  20  22
ENDBRANCH   9  20
TORSDOF 4
ENDMDL
MODEL 5
REMARK VINA RESULT:      -6.1     10.247     12.457
REMARK  Name = *****
REMARK                            x       y       z     vdW  Elec       q    Type
REMARK                         _______ _______ _______ _____ _____    ______ ____
ROOT
ATOM      1  N   LIG    1       23.890 -29.756  11.789  0.00  0.00    -0.346 NA
ATOM      2  C   LIG    1       23.335 -28.662  12.494  0.00  0.00    +0.053 C 
ATOM      3  C   LIG    1       24.173 -27.612  12.917  0.00  0.00    +0.046 C 
ATOM      4  C   LIG    1       23.673 -26.510  13.617  0.00  0.00    +0.014 C 
ATOM      5  C   LIG    1       22.310 -26.425  13.900  0.00  0.00    +0.009 C 
ATOM      6  C   LIG    1       21.423 -27.439  13.508  0.00  0.00    -0.016 C 
ATOM      7  C   LIG    1       25.625 -27.661  12.616  0.00  0.00    +0.203 C 
ATOM      8  O   LIG    1       26.395 -26.777  12.985  0.00  0.00    -0.286 OA
ATOM      9  C   LIG    1       26.140 -28.810  11.846  0.00  0.00    +0.122 C 
ATOM     10  C   LIG    1       21.968 -28.547  12.814  0.00  0.00    +0.035 C 
ATOM     11  C   LIG    1       25.248 -29.748  11.494  0.00  0.00    +0.105 C 
ENDROOT
BRANCH   6  12
ATOM     12  C   LIG    1       19.968 -27.357  13.804  0.00  0.00    -0.015 C 
ATOM     13  C   LIG    1       19.254 -26.156  13.680  0.00  0.00    +0.028 C 
ATOM     14  C   LIG    1       17.897 -26.131  13.974  0.00  0.00    +0.111 C 
ATOM     15  N   LIG    1       17.198 -27.205  14.389  0.00  0.00    -0.263 NA
ATOM     16  C   LIG    1       17.886 -28.356  14.508  0.00  0.00    +0.111 C 
ATOM     17  C   LIG    1       19.239 -28.480  14.226  0.00  0.00    +0.028 C 
ENDBRANCH   6  12
BRANCH   1  19
ATOM     18  C   LIG    1       22.817 -30.837   9.841  0.00  0.00    +0.027 C 
ATOM     19  C   LIG    1       23.041 -30.878  11.346  0.00  0.00    +0.118 C 
ENDBRANCH   1  19
BRANCH   9  20
ATOM     20  C   LIG    1       27.556 -28.971  11.465  0.00  0.00    +0.342 C 
ATOM     21  O   LIG    1       27.915 -29.350  10.355  0.00  0.00    -0.245 OA
BRANCH  20  22
ATOM     22  O   LIG    1       28.441 -28.674  12.441  0.00  0.00    -0.477 OA
ATOM     23  H   LIG    1       28.952 -27.845  12.276  0.00  0.00    +0.295 HD
ENDBRANCH  20  22
ENDBRANCH   9  20
TORSDOF 4
ENDMDL
MODEL 6
REMARK VINA RESULT:      -6.1      4.812      6.356
REMARK  Name = *****
REMARK                            x       y       z     vdW  Elec       q    Type
REMARK                         _______ _______ _______ _____ _____    ______ ____
ROOT
ATOM      1  N   LIG    1       25.585 -22.192   7.024  0.00  0.00    -0.346 NA
ATOM      2  C   LIG    1       25.323 -23.447   6.427  0.00  0.00    +0.053 C 
ATOM      3  C   LIG    1       24.837 -23.500   5.107  0.00  0.00    +0.046 C 
ATOM      4  C   LIG    1       24.563 -24.717   4.474  0.00  0.00    +0.014 C 
ATOM      5  C   LIG    1       24.783 -25.918   5.147  0.00  0.00    +0.009 C 
ATOM      6  C   LIG    1       25.266 -25.933   6.465  0.00  0.00    -0.016 C 
ATOM      7  C   LIG    1       24.608 -22.242   4.355  0.00  0.00    +0.203 C 
ATOM      8  O   LIG    1       24.164 -22.243   3.208  0.00  0.00    -0.286 OA
ATOM      9  C   LIG    1       24.933 -20.964   5.017  0.00  0.00    +0.122 C 
ATOM     10  C   LIG    1       25.518 -24.681   7.079  0.00  0.00    +0.035 C 
ATOM     11  C   LIG    1       25.393 -21.037   6.274  0.00  0.00    +0.105 C 
ENDROOT
BRANCH   6  12
ATOM     12  C   LIG    1       25.505 -27.208   7.190  0.00  0.00    -0.015 C 
ATOM     13  C   LIG    1       24.870 -28.402   6.818  0.00  0.00    +0.028 C 
ATOM     14  C   LIG    1       25.125 -29.566   7.532  0.00  0.00    +0.111 C 
ATOM     15  N   LIG    1       25.954 -29.633   8.591  0.00  0.00    -0.263 NA
ATOM     16  C   LIG    1       26.561 -28.486   8.946  0.00  0.00    +0.111 C 
ATOM     17  C   LIG    1       26.379 -27.278   8.287  0.00  0.00    +0.028 C 
ENDBRANCH   6  12
BRANCH   1  19
ATOM     18  C   LIG    1       26.072 -20.663   8.906  0.00  0.00    +0.027 C 
ATOM     19  C   LIG    1       26.080 -22.103   8.411  0.00  0.00    +0.118 C 
ENDBRANCH   1  19
BRANCH   9  20
ATOM     20  C   LIG    1       24.770 -19.645   4.375  0.00  0.00    +0.342 C 
ATOM     21  O   LIG    1       23.683 -19.094   4.239  0.00  0.00    -0.245 OA
BRANCH  20  22
ATOM     22  O   LIG    1       25.918 -19.085   3.938  0.00  0.00    -0.477 OA
ATOM     23  H   LIG    1       26.732 -19.557   4.237  0.00  0.00    +0.295 HD
ENDBRANCH  20  22
ENDBRANCH   9  20
TORSDOF 4
ENDMDL
MODEL 7
REMARK VINA RESULT:      -6.1      6.375      7.868
REMARK  Name = *****
REMARK                            x       y       z     vdW  Elec       q    Type
REMARK                         _______ _______ _______ _____ _____    ______ ____
ROOT
ATOM      1  N   LIG    1       25.898 -28.052   7.849  0.00  0.00    -0.346 NA
ATOM      2  C   LIG    1       25.547 -26.934   7.056  0.00  0.00    +0.053 C 
ATOM      3  C   LIG    1       24.908 -27.135   5.818  0.00  0.00    +0.046 C 
ATOM      4  C   LIG    1       24.541 -26.061   4.999  0.00  0.00    +0.014 C 
ATOM      5  C   LIG    1       24.796 -24.753   5.409  0.00  0.00    +0.009 C 
ATOM      6  C   LIG    1       25.431 -24.487   6.632  0.00  0.00    -0.016 C 
ATOM      7  C   LIG    1       24.605 -28.512   5.359  0.00  0.00    +0.203 C 
ATOM      8  O   LIG    1       24.068 -28.732   4.276  0.00  0.00    -0.286 OA
ATOM      9  C   LIG    1       24.963 -29.637   6.245  0.00  0.00    +0.122 C 
ATOM     10  C   LIG    1       25.801 -25.599   7.428  0.00  0.00    +0.035 C 
ATOM     11  C   LIG    1       25.565 -29.325   7.402  0.00  0.00    +0.105 C 
ENDROOT
BRANCH   6  12
ATOM     12  C   LIG    1       25.706 -23.096   7.078  0.00  0.00    -0.015 C 
ATOM     13  C   LIG    1       27.013 -22.600   7.196  0.00  0.00    +0.028 C 
ATOM     14  C   LIG    1       27.216 -21.294   7.621  0.00  0.00    +0.111 C 
ATOM     15  N   LIG    1       26.222 -20.446   7.947  0.00  0.00    -0.263 NA
ATOM     16  C   LIG    1       24.969 -20.924   7.834  0.00  0.00    +0.111 C 
ATOM     17  C   LIG    1       24.667 -22.210   7.406  0.00  0.00    +0.028 C 
ENDBRANCH   6  12
BRANCH   1  19
ATOM     18  C   LIG    1       26.593 -29.172   9.941  0.00  0.00    +0.027 C 
ATOM     19  C   LIG    1       26.583 -27.876   9.144  0.00  0.00    +0.118 C 
ENDBRANCH   1  19
BRANCH   9  20
ATOM     20  C   LIG    1       24.701 -31.052   5.917  0.00  0.00    +0.342 C 
ATOM     21  O   LIG    1       25.528 -31.781   5.381  0.00  0.00    -0.245 OA
BRANCH  20  22
ATOM     22  O   LIG    1       23.468 -31.489   6.249  0.00  0.00    -0.477 OA
ATOM     23  H   LIG    1       23.415 -31.888   7.151  0.00  0.00    +0.295 HD
ENDBRANCH  20  22
ENDBRANCH   9  20
TORSDOF 4
ENDMDL
MODEL 8
REMARK VINA RESULT:      -5.9      9.748     12.307
REMARK  Name = *****
REMARK                            x       y       z     vdW  Elec       q    Type
REMARK                         _______ _______ _______ _____ _____    ______ ____
ROOT
ATOM      1  N   LIG    1       25.055 -27.662  12.732  0.00  0.00    -0.346 NA
ATOM      2  C   LIG    1       23.796 -28.271  12.522  0.00  0.00    +0.053 C 
ATOM      3  C   LIG    1       23.697 -29.377  11.657  0.00  0.00    +0.046 C 
ATOM      4  C   LIG    1       22.474 -30.014  11.417  0.00  0.00    +0.014 C 
ATOM      5  C   LIG    1       21.318 -29.563  12.052  0.00  0.00    +0.009 C 
ATOM      6  C   LIG    1       21.350 -28.465  12.924  0.00  0.00    -0.016 C 
ATOM      7  C   LIG    1       24.910 -29.895  10.979  0.00  0.00    +0.203 C 
ATOM      8  O   LIG    1       24.864 -30.844  10.200  0.00  0.00    -0.286 OA
ATOM      9  C   LIG    1       26.202 -29.240  11.266  0.00  0.00    +0.122 C 
ATOM     10  C   LIG    1       22.603 -27.836  13.132  0.00  0.00    +0.035 C 
ATOM     11  C   LIG    1       26.175 -28.198  12.109  0.00  0.00    +0.105 C 
ENDROOT
BRANCH   6  12
ATOM     12  C   LIG    1       20.122 -27.978  13.607  0.00  0.00    -0.015 C 
ATOM     13  C   LIG    1       19.298 -28.836  14.350  0.00  0.00    +0.028 C 
ATOM     14  C   LIG    1       18.160 -28.332  14.965  0.00  0.00    +0.111 C 
ATOM     15  N   LIG    1       17.773 -27.044  14.891  0.00  0.00    -0.263 NA
ATOM     16  C   LIG    1       18.564 -26.223  14.177  0.00  0.00    +0.111 C 
ATOM     17  C   LIG    1       19.727 -26.632  13.538  0.00  0.00    +0.028 C 
ENDBRANCH   6  12
BRANCH   1  19
ATOM     18  C   LIG    1       26.316 -25.578  13.160  0.00  0.00    +0.027 C 
ATOM     19  C   LIG    1       25.189 -26.491  13.621  0.00  0.00    +0.118 C 
ENDBRANCH   1  19
BRANCH   9  20
ATOM     20  C   LIG    1       27.484 -29.667  10.673  0.00  0.00    +0.342 C 
ATOM     21  O   LIG    1       28.512 -29.812  11.327  0.00  0.00    -0.245 OA
BRANCH  20  22
ATOM     22  O   LIG    1       27.447 -29.883   9.341  0.00  0.00    -0.477 OA
ATOM     23  H   LIG    1       28.295 -30.226   8.968  0.00  0.00    +0.295 HD
ENDBRANCH  20  22
ENDBRANCH   9  20
TORSDOF 4
ENDMDL
MODEL 9
REMARK VINA RESULT:      -5.7      9.604     10.619
REMARK  Name = *****
REMARK                            x       y       z     vdW  Elec       q    Type
REMARK                         _______ _______ _______ _____ _____    ______ ____
ROOT
ATOM      1  N   LIG    1       25.028 -29.714   6.216  0.00  0.00    -0.346 NA
ATOM      2  C   LIG    1       25.540 -30.104   7.476  0.00  0.00    +0.053 C 
ATOM      3  C   LIG    1       26.151 -31.364   7.616  0.00  0.00    +0.046 C 
ATOM      4  C   LIG    1       26.672 -31.796   8.840  0.00  0.00    +0.014 C 
ATOM      5  C   LIG    1       26.604 -30.964   9.958  0.00  0.00    +0.009 C 
ATOM      6  C   LIG    1       26.006 -29.696   9.884  0.00  0.00    -0.016 C 
ATOM      7  C   LIG    1       26.256 -32.267   6.444  0.00  0.00    +0.203 C 
ATOM      8  O   LIG    1       26.763 -33.384   6.528  0.00  0.00    -0.286 OA
ATOM      9  C   LIG    1       25.737 -31.791   5.147  0.00  0.00    +0.122 C 
ATOM     10  C   LIG    1       25.477 -29.300   8.631  0.00  0.00    +0.035 C 
ATOM     11  C   LIG    1       25.179 -30.571   5.133  0.00  0.00    +0.105 C 
ENDROOT
BRANCH   6  12
ATOM     12  C   LIG    1       25.930 -28.802  11.069  0.00  0.00    -0.015 C 
ATOM     13  C   LIG    1       26.892 -27.810  11.311  0.00  0.00    +0.028 C 
ATOM     14  C   LIG    1       26.778 -27.003  12.435  0.00  0.00    +0.111 C 
ATOM     15  N   LIG    1       25.788 -27.112  13.341  0.00  0.00    -0.263 NA
ATOM     16  C   LIG    1       24.867 -28.065  13.108  0.00  0.00    +0.111 C 
ATOM     17  C   LIG    1       24.891 -28.910  12.006  0.00  0.00    +0.028 C 
ENDBRANCH   6  12
BRANCH   1  19
ATOM     18  C   LIG    1       25.290 -27.415   5.343  0.00  0.00    +0.027 C 
ATOM     19  C   LIG    1       24.368 -28.406   6.040  0.00  0.00    +0.118 C 
ENDBRANCH   1  19
BRANCH   9  20
ATOM     20  C   LIG    1       25.796 -32.580   3.902  0.00  0.00    +0.342 C 
ATOM     21  O   LIG    1       26.837 -32.793   3.289  0.00  0.00    -0.245 OA
BRANCH  20  22
ATOM     22  O   LIG    1       24.605 -33.053   3.476  0.00  0.00    -0.477 OA
ATOM     23  H   LIG    1       24.643 -33.494   2.593  0.00  0.00    +0.295 HD
ENDBRANCH  20  22
ENDBRANCH   9  20
TORSDOF 4
ENDMDL
