MODEL 1
REMARK VINA RESULT:     -10.2      0.000      0.000
REMARK  Name = *****
REMARK                            x       y       z     vdW  Elec       q    Type
REMARK                         _______ _______ _______ _____ _____    ______ ____
ROOT
ATOM      1  C   LIG    1       24.508 -25.553   6.132  0.00  0.00    -0.046 A 
ATOM      2  C   LIG    1       23.290 -24.937   6.479  0.00  0.00    +0.005 A 
ATOM      3  C   LIG    1       23.224 -23.560   6.740  0.00  0.00    +0.029 A 
ATOM      4  C   LIG    1       24.378 -22.780   6.605  0.00  0.00    +0.113 A 
ATOM      5  C   LIG    1       25.594 -23.378   6.274  0.00  0.00    +0.029 A 
ATOM      6  C   LIG    1       25.650 -24.750   6.022  0.00  0.00    +0.005 A 
ENDROOT
BRANCH   4   7
ATOM      7  S   LIG    1       24.281 -20.998   6.753  0.00  0.00    +0.103 S 
ATOM      8  O   LIG    1       23.567 -20.718   8.001  0.00  0.00    -0.146 OA
ATOM      9  O   LIG    1       23.772 -20.510   5.497  0.00  0.00    -0.146 OA
BRANCH   7  10
ATOM     10  N   LIG    1       25.808 -20.524   6.932  0.00  0.00    -0.076 NA
ATOM     11  C   LIG    1       26.472 -20.505   8.025  0.00  0.00    +0.299 C 
BRANCH  11  12
ATOM     12  N   LIG    1       27.774 -20.160   8.125  0.00  0.00    -0.295 N 
ATOM     13  H   LIG    1       27.960 -19.231   8.484  0.00  0.00    +0.151 HD
BRANCH  12  14
ATOM     14  C   LIG    1       28.831 -20.825   7.375  0.00  0.00    +0.075 C 
ATOM     15  C   LIG    1       29.245 -20.018   6.133  0.00  0.00    +0.022 C 
ATOM     16  C   LIG    1       30.031 -18.752   6.469  0.00  0.00    +0.002 C 
ATOM     17  C   LIG    1       31.231 -19.056   7.360  0.00  0.00    +0.000 C 
ATOM     18  C   LIG    1       30.833 -19.826   8.614  0.00  0.00    +0.002 C 
ATOM     19  C   LIG    1       30.029 -21.085   8.290  0.00  0.00    +0.022 C 
ENDBRANCH  12  14
ENDBRANCH  11  12
BRANCH  11  20
ATOM     20  O   LIG    1       25.987 -20.789   9.253  0.00  0.00    -0.481 OA
ATOM     21  H   LIG    1       25.018 -20.908   9.252  0.00  0.00    +0.295 HD
ENDBRANCH  11  20
ENDBRANCH   7  10
ENDBRANCH   4   7
BRANCH   1  22
ATOM     22  C   LIG    1       24.540 -27.035   5.803  0.00  0.00    +0.054 C 
BRANCH  22  23
ATOM     23  C   LIG    1       24.783 -28.011   6.974  0.00  0.00    +0.109 C 
BRANCH  23  25
ATOM     24  C   LIG    1       24.897 -30.388   6.218  0.00  0.00    +0.248 C 
ATOM     25  N   LIG    1       25.511 -29.208   6.581  0.00  0.00    -0.311 N 
ATOM     26  H   LIG    1       26.521 -29.205   6.641  0.00  0.00    +0.149 HD
ATOM     27  O   LIG    1       23.681 -30.546   6.253  0.00  0.00    -0.270 OA
BRANCH  24  29
ATOM     28  C   LIG    1       26.681 -32.193   6.657  0.00  0.00    +0.132 A 
ATOM     29  C   LIG    1       25.788 -31.523   5.794  0.00  0.00    +0.080 A 
ATOM     30  C   LIG    1       25.731 -31.907   4.438  0.00  0.00    +0.036 A 
ATOM     31  C   LIG    1       26.576 -32.903   3.948  0.00  0.00    +0.042 A 
ATOM     32 CL   LIG    1       26.483 -33.404   2.306  0.00  0.00    -0.084 Cl
ATOM     33  C   LIG    1       27.506 -33.509   4.781  0.00  0.00    +0.023 A 
ATOM     34  C   LIG    1       27.559 -33.149   6.125  0.00  0.00    +0.048 A 
BRANCH  28  36
ATOM     35  C   LIG    1       26.033 -32.720   8.897  0.00  0.00    +0.277 C 
ATOM     36  O   LIG    1       26.708 -31.855   7.983  0.00  0.00    -0.494 OA
ENDBRANCH  28  36
ENDBRANCH  24  29
ENDBRANCH  23  25
ENDBRANCH  22  23
ENDBRANCH   1  22
TORSDOF 10
ENDMDL
MODEL 2
REMARK VINA RESULT:      -9.7      1.492      2.239
REMARK  Name = *****
REMARK                            x       y       z     vdW  Elec       q    Type
REMARK                         _______ _______ _______ _____ _____    ______ ____
ROOT
ATOM      1  C   LIG    1       24.490 -25.524   6.378  0.00  0.00    -0.046 A 
ATOM      2  C   LIG    1       25.674 -24.764   6.313  0.00  0.00    +0.005 A 
ATOM      3  C   LIG    1       25.636 -23.361   6.353  0.00  0.00    +0.029 A 
ATOM      4  C   LIG    1       24.406 -22.712   6.508  0.00  0.00    +0.113 A 
ATOM      5  C   LIG    1       23.225 -23.451   6.561  0.00  0.00    +0.029 A 
ATOM      6  C   LIG    1       23.271 -24.846   6.514  0.00  0.00    +0.005 A 
ENDROOT
BRANCH   4   7
ATOM      7  S   LIG    1       24.351 -20.938   6.745  0.00  0.00    +0.103 S 
ATOM      8  O   LIG    1       23.626 -20.702   7.996  0.00  0.00    -0.146 OA
ATOM      9  O   LIG    1       23.870 -20.376   5.508  0.00  0.00    -0.146 OA
BRANCH   7  10
ATOM     10  N   LIG    1       25.885 -20.512   6.966  0.00  0.00    -0.076 NA
ATOM     11  C   LIG    1       26.519 -20.514   8.077  0.00  0.00    +0.299 C 
BRANCH  11  12
ATOM     12  N   LIG    1       27.829 -20.209   8.213  0.00  0.00    -0.295 N 
ATOM     13  H   LIG    1       28.033 -19.302   8.613  0.00  0.00    +0.151 HD
BRANCH  12  14
ATOM     14  C   LIG    1       28.881 -20.873   7.454  0.00  0.00    +0.075 C 
ATOM     15  C   LIG    1       29.267 -20.077   6.197  0.00  0.00    +0.022 C 
ATOM     16  C   LIG    1       30.046 -18.799   6.506  0.00  0.00    +0.002 C 
ATOM     17  C   LIG    1       31.263 -19.081   7.382  0.00  0.00    +0.000 C 
ATOM     18  C   LIG    1       30.892 -19.841   8.651  0.00  0.00    +0.002 C 
ATOM     19  C   LIG    1       30.095 -21.111   8.354  0.00  0.00    +0.022 C 
ENDBRANCH  12  14
ENDBRANCH  11  12
BRANCH  11  20
ATOM     20  O   LIG    1       25.993 -20.783   9.290  0.00  0.00    -0.481 OA
ATOM     21  H   LIG    1       26.640 -21.195   9.894  0.00  0.00    +0.295 HD
ENDBRANCH  11  20
ENDBRANCH   7  10
ENDBRANCH   4   7
BRANCH   1  22
ATOM     22  C   LIG    1       24.563 -27.041   6.386  0.00  0.00    +0.054 C 
BRANCH  22  23
ATOM     23  C   LIG    1       25.083 -27.728   5.106  0.00  0.00    +0.109 C 
BRANCH  23  25
ATOM     24  C   LIG    1       25.021 -30.134   5.768  0.00  0.00    +0.248 C 
ATOM     25  N   LIG    1       25.713 -29.014   5.360  0.00  0.00    -0.311 N 
ATOM     26  H   LIG    1       26.721 -29.082   5.305  0.00  0.00    +0.149 HD
ATOM     27  O   LIG    1       23.817 -30.124   6.009  0.00  0.00    -0.270 OA
BRANCH  24  29
ATOM     28  C   LIG    1       26.177 -32.261   4.889  0.00  0.00    +0.132 A 
ATOM     29  C   LIG    1       25.810 -31.402   5.946  0.00  0.00    +0.080 A 
ATOM     30  C   LIG    1       26.169 -31.750   7.265  0.00  0.00    +0.036 A 
ATOM     31  C   LIG    1       26.839 -32.947   7.524  0.00  0.00    +0.042 A 
ATOM     32 CL   LIG    1       27.317 -33.357   9.124  0.00  0.00    -0.084 Cl
ATOM     33  C   LIG    1       27.134 -33.825   6.491  0.00  0.00    +0.023 A 
ATOM     34  C   LIG    1       26.798 -33.484   5.184  0.00  0.00    +0.048 A 
BRANCH  28  36
ATOM     35  C   LIG    1       25.861 -32.940   2.618  0.00  0.00    +0.277 C 
ATOM     36  O   LIG    1       25.870 -31.906   3.603  0.00  0.00    -0.494 OA
ENDBRANCH  28  36
ENDBRANCH  24  29
ENDBRANCH  23  25
ENDBRANCH  22  23
ENDBRANCH   1  22
TORSDOF 10
ENDMDL
MODEL 3
REMARK VINA RESULT:      -9.7      2.801      3.507
REMARK  Name = *****
REMARK                            x       y       z     vdW  Elec       q    Type
REMARK                         _______ _______ _______ _____ _____    ______ ____
ROOT
ATOM      1  C   LIG    1       24.317 -25.411   6.028  0.00  0.00    -0.046 A 
ATOM      2  C   LIG    1       23.153 -24.766   6.490  0.00  0.00    +0.005 A 
ATOM      3  C   LIG    1       23.152 -23.392   6.778  0.00  0.00    +0.029 A 
ATOM      4  C   LIG    1       24.314 -22.644   6.554  0.00  0.00    +0.113 A 
ATOM      5  C   LIG    1       25.477 -23.272   6.109  0.00  0.00    +0.029 A 
ATOM      6  C   LIG    1       25.470 -24.640   5.832  0.00  0.00    +0.005 A 
ENDROOT
BRANCH   4   7
ATOM      7  S   LIG    1       24.285 -20.864   6.738  0.00  0.00    +0.103 S 
ATOM      8  O   LIG    1       23.571 -20.580   7.985  0.00  0.00    -0.146 OA
ATOM      9  O   LIG    1       23.806 -20.330   5.488  0.00  0.00    -0.146 OA
BRANCH   7  10
ATOM     10  N   LIG    1       25.827 -20.453   6.939  0.00  0.00    -0.076 NA
ATOM     11  C   LIG    1       26.480 -20.476   8.039  0.00  0.00    +0.299 C 
BRANCH  11  12
ATOM     12  N   LIG    1       27.794 -20.184   8.157  0.00  0.00    -0.295 N 
ATOM     13  H   LIG    1       28.013 -19.282   8.561  0.00  0.00    +0.151 HD
BRANCH  12  14
ATOM     14  C   LIG    1       28.828 -20.851   7.376  0.00  0.00    +0.075 C 
ATOM     15  C   LIG    1       29.235 -20.025   6.145  0.00  0.00    +0.022 C 
ATOM     16  C   LIG    1       30.048 -18.779   6.494  0.00  0.00    +0.002 C 
ATOM     17  C   LIG    1       31.256 -19.121   7.359  0.00  0.00    +0.000 C 
ATOM     18  C   LIG    1       30.866 -19.912   8.603  0.00  0.00    +0.002 C 
ATOM     19  C   LIG    1       30.036 -21.150   8.266  0.00  0.00    +0.022 C 
ENDBRANCH  12  14
ENDBRANCH  11  12
BRANCH  11  20
ATOM     20  O   LIG    1       25.972 -20.759   9.257  0.00  0.00    -0.481 OA
ATOM     21  H   LIG    1       25.797 -19.955   9.783  0.00  0.00    +0.295 HD
ENDBRANCH  11  20
ENDBRANCH   7  10
ENDBRANCH   4   7
BRANCH   1  22
ATOM     22  C   LIG    1       24.275 -26.887   5.675  0.00  0.00    +0.054 C 
BRANCH  22  23
ATOM     23  C   LIG    1       25.540 -27.719   5.975  0.00  0.00    +0.109 C 
BRANCH  23  25
ATOM     24  C   LIG    1       25.321 -29.351   7.852  0.00  0.00    +0.248 C 
ATOM     25  N   LIG    1       25.656 -28.102   7.374  0.00  0.00    -0.311 N 
ATOM     26  H   LIG    1       25.929 -27.400   8.049  0.00  0.00    +0.149 HD
ATOM     27  O   LIG    1       24.840 -30.229   7.144  0.00  0.00    -0.270 OA
BRANCH  24  29
ATOM     28  C   LIG    1       24.513 -29.941  10.225  0.00  0.00    +0.132 A 
ATOM     29  C   LIG    1       25.540 -29.606   9.318  0.00  0.00    +0.080 A 
ATOM     30  C   LIG    1       26.858 -29.468   9.800  0.00  0.00    +0.036 A 
ATOM     31  C   LIG    1       27.135 -29.617  11.160  0.00  0.00    +0.042 A 
ATOM     32 CL   LIG    1       28.746 -29.491  11.747  0.00  0.00    -0.084 Cl
ATOM     33  C   LIG    1       26.111 -29.874  12.061  0.00  0.00    +0.023 A 
ATOM     34  C   LIG    1       24.809 -30.028  11.594  0.00  0.00    +0.048 A 
BRANCH  28  36
ATOM     35  C   LIG    1       22.612 -31.377  10.015  0.00  0.00    +0.277 C 
ATOM     36  O   LIG    1       23.239 -30.120   9.755  0.00  0.00    -0.494 OA
ENDBRANCH  28  36
ENDBRANCH  24  29
ENDBRANCH  23  25
ENDBRANCH  22  23
ENDBRANCH   1  22
TORSDOF 10
ENDMDL
MODEL 4
REMARK VINA RESULT:      -9.7      2.326      3.147
REMARK  Name = *****
REMARK                            x       y       z     vdW  Elec       q    Type
REMARK                         _______ _______ _______ _____ _____    ______ ____
ROOT
ATOM      1  C   LIG    1       24.325 -25.425   6.122  0.00  0.00    -0.046 A 
ATOM      2  C   LIG    1       23.155 -24.771   6.555  0.00  0.00    +0.005 A 
ATOM      3  C   LIG    1       23.151 -23.392   6.815  0.00  0.00    +0.029 A 
ATOM      4  C   LIG    1       24.316 -22.649   6.595  0.00  0.00    +0.113 A 
ATOM      5  C   LIG    1       25.485 -23.285   6.179  0.00  0.00    +0.029 A 
ATOM      6  C   LIG    1       25.481 -24.658   5.928  0.00  0.00    +0.005 A 
ENDROOT
BRANCH   4   7
ATOM      7  S   LIG    1       24.285 -20.865   6.744  0.00  0.00    +0.103 S 
ATOM      8  O   LIG    1       23.566 -20.558   7.983  0.00  0.00    -0.146 OA
ATOM      9  O   LIG    1       23.810 -20.356   5.483  0.00  0.00    -0.146 OA
BRANCH   7  10
ATOM     10  N   LIG    1       25.826 -20.449   6.943  0.00  0.00    -0.076 NA
ATOM     11  C   LIG    1       26.486 -20.490   8.037  0.00  0.00    +0.299 C 
BRANCH  11  12
ATOM     12  N   LIG    1       27.799 -20.193   8.152  0.00  0.00    -0.295 N 
ATOM     13  H   LIG    1       28.015 -19.272   8.513  0.00  0.00    +0.151 HD
BRANCH  12  14
ATOM     14  C   LIG    1       28.840 -20.898   7.415  0.00  0.00    +0.075 C 
ATOM     15  C   LIG    1       29.263 -20.132   6.151  0.00  0.00    +0.022 C 
ATOM     16  C   LIG    1       30.075 -18.873   6.450  0.00  0.00    +0.002 C 
ATOM     17  C   LIG    1       31.273 -19.177   7.344  0.00  0.00    +0.000 C 
ATOM     18  C   LIG    1       30.867 -19.907   8.620  0.00  0.00    +0.002 C 
ATOM     19  C   LIG    1       30.037 -21.158   8.332  0.00  0.00    +0.022 C 
ENDBRANCH  12  14
ENDBRANCH  11  12
BRANCH  11  20
ATOM     20  O   LIG    1       25.988 -20.801   9.253  0.00  0.00    -0.481 OA
ATOM     21  H   LIG    1       26.682 -20.846   9.939  0.00  0.00    +0.295 HD
ENDBRANCH  11  20
ENDBRANCH   7  10
ENDBRANCH   4   7
BRANCH   1  22
ATOM     22  C   LIG    1       24.288 -26.908   5.796  0.00  0.00    +0.054 C 
BRANCH  22  23
ATOM     23  C   LIG    1       25.535 -27.740   6.162  0.00  0.00    +0.109 C 
BRANCH  23  25
ATOM     24  C   LIG    1       24.504 -29.579   7.498  0.00  0.00    +0.248 C 
ATOM     25  N   LIG    1       25.370 -28.514   7.383  0.00  0.00    -0.311 N 
ATOM     26  H   LIG    1       25.862 -28.218   8.216  0.00  0.00    +0.149 HD
ATOM     27  O   LIG    1       23.752 -29.929   6.594  0.00  0.00    -0.270 OA
BRANCH  24  29
ATOM     28  C   LIG    1       25.557 -31.069   9.317  0.00  0.00    +0.132 A 
ATOM     29  C   LIG    1       24.481 -30.307   8.815  0.00  0.00    +0.080 A 
ATOM     30  C   LIG    1       23.289 -30.231   9.565  0.00  0.00    +0.036 A 
ATOM     31  C   LIG    1       23.160 -30.935  10.763  0.00  0.00    +0.042 A 
ATOM     32 CL   LIG    1       21.725 -30.815  11.702  0.00  0.00    -0.084 Cl
ATOM     33  C   LIG    1       24.193 -31.744  11.217  0.00  0.00    +0.023 A 
ATOM     34  C   LIG    1       25.379 -31.813  10.493  0.00  0.00    +0.048 A 
BRANCH  28  36
ATOM     35  C   LIG    1       26.997 -32.280   7.840  0.00  0.00    +0.277 C 
ATOM     36  O   LIG    1       26.731 -31.109   8.615  0.00  0.00    -0.494 OA
ENDBRANCH  28  36
ENDBRANCH  24  29
ENDBRANCH  23  25
ENDBRANCH  22  23
ENDBRANCH   1  22
TORSDOF 10
ENDMDL
MODEL 5
REMARK VINA RESULT:      -9.5      2.640      3.439
REMARK  Name = *****
REMARK                            x       y       z     vdW  Elec       q    Type
REMARK                         _______ _______ _______ _____ _____    ______ ____
ROOT
ATOM      1  C   LIG    1       24.367 -25.455   6.071  0.00  0.00    -0.046 A 
ATOM      2  C   LIG    1       23.190 -24.807   6.494  0.00  0.00    +0.005 A 
ATOM      3  C   LIG    1       23.182 -23.431   6.770  0.00  0.00    +0.029 A 
ATOM      4  C   LIG    1       24.350 -22.685   6.575  0.00  0.00    +0.113 A 
ATOM      5  C   LIG    1       25.525 -23.315   6.169  0.00  0.00    +0.029 A 
ATOM      6  C   LIG    1       25.526 -24.686   5.902  0.00  0.00    +0.005 A 
ENDROOT
BRANCH   4   7
ATOM      7  S   LIG    1       24.316 -20.903   6.745  0.00  0.00    +0.103 S 
ATOM      8  O   LIG    1       23.591 -20.611   7.983  0.00  0.00    -0.146 OA
ATOM      9  O   LIG    1       23.846 -20.381   5.486  0.00  0.00    -0.146 OA
BRANCH   7  10
ATOM     10  N   LIG    1       25.855 -20.487   6.955  0.00  0.00    -0.076 NA
ATOM     11  C   LIG    1       26.497 -20.496   8.061  0.00  0.00    +0.299 C 
BRANCH  11  12
ATOM     12  N   LIG    1       27.810 -20.201   8.188  0.00  0.00    -0.295 N 
ATOM     13  H   LIG    1       28.024 -19.297   8.590  0.00  0.00    +0.151 HD
BRANCH  12  14
ATOM     14  C   LIG    1       28.852 -20.870   7.419  0.00  0.00    +0.075 C 
ATOM     15  C   LIG    1       29.260 -20.053   6.182  0.00  0.00    +0.022 C 
ATOM     16  C   LIG    1       30.064 -18.799   6.523  0.00  0.00    +0.002 C 
ATOM     17  C   LIG    1       31.270 -19.126   7.397  0.00  0.00    +0.000 C 
ATOM     18  C   LIG    1       30.878 -19.907   8.647  0.00  0.00    +0.002 C 
ATOM     19  C   LIG    1       30.056 -21.154   8.318  0.00  0.00    +0.022 C 
ENDBRANCH  12  14
ENDBRANCH  11  12
BRANCH  11  20
ATOM     20  O   LIG    1       25.978 -20.765   9.278  0.00  0.00    -0.481 OA
ATOM     21  H   LIG    1       26.506 -20.378  10.002  0.00  0.00    +0.295 HD
ENDBRANCH  11  20
ENDBRANCH   7  10
ENDBRANCH   4   7
BRANCH   1  22
ATOM     22  C   LIG    1       24.335 -26.934   5.728  0.00  0.00    +0.054 C 
BRANCH  22  23
ATOM     23  C   LIG    1       25.215 -27.874   6.580  0.00  0.00    +0.109 C 
BRANCH  23  25
ATOM     24  C   LIG    1       24.749 -29.494   8.422  0.00  0.00    +0.248 C 
ATOM     25  N   LIG    1       24.469 -28.971   7.177  0.00  0.00    -0.311 N 
ATOM     26  H   LIG    1       23.751 -29.427   6.629  0.00  0.00    +0.149 HD
ATOM     27  O   LIG    1       25.692 -29.114   9.109  0.00  0.00    -0.270 OA
BRANCH  24  29
ATOM     28  C   LIG    1       23.685 -31.834   8.259  0.00  0.00    +0.132 A 
ATOM     29  C   LIG    1       23.858 -30.599   8.919  0.00  0.00    +0.080 A 
ATOM     30  C   LIG    1       23.137 -30.352  10.106  0.00  0.00    +0.036 A 
ATOM     31  C   LIG    1       22.234 -31.297  10.596  0.00  0.00    +0.042 A 
ATOM     32 CL   LIG    1       21.384 -31.020  12.064  0.00  0.00    -0.084 Cl
ATOM     33  C   LIG    1       22.011 -32.480   9.905  0.00  0.00    +0.023 A 
ATOM     34  C   LIG    1       22.728 -32.739   8.741  0.00  0.00    +0.048 A 
BRANCH  28  36
ATOM     35  C   LIG    1       23.696 -32.344   5.923  0.00  0.00    +0.277 C 
ATOM     36  O   LIG    1       24.415 -32.096   7.131  0.00  0.00    -0.494 OA
ENDBRANCH  28  36
ENDBRANCH  24  29
ENDBRANCH  23  25
ENDBRANCH  22  23
ENDBRANCH   1  22
TORSDOF 10
ENDMDL
MODEL 6
REMARK VINA RESULT:      -8.9      5.196      7.498
REMARK  Name = *****
REMARK                            x       y       z     vdW  Elec       q    Type
REMARK                         _______ _______ _______ _____ _____    ______ ____
ROOT
ATOM      1  C   LIG    1       25.251 -29.708   8.846  0.00  0.00    -0.046 A 
ATOM      2  C   LIG    1       24.401 -29.734   7.723  0.00  0.00    +0.005 A 
ATOM      3  C   LIG    1       24.487 -28.747   6.728  0.00  0.00    +0.029 A 
ATOM      4  C   LIG    1       25.466 -27.752   6.832  0.00  0.00    +0.113 A 
ATOM      5  C   LIG    1       26.305 -27.707   7.944  0.00  0.00    +0.029 A 
ATOM      6  C   LIG    1       26.209 -28.689   8.932  0.00  0.00    +0.005 A 
ENDROOT
BRANCH   4   7
ATOM      7  S   LIG    1       25.714 -26.593   5.490  0.00  0.00    +0.103 S 
ATOM      8  O   LIG    1       24.547 -26.708   4.613  0.00  0.00    -0.146 OA
ATOM      9  O   LIG    1       27.037 -26.840   4.975  0.00  0.00    -0.146 OA
BRANCH   7  10
ATOM     10  N   LIG    1       25.673 -25.147   6.191  0.00  0.00    -0.076 NA
ATOM     11  C   LIG    1       24.624 -24.495   6.524  0.00  0.00    +0.299 C 
BRANCH  11  12
ATOM     12  N   LIG    1       24.631 -23.309   7.171  0.00  0.00    -0.295 N 
ATOM     13  H   LIG    1       23.945 -23.202   7.907  0.00  0.00    +0.151 HD
BRANCH  12  14
ATOM     14  C   LIG    1       25.220 -22.101   6.607  0.00  0.00    +0.075 C 
ATOM     15  C   LIG    1       24.754 -21.859   5.162  0.00  0.00    +0.022 C 
ATOM     16  C   LIG    1       23.296 -21.413   5.063  0.00  0.00    +0.002 C 
ATOM     17  C   LIG    1       23.020 -20.201   5.947  0.00  0.00    +0.000 C 
ATOM     18  C   LIG    1       23.444 -20.437   7.393  0.00  0.00    +0.002 C 
ATOM     19  C   LIG    1       24.896 -20.903   7.502  0.00  0.00    +0.022 C 
ENDBRANCH  12  14
ENDBRANCH  11  12
BRANCH  11  20
ATOM     20  O   LIG    1       23.350 -24.856   6.262  0.00  0.00    -0.481 OA
ATOM     21  H   LIG    1       23.116 -25.715   6.665  0.00  0.00    +0.295 HD
ENDBRANCH  11  20
ENDBRANCH   7  10
ENDBRANCH   4   7
BRANCH   1  22
ATOM     22  C   LIG    1       25.173 -30.818   9.880  0.00  0.00    +0.054 C 
BRANCH  22  23
ATOM     23  C   LIG    1       24.147 -30.645  11.021  0.00  0.00    +0.109 C 
BRANCH  23  25
ATOM     24  C   LIG    1       25.140 -28.994  12.609  0.00  0.00    +0.248 C 
ATOM     25  N   LIG    1       24.208 -29.336  11.653  0.00  0.00    -0.311 N 
ATOM     26  H   LIG    1       23.489 -28.658  11.437  0.00  0.00    +0.149 HD
ATOM     27  O   LIG    1       25.964 -29.788  13.052  0.00  0.00    -0.270 OA
BRANCH  24  29
ATOM     28  C   LIG    1       23.911 -26.887  13.437  0.00  0.00    +0.132 A 
ATOM     29  C   LIG    1       25.099 -27.586  13.135  0.00  0.00    +0.080 A 
ATOM     30  C   LIG    1       26.337 -26.931  13.302  0.00  0.00    +0.036 A 
ATOM     31  C   LIG    1       26.383 -25.599  13.717  0.00  0.00    +0.042 A 
ATOM     32 CL   LIG    1       27.890 -24.808  13.962  0.00  0.00    -0.084 Cl
ATOM     33  C   LIG    1       25.211 -24.892  13.942  0.00  0.00    +0.023 A 
ATOM     34  C   LIG    1       23.985 -25.533  13.796  0.00  0.00    +0.048 A 
BRANCH  28  36
ATOM     35  C   LIG    1       21.536 -26.726  13.202  0.00  0.00    +0.277 C 
ATOM     36  O   LIG    1       22.709 -27.533  13.320  0.00  0.00    -0.494 OA
ENDBRANCH  28  36
ENDBRANCH  24  29
ENDBRANCH  23  25
ENDBRANCH  22  23
ENDBRANCH   1  22
TORSDOF 10
ENDMDL
MODEL 7
REMARK VINA RESULT:      -8.8      4.193     10.477
REMARK  Name = *****
REMARK                            x       y       z     vdW  Elec       q    Type
REMARK                         _______ _______ _______ _____ _____    ______ ____
ROOT
ATOM      1  C   LIG    1       25.244 -25.981   6.240  0.00  0.00    -0.046 A 
ATOM      2  C   LIG    1       25.973 -26.664   7.233  0.00  0.00    +0.005 A 
ATOM      3  C   LIG    1       25.797 -28.041   7.442  0.00  0.00    +0.029 A 
ATOM      4  C   LIG    1       24.920 -28.753   6.616  0.00  0.00    +0.113 A 
ATOM      5  C   LIG    1       24.182 -28.088   5.637  0.00  0.00    +0.029 A 
ATOM      6  C   LIG    1       24.359 -26.718   5.441  0.00  0.00    +0.005 A 
ENDROOT
BRANCH   4   7
ATOM      7  S   LIG    1       24.817 -30.536   6.742  0.00  0.00    +0.103 S 
ATOM      8  O   LIG    1       25.944 -31.079   5.981  0.00  0.00    -0.146 OA
ATOM      9  O   LIG    1       23.465 -30.894   6.395  0.00  0.00    -0.146 OA
BRANCH   7  10
ATOM     10  N   LIG    1       25.069 -30.846   8.300  0.00  0.00    -0.076 NA
ATOM     11  C   LIG    1       24.196 -30.795   9.233  0.00  0.00    +0.299 C 
BRANCH  11  12
ATOM     12  N   LIG    1       24.431 -31.125  10.523  0.00  0.00    -0.295 N 
ATOM     13  H   LIG    1       23.652 -31.532  11.024  0.00  0.00    +0.151 HD
BRANCH  12  14
ATOM     14  C   LIG    1       25.520 -30.551  11.303  0.00  0.00    +0.075 C 
ATOM     15  C   LIG    1       25.366 -29.031  11.467  0.00  0.00    +0.022 C 
ATOM     16  C   LIG    1       24.236 -28.636  12.417  0.00  0.00    +0.002 C 
ATOM     17  C   LIG    1       24.371 -29.331  13.768  0.00  0.00    +0.000 C 
ATOM     18  C   LIG    1       24.490 -30.845  13.625  0.00  0.00    +0.002 C 
ATOM     19  C   LIG    1       25.606 -31.249  12.662  0.00  0.00    +0.022 C 
ENDBRANCH  12  14
ENDBRANCH  11  12
BRANCH  11  20
ATOM     20  O   LIG    1       22.919 -30.377   9.103  0.00  0.00    -0.481 OA
ATOM     21  H   LIG    1       22.859 -29.430   8.871  0.00  0.00    +0.295 HD
ENDBRANCH  11  20
ENDBRANCH   7  10
ENDBRANCH   4   7
BRANCH   1  22
ATOM     22  C   LIG    1       25.492 -24.502   6.000  0.00  0.00    +0.054 C 
BRANCH  22  23
ATOM     23  C   LIG    1       25.867 -23.644   7.226  0.00  0.00    +0.109 C 
BRANCH  23  25
ATOM     24  C   LIG    1       27.289 -21.683   7.831  0.00  0.00    +0.248 C 
ATOM     25  N   LIG    1       26.911 -22.669   6.946  0.00  0.00    -0.311 N 
ATOM     26  H   LIG    1       27.339 -22.665   6.029  0.00  0.00    +0.149 HD
ATOM     27  O   LIG    1       26.734 -21.506   8.911  0.00  0.00    -0.270 OA
BRANCH  24  29
ATOM     28  C   LIG    1       29.703 -20.799   7.992  0.00  0.00    +0.132 A 
ATOM     29  C   LIG    1       28.417 -20.780   7.412  0.00  0.00    +0.080 A 
ATOM     30  C   LIG    1       28.140 -19.844   6.395  0.00  0.00    +0.036 A 
ATOM     31  C   LIG    1       29.109 -18.922   5.998  0.00  0.00    +0.042 A 
ATOM     32 CL   LIG    1       28.792 -17.805   4.730  0.00  0.00    -0.084 Cl
ATOM     33  C   LIG    1       30.350 -18.894   6.621  0.00  0.00    +0.023 A 
ATOM     34  C   LIG    1       30.638 -19.824   7.615  0.00  0.00    +0.048 A 
BRANCH  28  36
ATOM     35  C   LIG    1       31.360 -22.108   9.115  0.00  0.00    +0.277 C 
ATOM     36  O   LIG    1       29.991 -21.736   8.948  0.00  0.00    -0.494 OA
ENDBRANCH  28  36
ENDBRANCH  24  29
ENDBRANCH  23  25
ENDBRANCH  22  23
ENDBRANCH   1  22
TORSDOF 10
ENDMDL
MODEL 8
REMARK VINA RESULT:      -8.7      2.955      4.594
REMARK  Name = *****
REMARK                            x       y       z     vdW  Elec       q    Type
REMARK                         _______ _______ _______ _____ _____    ______ ____
ROOT
ATOM      1  C   LIG    1       24.624 -25.896   6.164  0.00  0.00    -0.046 A 
ATOM      2  C   LIG    1       25.995 -25.629   6.343  0.00  0.00    +0.005 A 
ATOM      3  C   LIG    1       26.435 -24.375   6.797  0.00  0.00    +0.029 A 
ATOM      4  C   LIG    1       25.492 -23.394   7.123  0.00  0.00    +0.113 A 
ATOM      5  C   LIG    1       24.132 -23.640   6.939  0.00  0.00    +0.029 A 
ATOM      6  C   LIG    1       23.704 -24.888   6.481  0.00  0.00    +0.005 A 
ENDROOT
BRANCH   4   7
ATOM      7  S   LIG    1       26.019 -21.857   7.874  0.00  0.00    +0.103 S 
ATOM      8  O   LIG    1       27.483 -21.852   7.842  0.00  0.00    -0.146 OA
ATOM      9  O   LIG    1       25.318 -21.754   9.130  0.00  0.00    -0.146 OA
BRANCH   7  10
ATOM     10  N   LIG    1       25.491 -20.715   6.872  0.00  0.00    -0.076 NA
ATOM     11  C   LIG    1       26.065 -20.327   5.797  0.00  0.00    +0.299 C 
BRANCH  11  12
ATOM     12  N   LIG    1       25.559 -19.408   4.946  0.00  0.00    -0.295 N 
ATOM     13  H   LIG    1       25.495 -18.462   5.301  0.00  0.00    +0.151 HD
BRANCH  12  14
ATOM     14  C   LIG    1       24.737 -19.761   3.795  0.00  0.00    +0.075 C 
ATOM     15  C   LIG    1       23.966 -21.071   4.024  0.00  0.00    +0.022 C 
ATOM     16  C   LIG    1       22.822 -20.932   5.027  0.00  0.00    +0.002 C 
ATOM     17  C   LIG    1       21.882 -19.791   4.651  0.00  0.00    +0.000 C 
ATOM     18  C   LIG    1       22.627 -18.475   4.453  0.00  0.00    +0.002 C 
ATOM     19  C   LIG    1       23.786 -18.608   3.466  0.00  0.00    +0.022 C 
ENDBRANCH  12  14
ENDBRANCH  11  12
BRANCH  11  20
ATOM     20  O   LIG    1       27.272 -20.735   5.350  0.00  0.00    -0.481 OA
ATOM     21  H   LIG    1       27.582 -20.214   4.585  0.00  0.00    +0.295 HD
ENDBRANCH  11  20
ENDBRANCH   7  10
ENDBRANCH   4   7
BRANCH   1  22
ATOM     22  C   LIG    1       24.172 -27.277   5.723  0.00  0.00    +0.054 C 
BRANCH  22  23
ATOM     23  C   LIG    1       25.274 -28.297   5.366  0.00  0.00    +0.109 C 
BRANCH  23  25
ATOM     24  C   LIG    1       24.695 -30.294   6.748  0.00  0.00    +0.248 C 
ATOM     25  N   LIG    1       25.539 -29.251   6.432  0.00  0.00    -0.311 N 
ATOM     26  H   LIG    1       26.348 -29.109   7.023  0.00  0.00    +0.149 HD
ATOM     27  O   LIG    1       23.615 -30.471   6.192  0.00  0.00    -0.270 OA
BRANCH  24  29
ATOM     28  C   LIG    1       26.233 -32.100   7.753  0.00  0.00    +0.132 A 
ATOM     29  C   LIG    1       25.132 -31.222   7.848  0.00  0.00    +0.080 A 
ATOM     30  C   LIG    1       24.360 -31.220   9.028  0.00  0.00    +0.036 A 
ATOM     31  C   LIG    1       24.655 -32.102  10.069  0.00  0.00    +0.042 A 
ATOM     32 CL   LIG    1       23.744 -32.076  11.527  0.00  0.00    -0.084 Cl
ATOM     33  C   LIG    1       25.693 -33.015   9.943  0.00  0.00    +0.023 A 
ATOM     34  C   LIG    1       26.470 -33.015   8.789  0.00  0.00    +0.048 A 
BRANCH  28  36
ATOM     35  C   LIG    1       27.865 -33.194   6.391  0.00  0.00    +0.277 C 
ATOM     36  O   LIG    1       27.012 -32.074   6.627  0.00  0.00    -0.494 OA
ENDBRANCH  28  36
ENDBRANCH  24  29
ENDBRANCH  23  25
ENDBRANCH  22  23
ENDBRANCH   1  22
TORSDOF 10
ENDMDL
MODEL 9
REMARK VINA RESULT:      -8.7      4.951     10.763
REMARK  Name = *****
REMARK                            x       y       z     vdW  Elec       q    Type
REMARK                         _______ _______ _______ _____ _____    ______ ____
ROOT
ATOM      1  C   LIG    1       25.444 -27.017   6.486  0.00  0.00    -0.046 A 
ATOM      2  C   LIG    1       24.449 -27.789   5.855  0.00  0.00    +0.005 A 
ATOM      3  C   LIG    1       24.076 -29.043   6.365  0.00  0.00    +0.029 A 
ATOM      4  C   LIG    1       24.668 -29.508   7.545  0.00  0.00    +0.113 A 
ATOM      5  C   LIG    1       25.663 -28.759   8.172  0.00  0.00    +0.029 A 
ATOM      6  C   LIG    1       26.033 -27.516   7.655  0.00  0.00    +0.005 A 
ENDROOT
BRANCH   4   7
ATOM      7  S   LIG    1       24.079 -31.015   8.312  0.00  0.00    +0.103 S 
ATOM      8  O   LIG    1       25.207 -31.577   9.057  0.00  0.00    -0.146 OA
ATOM      9  O   LIG    1       23.440 -31.781   7.272  0.00  0.00    -0.146 OA
BRANCH   7  10
ATOM     10  N   LIG    1       22.973 -30.524   9.371  0.00  0.00    -0.076 NA
ATOM     11  C   LIG    1       23.194 -30.122  10.565  0.00  0.00    +0.299 C 
BRANCH  11  12
ATOM     12  N   LIG    1       22.244 -29.656  11.406  0.00  0.00    -0.295 N 
ATOM     13  H   LIG    1       21.415 -29.273  10.968  0.00  0.00    +0.151 HD
BRANCH  12  14
ATOM     14  C   LIG    1       22.520 -29.285  12.787  0.00  0.00    +0.075 C 
ATOM     15  C   LIG    1       22.492 -27.761  12.985  0.00  0.00    +0.022 C 
ATOM     16  C   LIG    1       21.086 -27.167  12.916  0.00  0.00    +0.002 C 
ATOM     17  C   LIG    1       20.132 -27.870  13.876  0.00  0.00    +0.000 C 
ATOM     18  C   LIG    1       20.121 -29.381  13.670  0.00  0.00    +0.002 C 
ATOM     19  C   LIG    1       21.525 -29.983  13.718  0.00  0.00    +0.022 C 
ENDBRANCH  12  14
ENDBRANCH  11  12
BRANCH  11  20
ATOM     20  O   LIG    1       24.388 -30.125  11.195  0.00  0.00    -0.481 OA
ATOM     21  H   LIG    1       24.905 -30.932  11.009  0.00  0.00    +0.295 HD
ENDBRANCH  11  20
ENDBRANCH   7  10
ENDBRANCH   4   7
BRANCH   1  22
ATOM     22  C   LIG    1       25.791 -25.641   5.944  0.00  0.00    +0.054 C 
BRANCH  22  23
ATOM     23  C   LIG    1       25.436 -24.426   6.826  0.00  0.00    +0.109 C 
BRANCH  23  25
ATOM     24  C   LIG    1       26.607 -22.318   7.473  0.00  0.00    +0.248 C 
ATOM     25  N   LIG    1       26.232 -23.246   6.525  0.00  0.00    -0.311 N 
ATOM     26  H   LIG    1       26.468 -23.052   5.560  0.00  0.00    +0.149 HD
ATOM     27  O   LIG    1       26.250 -22.379   8.645  0.00  0.00    -0.270 OA
BRANCH  24  29
ATOM     28  C   LIG    1       27.086 -20.244   6.021  0.00  0.00    +0.132 A 
ATOM     29  C   LIG    1       27.469 -21.175   7.011  0.00  0.00    +0.080 A 
ATOM     30  C   LIG    1       28.747 -21.062   7.596  0.00  0.00    +0.036 A 
ATOM     31  C   LIG    1       29.635 -20.073   7.172  0.00  0.00    +0.042 A 
ATOM     32 CL   LIG    1       31.178 -19.904   7.911  0.00  0.00    -0.084 Cl
ATOM     33  C   LIG    1       29.284 -19.205   6.148  0.00  0.00    +0.023 A 
ATOM     34  C   LIG    1       28.019 -19.298   5.574  0.00  0.00    +0.048 A 
BRANCH  28  36
ATOM     35  C   LIG    1       25.642 -19.790   4.171  0.00  0.00    +0.277 C 
ATOM     36  O   LIG    1       25.830 -20.322   5.482  0.00  0.00    -0.494 OA
ENDBRANCH  28  36
ENDBRANCH  24  29
ENDBRANCH  23  25
ENDBRANCH  22  23
ENDBRANCH   1  22
TORSDOF 10
ENDMDL
