MODEL 1
REMARK VINA RESULT:      -8.9      0.000      0.000
REMARK  Name = *****
REMARK                            x       y       z     vdW  Elec       q    Type
REMARK                         _______ _______ _______ _____ _____    ______ ____
ROOT
ATOM      1  C   LIG    1       25.888 -27.129   6.029  0.00  0.00    +0.007 C 
ENDROOT
BRANCH   1   2
ATOM      2  C   LIG    1       24.102 -28.154   6.262  0.00  0.00    +0.041 C 
BRANCH   2   3
ATOM      3  C   LIG    1       24.583 -30.098   6.085  0.00  0.00    +0.232 C 
BRANCH   3   4
ATOM      4  O   LIG    1       23.458 -31.574   6.349  0.00  0.00    -0.465 OA
BRANCH   4   5
ATOM      5  C   LIG    1       23.319 -32.541   8.267  0.00  0.00    +0.312 C 
ATOM      6  O   LIG    1       24.238 -33.150   8.845  0.00  0.00    -0.251 OA
BRANCH   5   7
ATOM      7  C   LIG    1       22.619 -31.536   9.683  0.00  0.00    +0.171 C 
BRANCH   7   8
ATOM      8  C   LIG    1       22.776 -31.817  11.232  0.00  0.00    +0.145 C 
BRANCH   8   9
ATOM      9  N   LIG    1       23.846 -31.102  12.205  0.00  0.00    +0.247 N 
ATOM     10  C   LIG    1       23.360 -29.761  12.574  0.00  0.00    +0.102 C 
ATOM     11  C   LIG    1       24.727 -28.863  13.268  0.00  0.00    +0.008 A 
ATOM     12  C   LIG    1       25.404 -29.423  14.423  0.00  0.00    -0.030 A 
ATOM     13  C   LIG    1       25.958 -28.776  15.462  0.00  0.00    +0.053 A 
ATOM     14  C   LIG    1       26.671 -27.801  14.932  0.00  0.00    +0.162 A 
ATOM     15  C   LIG    1       26.127 -27.151  13.716  0.00  0.00    +0.162 A 
ATOM     16  C   LIG    1       25.120 -30.773  14.829  0.00  0.00    +0.086 C 
ATOM     17  C   LIG    1       25.011 -27.591  12.981  0.00  0.00    +0.059 A 
ATOM     18  C   LIG    1       24.368 -31.841  13.376  0.00  0.00    +0.138 C 
ATOM     19  C   LIG    1       25.171 -30.922  11.548  0.00  0.00    +0.193 C 
BRANCH  14  20
ATOM     20  O   LIG    1       27.904 -27.625  15.499  0.00  0.00    -0.491 OA
ATOM     21  C   LIG    1       29.017 -28.381  14.949  0.00  0.00    +0.277 C 
ENDBRANCH  14  20
BRANCH  15  22
ATOM     22  O   LIG    1       26.672 -26.120  13.031  0.00  0.00    -0.491 OA
ATOM     23  C   LIG    1       26.442 -24.891  13.653  0.00  0.00    +0.277 C 
ENDBRANCH  15  22
BRANCH  10  24
ATOM     24  C   LIG    1       21.805 -30.148  13.676  0.00  0.00    +0.095 C 
BRANCH  24  25
ATOM     25  C   LIG    1       21.000 -29.283  13.266  0.00  0.00    -0.038 A 
ATOM     26  C   LIG    1       19.554 -29.969  14.352  0.00  0.00    +0.053 A 
ATOM     27  C   LIG    1       18.292 -29.090  14.691  0.00  0.00    +0.162 A 
ATOM     28  C   LIG    1       18.276 -27.416  14.379  0.00  0.00    +0.162 A 
ATOM     29  C   LIG    1       19.585 -26.536  13.716  0.00  0.00    +0.050 A 
ATOM     30  C   LIG    1       21.016 -27.360  12.984  0.00  0.00    +0.007 A 
BRANCH  28  31
ATOM     31  O   LIG    1       17.126 -26.776  13.980  0.00  0.00    -0.491 OA
ATOM     32  C   LIG    1       16.383 -26.410  15.114  0.00  0.00    +0.277 C 
ENDBRANCH  28  31
BRANCH  27  33
ATOM     33  O   LIG    1       17.251 -29.978  14.779  0.00  0.00    -0.491 OA
ATOM     34  C   LIG    1       16.579 -30.142  13.561  0.00  0.00    +0.277 C 
ENDBRANCH  27  33
ENDBRANCH  24  25
ENDBRANCH  10  24
ENDBRANCH   8   9
ENDBRANCH   7   8
ENDBRANCH   5   7
ENDBRANCH   4   5
ENDBRANCH   3   4
ENDBRANCH   2   3
ENDBRANCH   1   2
BRANCH   1  35
ATOM     35  C   LIG    1       26.037 -25.116   5.863  0.00  0.00    +0.041 C 
BRANCH  35  36
ATOM     36  C   LIG    1       25.889 -23.964   7.250  0.00  0.00    +0.232 C 
BRANCH  36  37
ATOM     37  O   LIG    1       24.691 -23.245   7.294  0.00  0.00    -0.465 OA
BRANCH  37  38
ATOM     38  C   LIG    1       24.685 -22.048   7.942  0.00  0.00    +0.312 C 
ATOM     39  O   LIG    1       25.336 -21.525   8.844  0.00  0.00    -0.251 OA
BRANCH  38  40
ATOM     40  C   LIG    1       23.868 -21.184   7.184  0.00  0.00    +0.171 C 
BRANCH  40  41
ATOM     41  C   LIG    1       24.272 -20.047   6.304  0.00  0.00    +0.145 C 
BRANCH  41  43
ATOM     42  C   LIG    1       25.785 -19.578   4.137  0.00  0.00    +0.102 C 
ATOM     43  N   LIG    1       24.497 -20.237   4.789  0.00  0.00    +0.247 N 
ATOM     44  C   LIG    1       24.363 -21.649   4.327  0.00  0.00    +0.193 C 
ATOM     45  C   LIG    1       23.296 -19.644   4.059  0.00  0.00    +0.138 C 
ATOM     46  C   LIG    1       23.072 -18.169   4.051  0.00  0.00    +0.086 C 
ATOM     47  C   LIG    1       24.348 -17.438   3.889  0.00  0.00    -0.030 A 
ATOM     48  C   LIG    1       24.173 -16.067   3.640  0.00  0.00    +0.053 A 
ATOM     49  C   LIG    1       25.259 -15.231   3.498  0.00  0.00    +0.162 A 
ATOM     50  C   LIG    1       26.534 -15.817   3.544  0.00  0.00    +0.162 A 
ATOM     51  C   LIG    1       26.695 -17.228   3.697  0.00  0.00    +0.059 A 
ATOM     52  C   LIG    1       25.617 -18.064   3.953  0.00  0.00    +0.008 A 
BRANCH  50  53
ATOM     53  O   LIG    1       27.743 -15.176   3.478  0.00  0.00    -0.491 OA
ATOM     54  C   LIG    1       27.806 -13.878   4.040  0.00  0.00    +0.277 C 
ENDBRANCH  50  53
BRANCH  49  55
ATOM     55  O   LIG    1       24.860 -13.927   3.360  0.00  0.00    -0.491 OA
ATOM     56  C   LIG    1       23.496 -13.631   3.565  0.00  0.00    +0.277 C 
ENDBRANCH  49  55
BRANCH  42  57
ATOM     57  C   LIG    1       27.177 -20.280   4.551  0.00  0.00    +0.095 C 
BRANCH  57  61
ATOM     58  C   LIG    1       29.940 -19.226   7.856  0.00  0.00    +0.162 A 
ATOM     59  C   LIG    1       29.228 -20.392   7.898  0.00  0.00    +0.162 A 
ATOM     60  C   LIG    1       28.169 -20.470   6.971  0.00  0.00    +0.053 A 
ATOM     61  C   LIG    1       28.083 -19.836   5.715  0.00  0.00    -0.038 A 
ATOM     62  C   LIG    1       28.970 -18.783   5.588  0.00  0.00    +0.007 A 
ATOM     63  C   LIG    1       29.802 -18.438   6.684  0.00  0.00    +0.050 A 
BRANCH  58  65
ATOM     64  C   LIG    1       30.427 -17.410   9.320  0.00  0.00    +0.277 C 
ATOM     65  O   LIG    1       30.762 -18.698   8.806  0.00  0.00    -0.491 OA
ENDBRANCH  58  65
BRANCH  59  66
ATOM     66  O   LIG    1       29.445 -21.575   8.565  0.00  0.00    -0.491 OA
ATOM     67  C   LIG    1       30.708 -21.913   9.111  0.00  0.00    +0.277 C 
ENDBRANCH  59  66
ENDBRANCH  57  61
ENDBRANCH  42  57
ENDBRANCH  41  43
ENDBRANCH  40  41
ENDBRANCH  38  40
ENDBRANCH  37  38
ENDBRANCH  36  37
ENDBRANCH  35  36
ENDBRANCH   1  35
TORSDOF 26
ENDMDL
MODEL 2
REMARK VINA RESULT:      -7.1      1.473      4.767
REMARK  Name = *****
REMARK                            x       y       z     vdW  Elec       q    Type
REMARK                         _______ _______ _______ _____ _____    ______ ____
ROOT
ATOM      1  C   LIG    1       25.761 -26.613   6.609  0.00  0.00    +0.007 C 
ENDROOT
BRANCH   1   2
ATOM      2  C   LIG    1       24.585 -27.752   5.337  0.00  0.00    +0.041 C 
BRANCH   2   3
ATOM      3  C   LIG    1       25.002 -29.662   5.804  0.00  0.00    +0.232 C 
BRANCH   3   4
ATOM      4  O   LIG    1       25.353 -30.363   7.507  0.00  0.00    -0.465 OA
BRANCH   4   5
ATOM      5  C   LIG    1       26.129 -32.354   7.756  0.00  0.00    +0.312 C 
ATOM      6  O   LIG    1       27.164 -32.805   7.232  0.00  0.00    -0.251 OA
BRANCH   5   7
ATOM      7  C   LIG    1       26.320 -32.986   9.508  0.00  0.00    +0.171 C 
BRANCH   7   8
ATOM      8  C   LIG    1       25.194 -33.583  10.444  0.00  0.00    +0.145 C 
BRANCH   8   9
ATOM      9  N   LIG    1       23.806 -32.850  10.816  0.00  0.00    +0.247 N 
ATOM     10  C   LIG    1       23.939 -32.169  12.116  0.00  0.00    +0.102 C 
ATOM     11  C   LIG    1       22.306 -31.757  12.680  0.00  0.00    +0.008 A 
ATOM     12  C   LIG    1       21.472 -30.927  11.829  0.00  0.00    -0.030 A 
ATOM     13  C   LIG    1       20.571 -29.999  12.190  0.00  0.00    +0.053 A 
ATOM     14  C   LIG    1       19.851 -30.557  13.145  0.00  0.00    +0.162 A 
ATOM     15  C   LIG    1       20.557 -31.467  14.078  0.00  0.00    +0.162 A 
ATOM     16  C   LIG    1       21.880 -30.661  10.476  0.00  0.00    +0.086 C 
ATOM     17  C   LIG    1       21.881 -31.921  13.934  0.00  0.00    +0.059 A 
ATOM     18  C   LIG    1       23.147 -31.989   9.808  0.00  0.00    +0.138 C 
ATOM     19  C   LIG    1       22.676 -33.813  10.940  0.00  0.00    +0.193 C 
BRANCH  14  20
ATOM     20  O   LIG    1       18.505 -30.333  13.047  0.00  0.00    -0.491 OA
ATOM     21  C   LIG    1       17.883 -29.491  14.056  0.00  0.00    +0.277 C 
ENDBRANCH  14  20
BRANCH  15  22
ATOM     22  O   LIG    1       20.026 -32.118  15.137  0.00  0.00    -0.491 OA
ATOM     23  C   LIG    1       19.686 -33.438  14.832  0.00  0.00    +0.277 C 
ENDBRANCH  15  22
BRANCH  10  24
ATOM     24  C   LIG    1       25.213 -30.750  11.738  0.00  0.00    +0.095 C 
BRANCH  24  25
ATOM     25  C   LIG    1       25.001 -29.976  12.696  0.00  0.00    -0.038 A 
ATOM     26  C   LIG    1       26.846 -29.399  12.770  0.00  0.00    +0.053 A 
ATOM     27  C   LIG    1       27.261 -28.061  13.489  0.00  0.00    +0.162 A 
ATOM     28  C   LIG    1       26.091 -26.919  13.964  0.00  0.00    +0.162 A 
ATOM     29  C   LIG    1       24.408 -27.079  13.702  0.00  0.00    +0.050 A 
ATOM     30  C   LIG    1       23.671 -28.639  13.165  0.00  0.00    +0.007 A 
BRANCH  28  31
ATOM     31  O   LIG    1       26.243 -26.179  15.114  0.00  0.00    -0.491 OA
ATOM     32  C   LIG    1       26.618 -24.869  14.776  0.00  0.00    +0.277 C 
ENDBRANCH  28  31
BRANCH  27  33
ATOM     33  O   LIG    1       28.514 -28.300  13.993  0.00  0.00    -0.491 OA
ATOM     34  C   LIG    1       28.576 -29.483  14.740  0.00  0.00    +0.277 C 
ENDBRANCH  27  33
ENDBRANCH  24  25
ENDBRANCH  10  24
ENDBRANCH   8   9
ENDBRANCH   7   8
ENDBRANCH   5   7
ENDBRANCH   4   5
ENDBRANCH   3   4
ENDBRANCH   2   3
ENDBRANCH   1   2
BRANCH   1  35
ATOM     35  C   LIG    1       26.041 -24.615   6.424  0.00  0.00    +0.041 C 
BRANCH  35  36
ATOM     36  C   LIG    1       25.109 -23.366   7.342  0.00  0.00    +0.232 C 
BRANCH  36  37
ATOM     37  O   LIG    1       24.065 -22.768   6.629  0.00  0.00    -0.465 OA
BRANCH  37  38
ATOM     38  C   LIG    1       23.191 -21.982   7.314  0.00  0.00    +0.312 C 
ATOM     39  O   LIG    1       22.508 -22.091   8.331  0.00  0.00    -0.251 OA
BRANCH  38  40
ATOM     40  C   LIG    1       23.337 -20.676   6.801  0.00  0.00    +0.171 C 
BRANCH  40  41
ATOM     41  C   LIG    1       24.525 -20.060   6.137  0.00  0.00    +0.145 C 
BRANCH  41  43
ATOM     42  C   LIG    1       25.988 -19.405   3.985  0.00  0.00    +0.102 C 
ATOM     43  N   LIG    1       24.740 -20.158   4.612  0.00  0.00    +0.247 N 
ATOM     44  C   LIG    1       24.667 -21.548   4.076  0.00  0.00    +0.193 C 
ATOM     45  C   LIG    1       23.505 -19.584   3.927  0.00  0.00    +0.138 C 
ATOM     46  C   LIG    1       23.212 -18.123   4.000  0.00  0.00    +0.086 C 
ATOM     47  C   LIG    1       24.451 -17.325   3.866  0.00  0.00    -0.030 A 
ATOM     48  C   LIG    1       24.210 -15.952   3.693  0.00  0.00    +0.053 A 
ATOM     49  C   LIG    1       25.254 -15.060   3.585  0.00  0.00    +0.162 A 
ATOM     50  C   LIG    1       26.555 -15.587   3.588  0.00  0.00    +0.162 A 
ATOM     51  C   LIG    1       26.783 -16.995   3.663  0.00  0.00    +0.059 A 
ATOM     52  C   LIG    1       25.748 -17.893   3.884  0.00  0.00    +0.008 A 
BRANCH  50  53
ATOM     53  O   LIG    1       27.732 -14.887   3.545  0.00  0.00    -0.491 OA
ATOM     54  C   LIG    1       27.789 -13.693   4.304  0.00  0.00    +0.277 C 
ENDBRANCH  50  53
BRANCH  49  55
ATOM     55  O   LIG    1       24.793 -13.770   3.522  0.00  0.00    -0.491 OA
ATOM     56  C   LIG    1       23.405 -13.576   3.357  0.00  0.00    +0.277 C 
ENDBRANCH  49  55
BRANCH  42  57
ATOM     57  C   LIG    1       27.416 -20.062   4.347  0.00  0.00    +0.095 C 
BRANCH  57  61
ATOM     58  C   LIG    1       30.051 -19.218   7.812  0.00  0.00    +0.162 A 
ATOM     59  C   LIG    1       29.290 -20.353   7.787  0.00  0.00    +0.162 A 
ATOM     60  C   LIG    1       28.276 -20.359   6.807  0.00  0.00    +0.053 A 
ATOM     61  C   LIG    1       28.281 -19.690   5.566  0.00  0.00    -0.038 A 
ATOM     62  C   LIG    1       29.218 -18.674   5.513  0.00  0.00    +0.007 A 
ATOM     63  C   LIG    1       30.007 -18.395   6.658  0.00  0.00    +0.050 A 
BRANCH  58  65
ATOM     64  C   LIG    1       30.365 -17.643   9.573  0.00  0.00    +0.277 C 
ATOM     65  O   LIG    1       30.847 -18.752   8.816  0.00  0.00    -0.491 OA
ENDBRANCH  58  65
BRANCH  59  66
ATOM     66  O   LIG    1       29.422 -21.561   8.429  0.00  0.00    -0.491 OA
ATOM     67  C   LIG    1       30.454 -21.808   9.368  0.00  0.00    +0.277 C 
ENDBRANCH  59  66
ENDBRANCH  57  61
ENDBRANCH  42  57
ENDBRANCH  41  43
ENDBRANCH  40  41
ENDBRANCH  38  40
ENDBRANCH  37  38
ENDBRANCH  36  37
ENDBRANCH  35  36
ENDBRANCH   1  35
TORSDOF 26
ENDMDL
MODEL 3
REMARK VINA RESULT:      -5.9      2.513      5.707
REMARK  Name = *****
REMARK                            x       y       z     vdW  Elec       q    Type
REMARK                         _______ _______ _______ _____ _____    ______ ____
ROOT
ATOM      1  C   LIG    1       25.112 -23.064   4.590  0.00  0.00    +0.007 C 
ENDROOT
BRANCH   1   2
ATOM      2  C   LIG    1       24.832 -25.117   4.611  0.00  0.00    +0.041 C 
BRANCH   2   3
ATOM      3  C   LIG    1       25.904 -25.779   6.178  0.00  0.00    +0.232 C 
BRANCH   3   4
ATOM      4  O   LIG    1       26.111 -27.555   6.742  0.00  0.00    -0.465 OA
BRANCH   4   5
ATOM      5  C   LIG    1       24.428 -28.892   6.853  0.00  0.00    +0.312 C 
ATOM      6  O   LIG    1       23.754 -29.299   5.889  0.00  0.00    -0.251 OA
BRANCH   5   7
ATOM      7  C   LIG    1       24.661 -30.482   7.814  0.00  0.00    +0.171 C 
BRANCH   7   8
ATOM      8  C   LIG    1       25.803 -30.820   8.854  0.00  0.00    +0.145 C 
BRANCH   8   9
ATOM      9  N   LIG    1       26.082 -30.015  10.225  0.00  0.00    +0.247 N 
ATOM     10  C   LIG    1       24.872 -30.035  11.066  0.00  0.00    +0.102 C 
ATOM     11  C   LIG    1       25.073 -28.804  12.330  0.00  0.00    +0.008 A 
ATOM     12  C   LIG    1       26.225 -28.899  13.208  0.00  0.00    -0.030 A 
ATOM     13  C   LIG    1       26.312 -28.577  14.510  0.00  0.00    +0.053 A 
ATOM     14  C   LIG    1       25.737 -27.395  14.622  0.00  0.00    +0.162 A 
ATOM     15  C   LIG    1       24.564 -27.130  13.757  0.00  0.00    +0.162 A 
ATOM     16  C   LIG    1       27.282 -29.821  12.896  0.00  0.00    +0.086 C 
ATOM     17  C   LIG    1       24.114 -27.957  12.711  0.00  0.00    +0.059 A 
ATOM     18  C   LIG    1       27.302 -30.315  11.007  0.00  0.00    +0.138 C 
ATOM     19  C   LIG    1       26.420 -28.585   9.979  0.00  0.00    +0.193 C 
BRANCH  14  20
ATOM     20  O   LIG    1       26.408 -26.512  15.424  0.00  0.00    -0.491 OA
ATOM     21  C   LIG    1       27.714 -26.051  14.981  0.00  0.00    +0.277 C 
ENDBRANCH  14  20
BRANCH  15  22
ATOM     22  O   LIG    1       23.811 -26.008  13.729  0.00  0.00    -0.491 OA
ATOM     23  C   LIG    1       22.442 -26.289  13.696  0.00  0.00    +0.277 C 
ENDBRANCH  15  22
BRANCH  10  24
ATOM     24  C   LIG    1       24.718 -31.909  11.564  0.00  0.00    +0.095 C 
BRANCH  24  25
ATOM     25  C   LIG    1       23.487 -32.089  11.442  0.00  0.00    -0.038 A 
ATOM     26  C   LIG    1       23.154 -31.785  13.322  0.00  0.00    +0.053 A 
ATOM     27  C   LIG    1       21.718 -31.417  13.854  0.00  0.00    +0.162 A 
ATOM     28  C   LIG    1       20.470 -30.975  12.783  0.00  0.00    +0.162 A 
ATOM     29  C   LIG    1       20.638 -30.860  11.085  0.00  0.00    +0.050 A 
ATOM     30  C   LIG    1       22.089 -31.507  10.223  0.00  0.00    +0.007 A 
BRANCH  28  31
ATOM     31  O   LIG    1       19.163 -31.325  13.029  0.00  0.00    -0.491 OA
ATOM     32  C   LIG    1       18.559 -30.332  13.817  0.00  0.00    +0.277 C 
ENDBRANCH  28  31
BRANCH  27  33
ATOM     33  O   LIG    1       21.648 -31.972  15.106  0.00  0.00    -0.491 OA
ATOM     34  C   LIG    1       21.896 -33.351  15.099  0.00  0.00    +0.277 C 
ENDBRANCH  27  33
ENDBRANCH  24  25
ENDBRANCH  10  24
ENDBRANCH   8   9
ENDBRANCH   7   8
ENDBRANCH   5   7
ENDBRANCH   4   5
ENDBRANCH   3   4
ENDBRANCH   2   3
ENDBRANCH   1   2
BRANCH   1  35
ATOM     35  C   LIG    1       24.082 -21.781   3.408  0.00  0.00    +0.041 C 
BRANCH  35  36
ATOM     36  C   LIG    1       24.736 -20.209   2.796  0.00  0.00    +0.232 C 
BRANCH  36  37
ATOM     37  O   LIG    1       24.952 -19.238   3.778  0.00  0.00    -0.465 OA
BRANCH  37  38
ATOM     38  C   LIG    1       26.197 -18.699   3.883  0.00  0.00    +0.312 C 
ATOM     39  O   LIG    1       26.719 -17.616   3.627  0.00  0.00    -0.251 OA
BRANCH  38  40
ATOM     40  C   LIG    1       26.945 -19.572   4.700  0.00  0.00    +0.171 C 
BRANCH  40  41
ATOM     41  C   LIG    1       27.954 -19.237   5.749  0.00  0.00    +0.145 C 
BRANCH  41  43
ATOM     42  C   LIG    1       28.478 -19.983   8.273  0.00  0.00    +0.102 C 
ATOM     43  N   LIG    1       28.498 -20.307   6.719  0.00  0.00    +0.247 N 
ATOM     44  C   LIG    1       27.955 -21.675   6.481  0.00  0.00    +0.193 C 
ATOM     45  C   LIG    1       29.955 -20.573   6.356  0.00  0.00    +0.138 C 
ATOM     46  C   LIG    1       30.994 -19.529   6.595  0.00  0.00    +0.086 C 
ATOM     47  C   LIG    1       30.769 -18.840   7.885  0.00  0.00    -0.030 A 
ATOM     48  C   LIG    1       31.842 -18.019   8.269  0.00  0.00    +0.053 A 
ATOM     49  C   LIG    1       31.784 -17.277   9.429  0.00  0.00    +0.162 A 
ATOM     50  C   LIG    1       30.644 -17.431  10.235  0.00  0.00    +0.162 A 
ATOM     51  C   LIG    1       29.607 -18.347   9.883  0.00  0.00    +0.059 A 
ATOM     52  C   LIG    1       29.601 -19.013   8.666  0.00  0.00    +0.008 A 
BRANCH  50  53
ATOM     53  O   LIG    1       30.355 -16.760  11.394  0.00  0.00    -0.491 OA
ATOM     54  C   LIG    1       31.393 -16.668  12.353  0.00  0.00    +0.277 C 
ENDBRANCH  50  53
BRANCH  49  55
ATOM     55  O   LIG    1       32.891 -16.479   9.556  0.00  0.00    -0.491 OA
ATOM     56  C   LIG    1       32.705 -15.082   9.487  0.00  0.00    +0.277 C 
ENDBRANCH  49  55
BRANCH  42  57
ATOM     57  C   LIG    1       27.007 -19.963   8.933  0.00  0.00    +0.095 C 
BRANCH  57  61
ATOM     58  C   LIG    1       23.537 -22.005   7.075  0.00  0.00    +0.162 A 
ATOM     59  C   LIG    1       23.698 -20.655   6.934  0.00  0.00    +0.162 A 
ATOM     60  C   LIG    1       24.639 -20.080   7.812  0.00  0.00    +0.053 A 
ATOM     61  C   LIG    1       25.774 -20.698   8.375  0.00  0.00    -0.038 A 
ATOM     62  C   LIG    1       25.713 -22.079   8.316  0.00  0.00    +0.007 A 
ATOM     63  C   LIG    1       24.564 -22.701   7.764  0.00  0.00    +0.050 A 
BRANCH  58  65
ATOM     64  C   LIG    1       22.575 -24.181   6.939  0.00  0.00    +0.277 C 
ATOM     65  O   LIG    1       22.502 -22.786   6.653  0.00  0.00    -0.491 OA
ENDBRANCH  58  65
BRANCH  59  66
ATOM     66  O   LIG    1       23.234 -19.770   5.990  0.00  0.00    -0.491 OA
ATOM     67  C   LIG    1       22.056 -20.013   5.241  0.00  0.00    +0.277 C 
ENDBRANCH  59  66
ENDBRANCH  57  61
ENDBRANCH  42  57
ENDBRANCH  41  43
ENDBRANCH  40  41
ENDBRANCH  38  40
ENDBRANCH  37  38
ENDBRANCH  36  37
ENDBRANCH  35  36
ENDBRANCH   1  35
TORSDOF 26
ENDMDL
