MODEL 1
REMARK VINA RESULT:      -9.0      0.000      0.000
REMARK  Name = *****
REMARK                            x       y       z     vdW  Elec       q    Type
REMARK                         _______ _______ _______ _____ _____    ______ ____
ROOT
ATOM      1  O   LIG    1       28.394 -18.947   5.013  0.00  0.00    -0.270 OA
ATOM      2  C   LIG    1       27.660 -19.762   5.564  0.00  0.00    +0.247 C 
ATOM      3  N   LIG    1       28.078 -20.587   6.615  0.00  0.00    -0.292 N 
ATOM      4  C   LIG    1       27.171 -21.599   7.159  0.00  0.00    +0.116 C 
ATOM      5  C   LIG    1       25.733 -21.082   7.251  0.00  0.00    +0.037 C 
ATOM      6  C   LIG    1       24.789 -22.158   7.797  0.00  0.00    +0.010 C 
ATOM      7  C   LIG    1       23.344 -21.675   7.709  0.00  0.00    +0.005 C 
ATOM      8  C   LIG    1       22.939 -21.444   6.253  0.00  0.00    +0.035 C 
ATOM      9  C   LIG    1       23.973 -20.689   5.455  0.00  0.00    -0.043 A 
ATOM     10  C   LIG    1       23.618 -20.154   4.207  0.00  0.00    +0.004 A 
ATOM     11  C   LIG    1       24.559 -19.485   3.425  0.00  0.00    +0.001 A 
ATOM     12  C   LIG    1       25.873 -19.355   3.873  0.00  0.00    +0.013 A 
ATOM     13  C   LIG    1       25.302 -20.569   5.900  0.00  0.00    -0.028 A 
ATOM     14  C   LIG    1       26.248 -19.900   5.105  0.00  0.00    +0.041 A 
ENDROOT
BRANCH   3  15
ATOM     15  C   LIG    1       29.487 -20.508   7.046  0.00  0.00    +0.093 C 
ATOM     16  C   LIG    1       30.009 -19.047   7.062  0.00  0.00    +0.013 C 
ATOM     17  C   LIG    1       31.541 -19.117   7.212  0.00  0.00    +0.021 C 
ATOM     18  C   LIG    1       31.894 -19.897   8.489  0.00  0.00    +0.085 C 
ATOM     19  N   LIG    1       30.688 -20.291   9.253  0.00  0.00    -0.300 NA
ATOM     20  C   LIG    1       29.910 -19.075   9.573  0.00  0.00    +0.085 C 
ATOM     21  C   LIG    1       29.485 -18.313   8.306  0.00  0.00    +0.021 C 
ATOM     22  C   LIG    1       29.852 -21.176   8.402  0.00  0.00    +0.107 C 
ENDBRANCH   3  15
TORSDOF 1
ENDMDL
MODEL 2
REMARK VINA RESULT:      -8.8      1.019      2.675
REMARK  Name = *****
REMARK                            x       y       z     vdW  Elec       q    Type
REMARK                         _______ _______ _______ _____ _____    ______ ____
ROOT
ATOM      1  O   LIG    1       27.437 -21.845   8.401  0.00  0.00    -0.270 OA
ATOM      2  C   LIG    1       27.089 -21.149   7.452  0.00  0.00    +0.247 C 
ATOM      3  N   LIG    1       27.983 -20.397   6.680  0.00  0.00    -0.292 N 
ATOM      4  C   LIG    1       27.480 -19.519   5.622  0.00  0.00    +0.116 C 
ATOM      5  C   LIG    1       26.317 -20.158   4.859  0.00  0.00    +0.037 C 
ATOM      6  C   LIG    1       25.783 -19.219   3.771  0.00  0.00    +0.010 C 
ATOM      7  C   LIG    1       24.519 -19.808   3.152  0.00  0.00    +0.005 C 
ATOM      8  C   LIG    1       23.411 -19.931   4.198  0.00  0.00    +0.035 C 
ATOM      9  C   LIG    1       23.882 -20.519   5.505  0.00  0.00    -0.043 A 
ATOM     10  C   LIG    1       22.932 -20.960   6.439  0.00  0.00    +0.004 A 
ATOM     11  C   LIG    1       23.331 -21.472   7.674  0.00  0.00    +0.001 A 
ATOM     12  C   LIG    1       24.686 -21.537   7.997  0.00  0.00    +0.013 A 
ATOM     13  C   LIG    1       25.248 -20.573   5.838  0.00  0.00    -0.028 A 
ATOM     14  C   LIG    1       25.644 -21.083   7.086  0.00  0.00    +0.041 A 
ENDROOT
BRANCH   3  15
ATOM     15  C   LIG    1       29.408 -20.402   7.061  0.00  0.00    +0.093 C 
ATOM     16  C   LIG    1       30.047 -18.993   6.940  0.00  0.00    +0.013 C 
ATOM     17  C   LIG    1       31.572 -19.179   7.051  0.00  0.00    +0.021 C 
ATOM     18  C   LIG    1       31.907 -19.880   8.379  0.00  0.00    +0.085 C 
ATOM     19  N   LIG    1       30.700 -20.108   9.208  0.00  0.00    -0.300 NA
ATOM     20  C   LIG    1       30.036 -18.809   9.447  0.00  0.00    +0.085 C 
ATOM     21  C   LIG    1       29.629 -18.119   8.134  0.00  0.00    +0.021 C 
ATOM     22  C   LIG    1       29.765 -20.987   8.458  0.00  0.00    +0.107 C 
ENDBRANCH   3  15
TORSDOF 1
ENDMDL
MODEL 3
REMARK VINA RESULT:      -7.3      1.878      6.109
REMARK  Name = *****
REMARK                            x       y       z     vdW  Elec       q    Type
REMARK                         _______ _______ _______ _____ _____    ______ ____
ROOT
ATOM      1  O   LIG    1       26.240 -20.218   4.631  0.00  0.00    -0.270 OA
ATOM      2  C   LIG    1       26.843 -20.513   5.658  0.00  0.00    +0.247 C 
ATOM      3  N   LIG    1       26.378 -21.460   6.578  0.00  0.00    -0.292 N 
ATOM      4  C   LIG    1       27.107 -21.690   7.827  0.00  0.00    +0.116 C 
ATOM      5  C   LIG    1       28.623 -21.658   7.613  0.00  0.00    +0.037 C 
ATOM      6  C   LIG    1       29.375 -21.874   8.931  0.00  0.00    +0.010 C 
ATOM      7  C   LIG    1       30.870 -21.659   8.717  0.00  0.00    +0.005 C 
ATOM      8  C   LIG    1       31.155 -20.219   8.289  0.00  0.00    +0.035 C 
ATOM      9  C   LIG    1       30.221 -19.717   7.215  0.00  0.00    -0.043 A 
ATOM     10  C   LIG    1       30.542 -18.538   6.525  0.00  0.00    +0.004 A 
ATOM     11  C   LIG    1       29.683 -18.023   5.555  0.00  0.00    +0.001 A 
ATOM     12  C   LIG    1       28.482 -18.672   5.272  0.00  0.00    +0.013 A 
ATOM     13  C   LIG    1       29.002 -20.363   6.938  0.00  0.00    -0.028 A 
ATOM     14  C   LIG    1       28.137 -19.837   5.965  0.00  0.00    +0.041 A 
ENDROOT
BRANCH   3  15
ATOM     15  C   LIG    1       25.072 -22.097   6.323  0.00  0.00    +0.093 C 
ATOM     16  C   LIG    1       24.048 -21.793   7.449  0.00  0.00    +0.013 C 
ATOM     17  C   LIG    1       22.856 -22.748   7.242  0.00  0.00    +0.021 C 
ATOM     18  C   LIG    1       22.278 -22.547   5.831  0.00  0.00    +0.085 C 
ATOM     19  N   LIG    1       22.962 -21.455   5.099  0.00  0.00    -0.300 NA
ATOM     20  C   LIG    1       22.861 -20.214   5.895  0.00  0.00    +0.085 C 
ATOM     21  C   LIG    1       23.495 -20.368   7.288  0.00  0.00    +0.021 C 
ATOM     22  C   LIG    1       24.399 -21.807   4.952  0.00  0.00    +0.107 C 
ENDBRANCH   3  15
TORSDOF 1
ENDMDL
MODEL 4
REMARK VINA RESULT:      -6.8      2.433      3.432
REMARK  Name = *****
REMARK                            x       y       z     vdW  Elec       q    Type
REMARK                         _______ _______ _______ _____ _____    ______ ____
ROOT
ATOM      1  O   LIG    1       25.620 -20.345   8.813  0.00  0.00    -0.270 OA
ATOM      2  C   LIG    1       25.799 -21.355   8.140  0.00  0.00    +0.247 C 
ATOM      3  N   LIG    1       27.068 -21.868   7.844  0.00  0.00    -0.292 N 
ATOM      4  C   LIG    1       27.203 -23.024   6.956  0.00  0.00    +0.116 C 
ATOM      5  C   LIG    1       26.107 -24.063   7.206  0.00  0.00    +0.037 C 
ATOM      6  C   LIG    1       26.244 -25.256   6.253  0.00  0.00    +0.010 C 
ATOM      7  C   LIG    1       25.041 -26.182   6.405  0.00  0.00    +0.005 C 
ATOM      8  C   LIG    1       23.751 -25.463   6.012  0.00  0.00    +0.035 C 
ATOM      9  C   LIG    1       23.636 -24.075   6.595  0.00  0.00    -0.043 A 
ATOM     10  C   LIG    1       22.395 -23.421   6.565  0.00  0.00    +0.004 A 
ATOM     11  C   LIG    1       22.262 -22.123   7.058  0.00  0.00    +0.001 A 
ATOM     12  C   LIG    1       23.372 -21.456   7.575  0.00  0.00    +0.013 A 
ATOM     13  C   LIG    1       24.758 -23.396   7.104  0.00  0.00    -0.028 A 
ATOM     14  C   LIG    1       24.620 -22.087   7.593  0.00  0.00    +0.041 A 
ENDROOT
BRANCH   3  15
ATOM     15  C   LIG    1       28.249 -21.127   8.324  0.00  0.00    +0.093 C 
ATOM     16  C   LIG    1       29.489 -21.360   7.421  0.00  0.00    +0.013 C 
ATOM     17  C   LIG    1       30.711 -20.809   8.181  0.00  0.00    +0.021 C 
ATOM     18  C   LIG    1       30.479 -19.325   8.514  0.00  0.00    +0.085 C 
ATOM     19  N   LIG    1       29.203 -18.821   7.954  0.00  0.00    -0.300 NA
ATOM     20  C   LIG    1       29.207 -19.041   6.492  0.00  0.00    +0.085 C 
ATOM     21  C   LIG    1       29.368 -20.529   6.134  0.00  0.00    +0.021 C 
ATOM     22  C   LIG    1       28.082 -19.597   8.546  0.00  0.00    +0.107 C 
ENDBRANCH   3  15
TORSDOF 1
ENDMDL
MODEL 5
REMARK VINA RESULT:      -6.7     10.121     11.917
REMARK  Name = *****
REMARK                            x       y       z     vdW  Elec       q    Type
REMARK                         _______ _______ _______ _____ _____    ______ ____
ROOT
ATOM      1  O   LIG    1       27.430 -29.596   9.601  0.00  0.00    -0.270 OA
ATOM      2  C   LIG    1       26.216 -29.682   9.759  0.00  0.00    +0.247 C 
ATOM      3  N   LIG    1       25.368 -30.349   8.867  0.00  0.00    -0.292 N 
ATOM      4  C   LIG    1       23.919 -30.327   9.077  0.00  0.00    +0.116 C 
ATOM      5  C   LIG    1       23.559 -30.455  10.560  0.00  0.00    +0.037 C 
ATOM      6  C   LIG    1       22.041 -30.406  10.769  0.00  0.00    +0.010 C 
ATOM      7  C   LIG    1       21.724 -30.356  12.260  0.00  0.00    +0.005 C 
ATOM      8  C   LIG    1       22.288 -29.083  12.891  0.00  0.00    +0.035 C 
ATOM      9  C   LIG    1       23.707 -28.783  12.473  0.00  0.00    -0.043 A 
ATOM     10  C   LIG    1       24.444 -27.828  13.189  0.00  0.00    +0.004 A 
ATOM     11  C   LIG    1       25.744 -27.498  12.806  0.00  0.00    +0.001 A 
ATOM     12  C   LIG    1       26.319 -28.108  11.692  0.00  0.00    +0.013 A 
ATOM     13  C   LIG    1       24.283 -29.388  11.341  0.00  0.00    -0.028 A 
ATOM     14  C   LIG    1       25.590 -29.047  10.955  0.00  0.00    +0.041 A 
ENDROOT
BRANCH   3  15
ATOM     15  C   LIG    1       25.959 -30.933   7.648  0.00  0.00    +0.093 C 
ATOM     16  C   LIG    1       26.512 -32.361   7.898  0.00  0.00    +0.013 C 
ATOM     17  C   LIG    1       27.369 -32.732   6.672  0.00  0.00    +0.021 C 
ATOM     18  C   LIG    1       26.512 -32.632   5.399  0.00  0.00    +0.085 C 
ATOM     19  N   LIG    1       25.102 -32.290   5.702  0.00  0.00    -0.300 NA
ATOM     20  C   LIG    1       24.557 -33.304   6.631  0.00  0.00    +0.085 C 
ATOM     21  C   LIG    1       25.358 -33.374   7.942  0.00  0.00    +0.021 C 
ATOM     22  C   LIG    1       25.066 -30.966   6.375  0.00  0.00    +0.107 C 
ENDBRANCH   3  15
TORSDOF 1
ENDMDL
MODEL 6
REMARK VINA RESULT:      -6.7     10.138     12.390
REMARK  Name = *****
REMARK                            x       y       z     vdW  Elec       q    Type
REMARK                         _______ _______ _______ _____ _____    ______ ____
ROOT
ATOM      1  O   LIG    1       22.116 -31.132   9.479  0.00  0.00    -0.270 OA
ATOM      2  C   LIG    1       23.248 -30.830   9.843  0.00  0.00    +0.247 C 
ATOM      3  N   LIG    1       24.409 -31.314   9.229  0.00  0.00    -0.292 N 
ATOM      4  C   LIG    1       25.724 -30.981   9.780  0.00  0.00    +0.116 C 
ATOM      5  C   LIG    1       25.784 -29.530  10.266  0.00  0.00    +0.037 C 
ATOM      6  C   LIG    1       27.157 -29.200  10.863  0.00  0.00    +0.010 C 
ATOM      7  C   LIG    1       27.128 -27.813  11.496  0.00  0.00    +0.005 C 
ATOM      8  C   LIG    1       26.132 -27.767  12.655  0.00  0.00    +0.035 C 
ATOM      9  C   LIG    1       24.805 -28.410  12.331  0.00  0.00    -0.043 A 
ATOM     10  C   LIG    1       23.710 -28.184  13.179  0.00  0.00    +0.004 A 
ATOM     11  C   LIG    1       22.480 -28.795  12.932  0.00  0.00    +0.001 A 
ATOM     12  C   LIG    1       22.333 -29.651  11.842  0.00  0.00    +0.013 A 
ATOM     13  C   LIG    1       24.659 -29.284  11.239  0.00  0.00    -0.028 A 
ATOM     14  C   LIG    1       23.420 -29.902  10.999  0.00  0.00    +0.041 A 
ENDROOT
BRANCH   3  15
ATOM     15  C   LIG    1       24.262 -32.279   8.123  0.00  0.00    +0.093 C 
ATOM     16  C   LIG    1       24.039 -31.570   6.761  0.00  0.00    +0.013 C 
ATOM     17  C   LIG    1       23.589 -32.652   5.759  0.00  0.00    +0.021 C 
ATOM     18  C   LIG    1       24.652 -33.761   5.693  0.00  0.00    +0.085 C 
ATOM     19  N   LIG    1       25.832 -33.453   6.535  0.00  0.00    -0.300 NA
ATOM     20  C   LIG    1       26.394 -32.155   6.108  0.00  0.00    +0.085 C 
ATOM     21  C   LIG    1       25.369 -31.014   6.230  0.00  0.00    +0.021 C 
ATOM     22  C   LIG    1       25.391 -33.335   7.950  0.00  0.00    +0.107 C 
ENDBRANCH   3  15
TORSDOF 1
ENDMDL
MODEL 7
REMARK VINA RESULT:      -6.7      9.842     11.837
REMARK  Name = *****
REMARK                            x       y       z     vdW  Elec       q    Type
REMARK                         _______ _______ _______ _____ _____    ______ ____
ROOT
ATOM      1  O   LIG    1       27.924 -29.506  10.243  0.00  0.00    -0.270 OA
ATOM      2  C   LIG    1       26.707 -29.492  10.403  0.00  0.00    +0.247 C 
ATOM      3  N   LIG    1       25.824 -30.283   9.659  0.00  0.00    -0.292 N 
ATOM      4  C   LIG    1       24.379 -30.142   9.844  0.00  0.00    +0.116 C 
ATOM      5  C   LIG    1       24.012 -29.942  11.317  0.00  0.00    +0.037 C 
ATOM      6  C   LIG    1       22.499 -29.770  11.495  0.00  0.00    +0.010 C 
ATOM      7  C   LIG    1       22.186 -29.396  12.941  0.00  0.00    +0.005 C 
ATOM      8  C   LIG    1       22.818 -28.051  13.301  0.00  0.00    +0.035 C 
ATOM      9  C   LIG    1       24.251 -27.920  12.845  0.00  0.00    -0.043 A 
ATOM     10  C   LIG    1       25.039 -26.878  13.356  0.00  0.00    +0.004 A 
ATOM     11  C   LIG    1       26.354 -26.703  12.927  0.00  0.00    +0.001 A 
ATOM     12  C   LIG    1       26.895 -27.560  11.969  0.00  0.00    +0.013 A 
ATOM     13  C   LIG    1       24.793 -28.776  11.869  0.00  0.00    -0.028 A 
ATOM     14  C   LIG    1       26.117 -28.591  11.435  0.00  0.00    +0.041 A 
ENDROOT
BRANCH   3  15
ATOM     15  C   LIG    1       26.382 -31.137   8.593  0.00  0.00    +0.093 C 
ATOM     16  C   LIG    1       26.684 -32.573   9.098  0.00  0.00    +0.013 C 
ATOM     17  C   LIG    1       27.539 -33.260   8.015  0.00  0.00    +0.021 C 
ATOM     18  C   LIG    1       26.782 -33.239   6.676  0.00  0.00    +0.085 C 
ATOM     19  N   LIG    1       25.431 -32.646   6.809  0.00  0.00    -0.300 NA
ATOM     20  C   LIG    1       24.678 -33.404   7.831  0.00  0.00    +0.085 C 
ATOM     21  C   LIG    1       25.381 -33.382   9.199  0.00  0.00    +0.021 C 
ATOM     22  C   LIG    1       25.570 -31.240   7.271  0.00  0.00    +0.107 C 
ENDBRANCH   3  15
TORSDOF 1
ENDMDL
MODEL 8
REMARK VINA RESULT:      -6.6     10.254     12.099
REMARK  Name = *****
REMARK                            x       y       z     vdW  Elec       q    Type
REMARK                         _______ _______ _______ _____ _____    ______ ____
ROOT
ATOM      1  O   LIG    1       21.652 -30.413  10.803  0.00  0.00    -0.270 OA
ATOM      2  C   LIG    1       22.578 -29.909  11.430  0.00  0.00    +0.247 C 
ATOM      3  N   LIG    1       23.894 -30.385  11.376  0.00  0.00    -0.292 N 
ATOM      4  C   LIG    1       24.925 -29.787  12.226  0.00  0.00    +0.116 C 
ATOM      5  C   LIG    1       24.770 -28.267  12.323  0.00  0.00    +0.037 C 
ATOM      6  C   LIG    1       25.840 -27.656  13.235  0.00  0.00    +0.010 C 
ATOM      7  C   LIG    1       25.553 -26.174  13.452  0.00  0.00    +0.005 C 
ATOM      8  C   LIG    1       24.215 -25.981  14.167  0.00  0.00    +0.035 C 
ATOM      9  C   LIG    1       23.103 -26.827  13.597  0.00  0.00    -0.043 A 
ATOM     10  C   LIG    1       21.776 -26.542  13.951  0.00  0.00    +0.004 A 
ATOM     11  C   LIG    1       20.726 -27.328  13.476  0.00  0.00    +0.001 A 
ATOM     12  C   LIG    1       20.992 -28.420  12.651  0.00  0.00    +0.013 A 
ATOM     13  C   LIG    1       23.370 -27.937  12.776  0.00  0.00    -0.028 A 
ATOM     14  C   LIG    1       22.310 -28.730  12.305  0.00  0.00    +0.041 A 
ENDROOT
BRANCH   3  15
ATOM     15  C   LIG    1       24.168 -31.585  10.564  0.00  0.00    +0.093 C 
ATOM     16  C   LIG    1       24.325 -31.244   9.058  0.00  0.00    +0.013 C 
ATOM     17  C   LIG    1       24.289 -32.578   8.288  0.00  0.00    +0.021 C 
ATOM     18  C   LIG    1       25.400 -33.503   8.815  0.00  0.00    +0.085 C 
ATOM     19  N   LIG    1       26.235 -32.840   9.844  0.00  0.00    -0.300 NA
ATOM     20  C   LIG    1       26.803 -31.603   9.269  0.00  0.00    +0.085 C 
ATOM     21  C   LIG    1       25.709 -30.630   8.797  0.00  0.00    +0.021 C 
ATOM     22  C   LIG    1       25.370 -32.472  10.996  0.00  0.00    +0.107 C 
ENDBRANCH   3  15
TORSDOF 1
ENDMDL
MODEL 9
REMARK VINA RESULT:      -6.6      2.185      6.606
REMARK  Name = *****
REMARK                            x       y       z     vdW  Elec       q    Type
REMARK                         _______ _______ _______ _____ _____    ______ ____
ROOT
ATOM      1  O   LIG    1       26.557 -22.724   8.519  0.00  0.00    -0.270 OA
ATOM      2  C   LIG    1       27.019 -21.964   7.673  0.00  0.00    +0.247 C 
ATOM      3  N   LIG    1       26.316 -21.568   6.528  0.00  0.00    -0.292 N 
ATOM      4  C   LIG    1       26.970 -20.734   5.518  0.00  0.00    +0.116 C 
ATOM      5  C   LIG    1       27.861 -19.665   6.155  0.00  0.00    +0.037 C 
ATOM      6  C   LIG    1       28.560 -18.814   5.088  0.00  0.00    +0.010 C 
ATOM      7  C   LIG    1       29.571 -17.882   5.747  0.00  0.00    +0.005 C 
ATOM      8  C   LIG    1       30.669 -18.682   6.447  0.00  0.00    +0.035 C 
ATOM      9  C   LIG    1       30.141 -19.829   7.274  0.00  0.00    -0.043 A 
ATOM     10  C   LIG    1       30.993 -20.458   8.195  0.00  0.00    +0.004 A 
ATOM     11  C   LIG    1       30.551 -21.546   8.947  0.00  0.00    +0.001 A 
ATOM     12  C   LIG    1       29.254 -22.030   8.778  0.00  0.00    +0.013 A 
ATOM     13  C   LIG    1       28.838 -20.326   7.095  0.00  0.00    -0.028 A 
ATOM     14  C   LIG    1       28.399 -21.427   7.849  0.00  0.00    +0.041 A 
ENDROOT
BRANCH   3  15
ATOM     15  C   LIG    1       24.973 -22.134   6.304  0.00  0.00    +0.093 C 
ATOM     16  C   LIG    1       23.977 -21.726   7.422  0.00  0.00    +0.013 C 
ATOM     17  C   LIG    1       22.728 -22.614   7.258  0.00  0.00    +0.021 C 
ATOM     18  C   LIG    1       22.153 -22.432   5.844  0.00  0.00    +0.085 C 
ATOM     19  N   LIG    1       22.896 -21.412   5.067  0.00  0.00    -0.300 NA
ATOM     20  C   LIG    1       22.876 -20.137   5.816  0.00  0.00    +0.085 C 
ATOM     21  C   LIG    1       23.510 -20.278   7.211  0.00  0.00    +0.021 C 
ATOM     22  C   LIG    1       24.308 -21.855   4.926  0.00  0.00    +0.107 C 
ENDBRANCH   3  15
TORSDOF 1
ENDMDL
