MODEL 1
REMARK VINA RESULT:      -3.4      0.000      0.000
REMARK  Name = *****
REMARK                            x       y       z     vdW  Elec       q    Type
REMARK                         _______ _______ _______ _____ _____    ______ ____
ROOT
ATOM      1  C   LIG    1       25.143 -17.392   3.748  0.00  0.00    -0.037 C 
ATOM      2  C   LIG    1       24.831 -16.094   3.990  0.00  0.00    -0.037 C 
ENDROOT
BRANCH   1   3
ATOM      3  C   LIG    1       24.149 -18.462   3.979  0.00  0.00    -0.021 A 
ATOM      4  C   LIG    1       24.540 -19.806   3.930  0.00  0.00    +0.012 A 
ATOM      5  C   LIG    1       23.606 -20.819   4.153  0.00  0.00    +0.046 A 
ATOM      6  C   LIG    1       22.282 -20.490   4.418  0.00  0.00    +0.117 A 
ATOM      7  C   LIG    1       21.871 -19.161   4.458  0.00  0.00    +0.046 A 
ATOM      8  C   LIG    1       22.807 -18.147   4.239  0.00  0.00    +0.012 A 
BRANCH   6   9
ATOM      9  O   LIG    1       21.406 -21.512   4.635  0.00  0.00    -0.507 OA
ATOM     10  H   LIG    1       21.496 -22.157   3.915  0.00  0.00    +0.292 HD
ENDBRANCH   6   9
ENDBRANCH   1   3
BRANCH   2  11
ATOM     11  C   LIG    1       25.814 -15.023   3.735  0.00  0.00    -0.021 A 
ATOM     12  C   LIG    1       26.588 -14.511   4.786  0.00  0.00    +0.012 A 
ATOM     13  C   LIG    1       27.523 -13.502   4.544  0.00  0.00    +0.046 A 
ATOM     14  C   LIG    1       27.688 -13.011   3.256  0.00  0.00    +0.117 A 
ATOM     15  C   LIG    1       26.926 -13.505   2.200  0.00  0.00    +0.046 A 
ATOM     16  C   LIG    1       25.987 -14.509   2.443  0.00  0.00    +0.012 A 
BRANCH  14  17
ATOM     17  O   LIG    1       28.618 -12.035   3.062  0.00  0.00    -0.507 OA
ATOM     18  H   LIG    1       28.194 -11.172   3.201  0.00  0.00    +0.292 HD
ENDBRANCH  14  17
ENDBRANCH   2  11
BRANCH   1  20
ATOM     19  C   LIG    1       27.540 -17.954   4.435  0.00  0.00    +0.009 C 
ATOM     20  C   LIG    1       26.507 -17.906   3.316  0.00  0.00    +0.033 C 
ENDBRANCH   1  20
BRANCH   2  21
ATOM     21  C   LIG    1       23.481 -15.583   4.466  0.00  0.00    +0.033 C 
ATOM     22  C   LIG    1       23.380 -14.061   4.425  0.00  0.00    +0.009 C 
ENDBRANCH   2  21
TORSDOF 6
ENDMDL
MODEL 2
REMARK VINA RESULT:      -3.3      0.056      6.980
REMARK  Name = *****
REMARK                            x       y       z     vdW  Elec       q    Type
REMARK                         _______ _______ _______ _____ _____    ______ ____
ROOT
ATOM      1  C   LIG    1       24.849 -16.102   3.953  0.00  0.00    -0.037 C 
ATOM      2  C   LIG    1       25.175 -17.408   3.786  0.00  0.00    -0.037 C 
ENDROOT
BRANCH   1   3
ATOM      3  C   LIG    1       25.851 -15.040   3.722  0.00  0.00    -0.021 A 
ATOM      4  C   LIG    1       26.571 -14.508   4.800  0.00  0.00    +0.012 A 
ATOM      5  C   LIG    1       27.523 -13.510   4.586  0.00  0.00    +0.046 A 
ATOM      6  C   LIG    1       27.749 -13.037   3.299  0.00  0.00    +0.117 A 
ATOM      7  C   LIG    1       27.034 -13.543   2.218  0.00  0.00    +0.046 A 
ATOM      8  C   LIG    1       26.085 -14.546   2.431  0.00  0.00    +0.012 A 
BRANCH   6   9
ATOM      9  O   LIG    1       28.691 -12.065   3.138  0.00  0.00    -0.507 OA
ATOM     10  H   LIG    1       28.521 -11.358   3.780  0.00  0.00    +0.292 HD
ENDBRANCH   6   9
ENDBRANCH   1   3
BRANCH   2  11
ATOM     11  C   LIG    1       24.168 -18.468   3.991  0.00  0.00    -0.021 A 
ATOM     12  C   LIG    1       24.547 -19.817   3.955  0.00  0.00    +0.012 A 
ATOM     13  C   LIG    1       23.595 -20.820   4.155  0.00  0.00    +0.046 A 
ATOM     14  C   LIG    1       22.272 -20.475   4.397  0.00  0.00    +0.117 A 
ATOM     15  C   LIG    1       21.878 -19.140   4.433  0.00  0.00    +0.046 A 
ATOM     16  C   LIG    1       22.827 -18.138   4.226  0.00  0.00    +0.012 A 
BRANCH  14  17
ATOM     17  O   LIG    1       21.378 -21.484   4.597  0.00  0.00    -0.507 OA
ATOM     18  H   LIG    1       20.627 -21.135   5.105  0.00  0.00    +0.292 HD
ENDBRANCH  14  17
ENDBRANCH   2  11
BRANCH   1  20
ATOM     19  C   LIG    1       23.363 -14.068   4.387  0.00  0.00    +0.009 C 
ATOM     20  C   LIG    1       23.511 -15.584   4.455  0.00  0.00    +0.033 C 
ENDBRANCH   1  20
BRANCH   2  21
ATOM     21  C   LIG    1       26.527 -17.931   3.328  0.00  0.00    +0.033 C 
ATOM     22  C   LIG    1       27.557 -17.966   4.453  0.00  0.00    +0.009 C 
ENDBRANCH   2  21
TORSDOF 6
ENDMDL
MODEL 3
REMARK VINA RESULT:      -3.2      0.045      6.985
REMARK  Name = *****
REMARK                            x       y       z     vdW  Elec       q    Type
REMARK                         _______ _______ _______ _____ _____    ______ ____
ROOT
ATOM      1  C   LIG    1       24.820 -16.078   3.962  0.00  0.00    -0.037 C 
ATOM      2  C   LIG    1       25.155 -17.379   3.782  0.00  0.00    -0.037 C 
ENDROOT
BRANCH   1   3
ATOM      3  C   LIG    1       25.810 -15.005   3.726  0.00  0.00    -0.021 A 
ATOM      4  C   LIG    1       25.952 -14.450   2.448  0.00  0.00    +0.012 A 
ATOM      5  C   LIG    1       26.881 -13.432   2.222  0.00  0.00    +0.046 A 
ATOM      6  C   LIG    1       27.672 -12.977   3.270  0.00  0.00    +0.117 A 
ATOM      7  C   LIG    1       27.555 -13.524   4.543  0.00  0.00    +0.046 A 
ATOM      8  C   LIG    1       26.621 -14.539   4.770  0.00  0.00    +0.012 A 
BRANCH   6   9
ATOM      9  O   LIG    1       28.562 -11.978   3.004  0.00  0.00    -0.507 OA
ATOM     10  H   LIG    1       28.659 -11.429   3.798  0.00  0.00    +0.292 HD
ENDBRANCH   6   9
ENDBRANCH   1   3
BRANCH   2  11
ATOM     11  C   LIG    1       24.159 -18.450   3.993  0.00  0.00    -0.021 A 
ATOM     12  C   LIG    1       24.549 -19.795   3.944  0.00  0.00    +0.012 A 
ATOM     13  C   LIG    1       23.608 -20.807   4.150  0.00  0.00    +0.046 A 
ATOM     14  C   LIG    1       22.286 -20.475   4.410  0.00  0.00    +0.117 A 
ATOM     15  C   LIG    1       21.880 -19.144   4.460  0.00  0.00    +0.046 A 
ATOM     16  C   LIG    1       22.819 -18.132   4.247  0.00  0.00    +0.012 A 
BRANCH  14  17
ATOM     17  O   LIG    1       21.403 -21.492   4.616  0.00  0.00    -0.507 OA
ATOM     18  H   LIG    1       20.756 -21.492   3.891  0.00  0.00    +0.292 HD
ENDBRANCH  14  17
ENDBRANCH   2  11
BRANCH   1  20
ATOM     19  C   LIG    1       23.352 -14.055   4.499  0.00  0.00    +0.009 C 
ATOM     20  C   LIG    1       23.484 -15.574   4.485  0.00  0.00    +0.033 C 
ENDBRANCH   1  20
BRANCH   2  21
ATOM     21  C   LIG    1       26.505 -17.888   3.304  0.00  0.00    +0.033 C 
ATOM     22  C   LIG    1       27.542 -17.946   4.422  0.00  0.00    +0.009 C 
ENDBRANCH   2  21
TORSDOF 6
ENDMDL
MODEL 4
REMARK VINA RESULT:      -2.6      0.885      2.564
REMARK  Name = *****
REMARK                            x       y       z     vdW  Elec       q    Type
REMARK                         _______ _______ _______ _____ _____    ______ ____
ROOT
ATOM      1  C   LIG    1       23.926 -16.807   4.064  0.00  0.00    -0.037 C 
ATOM      2  C   LIG    1       25.184 -16.824   3.556  0.00  0.00    -0.037 C 
ENDROOT
BRANCH   1   3
ATOM      3  C   LIG    1       23.168 -18.063   4.244  0.00  0.00    -0.021 A 
ATOM      4  C   LIG    1       21.853 -18.163   3.772  0.00  0.00    +0.012 A 
ATOM      5  C   LIG    1       21.135 -19.350   3.933  0.00  0.00    +0.046 A 
ATOM      6  C   LIG    1       21.728 -20.432   4.573  0.00  0.00    +0.117 A 
ATOM      7  C   LIG    1       23.029 -20.348   5.060  0.00  0.00    +0.046 A 
ATOM      8  C   LIG    1       23.749 -19.161   4.894  0.00  0.00    +0.012 A 
BRANCH   6   9
ATOM      9  O   LIG    1       20.992 -21.572   4.703  0.00  0.00    -0.507 OA
ATOM     10  H   LIG    1       20.796 -21.708   5.644  0.00  0.00    +0.292 HD
ENDBRANCH   6   9
ENDBRANCH   1   3
BRANCH   2  11
ATOM     11  C   LIG    1       25.951 -15.573   3.400  0.00  0.00    -0.021 A 
ATOM     12  C   LIG    1       27.193 -15.423   4.033  0.00  0.00    +0.012 A 
ATOM     13  C   LIG    1       27.922 -14.241   3.880  0.00  0.00    +0.046 A 
ATOM     14  C   LIG    1       27.414 -13.216   3.093  0.00  0.00    +0.117 A 
ATOM     15  C   LIG    1       26.181 -13.346   2.460  0.00  0.00    +0.046 A 
ATOM     16  C   LIG    1       25.449 -14.525   2.618  0.00  0.00    +0.012 A 
BRANCH  14  17
ATOM     17  O   LIG    1       28.162 -12.085   2.962  0.00  0.00    -0.507 OA
ATOM     18  H   LIG    1       29.095 -12.312   3.112  0.00  0.00    +0.292 HD
ENDBRANCH  14  17
ENDBRANCH   2  11
BRANCH   1  20
ATOM     19  C   LIG    1       22.339 -15.668   5.712  0.00  0.00    +0.009 C 
ATOM     20  C   LIG    1       23.134 -15.557   4.417  0.00  0.00    +0.033 C 
ENDBRANCH   1  20
BRANCH   2  21
ATOM     21  C   LIG    1       25.960 -18.069   3.159  0.00  0.00    +0.033 C 
ATOM     22  C   LIG    1       26.868 -18.578   4.276  0.00  0.00    +0.009 C 
ENDBRANCH   2  21
TORSDOF 6
ENDMDL
MODEL 5
REMARK VINA RESULT:      -2.5      0.881      6.641
REMARK  Name = *****
REMARK                            x       y       z     vdW  Elec       q    Type
REMARK                         _______ _______ _______ _____ _____    ______ ____
ROOT
ATOM      1  C   LIG    1       25.208 -16.810   3.633  0.00  0.00    -0.037 C 
ATOM      2  C   LIG    1       23.917 -16.788   4.049  0.00  0.00    -0.037 C 
ENDROOT
BRANCH   1   3
ATOM      3  C   LIG    1       25.969 -15.553   3.471  0.00  0.00    -0.021 A 
ATOM      4  C   LIG    1       27.202 -15.390   4.117  0.00  0.00    +0.012 A 
ATOM      5  C   LIG    1       27.927 -14.208   3.962  0.00  0.00    +0.046 A 
ATOM      6  C   LIG    1       27.418 -13.186   3.168  0.00  0.00    +0.117 A 
ATOM      7  C   LIG    1       26.190 -13.324   2.529  0.00  0.00    +0.046 A 
ATOM      8  C   LIG    1       25.466 -14.510   2.681  0.00  0.00    +0.012 A 
BRANCH   6   9
ATOM      9  O   LIG    1       28.163 -12.052   3.041  0.00  0.00    -0.507 OA
ATOM     10  H   LIG    1       28.389 -11.728   3.928  0.00  0.00    +0.292 HD
ENDBRANCH   6   9
ENDBRANCH   1   3
BRANCH   2  11
ATOM     11  C   LIG    1       23.164 -18.044   4.235  0.00  0.00    -0.021 A 
ATOM     12  C   LIG    1       21.876 -18.181   3.701  0.00  0.00    +0.012 A 
ATOM     13  C   LIG    1       21.166 -19.372   3.872  0.00  0.00    +0.046 A 
ATOM     14  C   LIG    1       21.745 -20.424   4.569  0.00  0.00    +0.117 A 
ATOM     15  C   LIG    1       23.022 -20.305   5.110  0.00  0.00    +0.046 A 
ATOM     16  C   LIG    1       23.729 -19.112   4.945  0.00  0.00    +0.012 A 
BRANCH  14  17
ATOM     17  O   LIG    1       21.022 -21.571   4.704  0.00  0.00    -0.507 OA
ATOM     18  H   LIG    1       21.034 -21.836   5.639  0.00  0.00    +0.292 HD
ENDBRANCH  14  17
ENDBRANCH   2  11
BRANCH   1  20
ATOM     19  C   LIG    1       26.855 -18.642   4.317  0.00  0.00    +0.009 C 
ATOM     20  C   LIG    1       25.981 -18.052   3.217  0.00  0.00    +0.033 C 
ENDBRANCH   1  20
BRANCH   2  21
ATOM     21  C   LIG    1       23.129 -15.543   4.421  0.00  0.00    +0.033 C 
ATOM     22  C   LIG    1       22.330 -15.716   5.710  0.00  0.00    +0.009 C 
ENDBRANCH   2  21
TORSDOF 6
ENDMDL
MODEL 6
REMARK VINA RESULT:      -1.9      1.110      6.665
REMARK  Name = *****
REMARK                            x       y       z     vdW  Elec       q    Type
REMARK                         _______ _______ _______ _____ _____    ______ ____
ROOT
ATOM      1  C   LIG    1       26.015 -15.908   3.978  0.00  0.00    -0.037 C 
ATOM      2  C   LIG    1       24.675 -15.763   4.131  0.00  0.00    -0.037 C 
ENDROOT
BRANCH   1   3
ATOM      3  C   LIG    1       26.913 -14.736   4.046  0.00  0.00    -0.021 A 
ATOM      4  C   LIG    1       27.121 -14.082   5.267  0.00  0.00    +0.012 A 
ATOM      5  C   LIG    1       27.974 -12.978   5.337  0.00  0.00    +0.046 A 
ATOM      6  C   LIG    1       28.610 -12.524   4.188  0.00  0.00    +0.117 A 
ATOM      7  C   LIG    1       28.406 -13.153   2.964  0.00  0.00    +0.046 A 
ATOM      8  C   LIG    1       27.556 -14.261   2.894  0.00  0.00    +0.012 A 
BRANCH   6   9
ATOM      9  O   LIG    1       29.437 -11.447   4.305  0.00  0.00    -0.507 OA
ATOM     10  H   LIG    1       30.292 -11.666   3.901  0.00  0.00    +0.292 HD
ENDBRANCH   6   9
ENDBRANCH   1   3
BRANCH   2  11
ATOM     11  C   LIG    1       23.780 -16.937   4.088  0.00  0.00    -0.021 A 
ATOM     12  C   LIG    1       24.274 -18.187   3.692  0.00  0.00    +0.012 A 
ATOM     13  C   LIG    1       23.429 -19.298   3.658  0.00  0.00    +0.046 A 
ATOM     14  C   LIG    1       22.097 -19.161   4.024  0.00  0.00    +0.117 A 
ATOM     15  C   LIG    1       21.588 -17.926   4.417  0.00  0.00    +0.046 A 
ATOM     16  C   LIG    1       22.431 -16.814   4.444  0.00  0.00    +0.012 A 
BRANCH  14  17
ATOM     17  O   LIG    1       21.309 -20.273   3.987  0.00  0.00    -0.507 OA
ATOM     18  H   LIG    1       21.046 -20.495   4.895  0.00  0.00    +0.292 HD
ENDBRANCH  14  17
ENDBRANCH   2  11
BRANCH   1  20
ATOM     19  C   LIG    1       27.999 -17.447   4.455  0.00  0.00    +0.009 C 
ATOM     20  C   LIG    1       26.730 -17.209   3.647  0.00  0.00    +0.033 C 
ENDBRANCH   1  20
BRANCH   2  21
ATOM     21  C   LIG    1       23.954 -14.456   4.416  0.00  0.00    +0.033 C 
ATOM     22  C   LIG    1       23.916 -13.528   3.205  0.00  0.00    +0.009 C 
ENDBRANCH   2  21
TORSDOF 6
ENDMDL
MODEL 7
REMARK VINA RESULT:      -1.9      2.702      6.106
REMARK  Name = *****
REMARK                            x       y       z     vdW  Elec       q    Type
REMARK                         _______ _______ _______ _____ _____    ______ ____
ROOT
ATOM      1  C   LIG    1       26.744 -15.710   4.139  0.00  0.00    -0.037 C 
ATOM      2  C   LIG    1       26.451 -17.018   3.929  0.00  0.00    -0.037 C 
ENDROOT
BRANCH   1   3
ATOM      3  C   LIG    1       25.927 -14.646   3.520  0.00  0.00    -0.021 A 
ATOM      4  C   LIG    1       24.654 -14.354   4.024  0.00  0.00    +0.012 A 
ATOM      5  C   LIG    1       23.881 -13.345   3.447  0.00  0.00    +0.046 A 
ATOM      6  C   LIG    1       24.378 -12.634   2.361  0.00  0.00    +0.117 A 
ATOM      7  C   LIG    1       25.635 -12.917   1.837  0.00  0.00    +0.046 A 
ATOM      8  C   LIG    1       26.410 -13.924   2.419  0.00  0.00    +0.012 A 
BRANCH   6   9
ATOM      9  O   LIG    1       23.591 -11.654   1.832  0.00  0.00    -0.507 OA
ATOM     10  H   LIG    1       22.846 -11.495   2.434  0.00  0.00    +0.292 HD
ENDBRANCH   6   9
ENDBRANCH   1   3
BRANCH   2  11
ATOM     11  C   LIG    1       27.251 -18.082   4.568  0.00  0.00    -0.021 A 
ATOM     12  C   LIG    1       26.693 -19.348   4.790  0.00  0.00    +0.012 A 
ATOM     13  C   LIG    1       27.452 -20.356   5.389  0.00  0.00    +0.046 A 
ATOM     14  C   LIG    1       28.766 -20.101   5.757  0.00  0.00    +0.117 A 
ATOM     15  C   LIG    1       29.336 -18.849   5.548  0.00  0.00    +0.046 A 
ATOM     16  C   LIG    1       28.576 -17.838   4.955  0.00  0.00    +0.012 A 
BRANCH  14  17
ATOM     17  O   LIG    1       29.474 -21.116   6.329  0.00  0.00    -0.507 OA
ATOM     18  H   LIG    1       29.251 -21.944   5.872  0.00  0.00    +0.292 HD
ENDBRANCH  14  17
ENDBRANCH   2  11
BRANCH   1  20
ATOM     19  C   LIG    1       27.778 -13.757   5.425  0.00  0.00    +0.009 C 
ATOM     20  C   LIG    1       27.937 -15.188   4.925  0.00  0.00    +0.033 C 
ENDBRANCH   1  20
BRANCH   2  21
ATOM     21  C   LIG    1       25.286 -17.542   3.106  0.00  0.00    +0.033 C 
ATOM     22  C   LIG    1       24.021 -17.741   3.935  0.00  0.00    +0.009 C 
ENDBRANCH   2  21
TORSDOF 6
ENDMDL
