MODEL 1
REMARK VINA RESULT:      -4.8      0.000      0.000
REMARK  Name = *****
REMARK                            x       y       z     vdW  Elec       q    Type
REMARK                         _______ _______ _______ _____ _____    ______ ____
ROOT
ATOM      1  C   LIG    1       25.469 -31.743  11.114  0.00  0.00    +0.270 C 
ATOM      2  C   LIG    1       23.732 -31.351  10.967  0.00  0.00    +0.187 C 
ATOM      3  O   LIG    1       23.153 -31.865   9.983  0.00  0.00    -0.292 OA
ATOM      4  C   LIG    1       22.652 -30.438  12.053  0.00  0.00    +0.066 C 
ATOM      5  C   LIG    1       23.046 -28.744  12.751  0.00  0.00    +0.097 C 
ATOM      6  C   LIG    1       21.706 -28.204  13.385  0.00  0.00    +0.170 C 
ATOM      7  C   LIG    1       20.783 -28.060  12.121  0.00  0.00    +0.167 C 
ATOM      8  C   LIG    1       20.172 -29.352  11.693  0.00  0.00    +0.068 C 
ATOM      9  O   LIG    1       19.938 -27.121  12.831  0.00  0.00    -0.368 OA
ATOM     10  C   LIG    1       21.169 -26.718  13.558  0.00  0.00    +0.211 C 
ATOM     11  C   LIG    1       24.459 -28.129  13.776  0.00  0.00    +0.217 C 
ATOM     12  C   LIG    1       26.130 -28.935  14.015  0.00  0.00    +0.116 C 
ATOM     13  C   LIG    1       27.185 -30.080  13.009  0.00  0.00    +0.023 C 
ATOM     14  C   LIG    1       28.200 -30.766  14.069  0.00  0.00    +0.019 C 
ATOM     15  C   LIG    1       28.286 -29.387  12.153  0.00  0.00    +0.019 C 
ATOM     16  C   LIG    1       25.526 -29.968  14.849  0.00  0.00    +0.088 C 
ATOM     17  C   LIG    1       24.889 -30.574  13.644  0.00  0.00    +0.205 C 
ATOM     18  C   LIG    1       25.562 -31.857  13.406  0.00  0.00    -0.029 C 
ATOM     19  C   LIG    1       24.898 -33.148  13.727  0.00  0.00    +0.043 C 
ATOM     20  C   LIG    1       22.019 -31.551  13.002  0.00  0.00    +0.022 C 
ATOM     21  C   LIG    1       21.322 -30.197  11.096  0.00  0.00    +0.131 C 
ATOM     22  C   LIG    1       26.378 -31.504  12.413  0.00  0.00    -0.011 C 
ENDROOT
BRANCH  21  23
ATOM     23  O   LIG    1       20.681 -31.431  10.728  0.00  0.00    -0.391 OA
ATOM     24  H   LIG    1       21.324 -32.152  10.898  0.00  0.00    +0.210 HD
ENDBRANCH  21  23
BRANCH  12  25
ATOM     25  O   LIG    1       26.974 -28.187  14.865  0.00  0.00    -0.384 OA
ATOM     26  H   LIG    1       26.568 -27.304  14.962  0.00  0.00    +0.210 HD
ENDBRANCH  12  25
BRANCH  17  27
ATOM     27  O   LIG    1       24.997 -29.667  12.069  0.00  0.00    -0.455 OA
BRANCH  27  28
ATOM     28  C   LIG    1       25.696 -28.791  11.183  0.00  0.00    +0.339 C 
ATOM     29  O   LIG    1       25.833 -27.591  11.395  0.00  0.00    -0.248 OA
BRANCH  28  30
ATOM     30  C   LIG    1       26.120 -29.373   9.775  0.00  0.00    +0.247 C 
BRANCH  30  31
ATOM     31  O   LIG    1       27.345 -28.893   9.251  0.00  0.00    -0.379 OA
ATOM     32  H   LIG    1       28.056 -29.514   9.494  0.00  0.00    +0.211 HD
ENDBRANCH  30  31
BRANCH  30  33
ATOM     33  C   LIG    1       24.969 -29.242   8.681  0.00  0.00    +0.143 C 
BRANCH  33  34
ATOM     34  C   LIG    1       25.016 -30.350   7.604  0.00  0.00    -0.024 A 
ATOM     35  C   LIG    1       26.214 -31.056   7.377  0.00  0.00    +0.005 A 
ATOM     36  C   LIG    1       26.281 -32.093   6.436  0.00  0.00    +0.000 A 
ATOM     37  C   LIG    1       25.159 -32.435   5.687  0.00  0.00    +0.000 A 
ATOM     38  C   LIG    1       23.957 -31.771   5.912  0.00  0.00    +0.000 A 
ATOM     39  C   LIG    1       23.883 -30.748   6.868  0.00  0.00    +0.005 A 
ENDBRANCH  33  34
BRANCH  33  40
ATOM     40  N   LIG    1       24.970 -27.925   8.009  0.00  0.00    -0.301 N 
ATOM     41  H   LIG    1       24.689 -27.143   8.586  0.00  0.00    +0.150 HD
ATOM     42  C   LIG    1       25.484 -27.660   6.765  0.00  0.00    +0.245 C 
ATOM     43  O   LIG    1       25.971 -28.542   6.027  0.00  0.00    -0.270 OA
BRANCH  42  44
ATOM     44  C   LIG    1       25.458 -26.231   6.299  0.00  0.00    +0.037 A 
ATOM     45  C   LIG    1       24.957 -25.881   5.034  0.00  0.00    +0.013 A 
ATOM     46  C   LIG    1       24.786 -24.535   4.685  0.00  0.00    +0.001 A 
ATOM     47  C   LIG    1       25.115 -23.525   5.584  0.00  0.00    +0.000 A 
ATOM     48  C   LIG    1       25.683 -23.857   6.813  0.00  0.00    +0.001 A 
ATOM     49  C   LIG    1       25.866 -25.201   7.163  0.00  0.00    +0.013 A 
ENDBRANCH  42  44
ENDBRANCH  33  40
ENDBRANCH  30  33
ENDBRANCH  28  30
ENDBRANCH  27  28
ENDBRANCH  17  27
BRANCH  11  50
ATOM     50  O   LIG    1       24.706 -26.684  13.614  0.00  0.00    -0.455 OA
BRANCH  50  51
ATOM     51  C   LIG    1       24.359 -25.923  14.712  0.00  0.00    +0.340 C 
ATOM     52  O   LIG    1       23.309 -26.054  15.324  0.00  0.00    -0.245 OA
BRANCH  51  53
ATOM     53  C   LIG    1       25.482 -25.064  15.208  0.00  0.00    +0.059 A 
ATOM     54  C   LIG    1       26.792 -25.587  15.247  0.00  0.00    +0.015 A 
ATOM     55  C   LIG    1       27.894 -24.727  15.368  0.00  0.00    +0.001 A 
ATOM     56  C   LIG    1       27.690 -23.351  15.450  0.00  0.00    +0.000 A 
ATOM     57  C   LIG    1       26.391 -22.842  15.500  0.00  0.00    +0.001 A 
ATOM     58  C   LIG    1       25.288 -23.700  15.422  0.00  0.00    +0.015 A 
ENDBRANCH  51  53
ENDBRANCH  50  51
ENDBRANCH  11  50
BRANCH   6  59
ATOM     59  O   LIG    1       21.243 -29.174  14.366  0.00  0.00    -0.453 OA
BRANCH  59  60
ATOM     60  C   LIG    1       20.003 -28.984  14.911  0.00  0.00    +0.305 C 
ATOM     61  O   LIG    1       19.638 -28.019  15.497  0.00  0.00    -0.251 OA
ATOM     62  C   LIG    1       19.177 -30.229  14.726  0.00  0.00    +0.136 C 
ENDBRANCH  59  60
ENDBRANCH   6  59
BRANCH   1  63
ATOM     63  O   LIG    1       25.542 -33.201  10.936  0.00  0.00    -0.449 OA
BRANCH  63  65
ATOM     64  C   LIG    1       27.410 -33.802   9.644  0.00  0.00    +0.136 C 
ATOM     65  C   LIG    1       25.911 -33.659   9.711  0.00  0.00    +0.305 C 
ATOM     66  O   LIG    1       25.162 -33.814   8.759  0.00  0.00    -0.251 OA
ENDBRANCH  63  65
ENDBRANCH   1  63
TORSDOF 17
ENDMDL
MODEL 2
REMARK VINA RESULT:      -4.5      1.692      3.399
REMARK  Name = *****
REMARK                            x       y       z     vdW  Elec       q    Type
REMARK                         _______ _______ _______ _____ _____    ______ ____
ROOT
ATOM      1  C   LIG    1       21.953 -32.635  10.605  0.00  0.00    +0.270 C 
ATOM      2  C   LIG    1       21.086 -31.290  11.403  0.00  0.00    +0.187 C 
ATOM      3  O   LIG    1       19.858 -31.238  11.169  0.00  0.00    -0.292 OA
ATOM      4  C   LIG    1       21.659 -30.072  12.572  0.00  0.00    +0.066 C 
ATOM      5  C   LIG    1       23.201 -29.032  12.340  0.00  0.00    +0.097 C 
ATOM      6  C   LIG    1       23.142 -27.903  13.440  0.00  0.00    +0.170 C 
ATOM      7  C   LIG    1       21.875 -27.085  13.000  0.00  0.00    +0.167 C 
ATOM      8  C   LIG    1       20.593 -27.711  13.438  0.00  0.00    +0.068 C 
ATOM      9  O   LIG    1       22.345 -25.933  13.741  0.00  0.00    -0.368 OA
ATOM     10  C   LIG    1       23.714 -26.419  13.432  0.00  0.00    +0.211 C 
ATOM     11  C   LIG    1       24.974 -29.494  12.081  0.00  0.00    +0.217 C 
ATOM     12  C   LIG    1       25.652 -31.144  11.517  0.00  0.00    +0.116 C 
ATOM     13  C   LIG    1       24.999 -32.545  10.493  0.00  0.00    +0.023 C 
ATOM     14  C   LIG    1       25.908 -33.824  10.894  0.00  0.00    +0.019 C 
ATOM     15  C   LIG    1       25.409 -32.515   8.992  0.00  0.00    +0.019 C 
ATOM     16  C   LIG    1       25.332 -31.732  12.813  0.00  0.00    +0.088 C 
ATOM     17  C   LIG    1       23.879 -31.690  12.476  0.00  0.00    +0.205 C 
ATOM     18  C   LIG    1       23.444 -33.081  12.294  0.00  0.00    -0.029 C 
ATOM     19  C   LIG    1       22.623 -33.774  13.321  0.00  0.00    +0.043 C 
ATOM     20  C   LIG    1       21.357 -30.722  13.995  0.00  0.00    +0.022 C 
ATOM     21  C   LIG    1       20.414 -28.980  12.572  0.00  0.00    +0.131 C 
ATOM     22  C   LIG    1       23.431 -33.141  10.962  0.00  0.00    -0.011 C 
ENDROOT
BRANCH  21  23
ATOM     23  O   LIG    1       19.184 -29.550  13.054  0.00  0.00    -0.391 OA
ATOM     24  H   LIG    1       19.142 -29.369  14.017  0.00  0.00    +0.210 HD
ENDBRANCH  21  23
BRANCH  12  25
ATOM     25  O   LIG    1       27.061 -31.144  11.422  0.00  0.00    -0.384 OA
ATOM     26  H   LIG    1       27.406 -30.917  12.307  0.00  0.00    +0.210 HD
ENDBRANCH  12  25
BRANCH  17  27
ATOM     27  O   LIG    1       23.374 -30.818  10.960  0.00  0.00    -0.455 OA
BRANCH  27  28
ATOM     28  C   LIG    1       23.172 -30.795   9.546  0.00  0.00    +0.339 C 
ATOM     29  O   LIG    1       22.283 -31.426   8.984  0.00  0.00    -0.248 OA
BRANCH  28  30
ATOM     30  C   LIG    1       24.282 -30.089   8.669  0.00  0.00    +0.247 C 
BRANCH  30  31
ATOM     31  O   LIG    1       24.771 -28.855   9.165  0.00  0.00    -0.379 OA
ATOM     32  H   LIG    1       24.990 -28.278   8.410  0.00  0.00    +0.211 HD
ENDBRANCH  30  31
BRANCH  30  33
ATOM     33  C   LIG    1       23.854 -29.931   7.142  0.00  0.00    +0.143 C 
BRANCH  33  34
ATOM     34  C   LIG    1       24.498 -30.984   6.211  0.00  0.00    -0.024 A 
ATOM     35  C   LIG    1       23.681 -31.906   5.526  0.00  0.00    +0.005 A 
ATOM     36  C   LIG    1       24.228 -32.848   4.644  0.00  0.00    +0.000 A 
ATOM     37  C   LIG    1       25.604 -32.903   4.441  0.00  0.00    +0.000 A 
ATOM     38  C   LIG    1       26.429 -31.986   5.084  0.00  0.00    +0.000 A 
ATOM     39  C   LIG    1       25.881 -31.029   5.951  0.00  0.00    +0.005 A 
ENDBRANCH  33  34
BRANCH  33  40
ATOM     40  N   LIG    1       24.141 -28.583   6.607  0.00  0.00    -0.301 N 
ATOM     41  H   LIG    1       23.375 -28.136   6.119  0.00  0.00    +0.150 HD
ATOM     42  C   LIG    1       25.262 -27.837   6.873  0.00  0.00    +0.245 C 
ATOM     43  O   LIG    1       26.208 -28.254   7.573  0.00  0.00    -0.270 OA
BRANCH  42  44
ATOM     44  C   LIG    1       25.321 -26.452   6.292  0.00  0.00    +0.037 A 
ATOM     45  C   LIG    1       24.724 -26.147   5.058  0.00  0.00    +0.013 A 
ATOM     46  C   LIG    1       24.644 -24.820   4.614  0.00  0.00    +0.001 A 
ATOM     47  C   LIG    1       25.161 -23.785   5.388  0.00  0.00    +0.000 A 
ATOM     48  C   LIG    1       25.822 -24.081   6.579  0.00  0.00    +0.001 A 
ATOM     49  C   LIG    1       25.914 -25.407   7.022  0.00  0.00    +0.013 A 
ENDBRANCH  42  44
ENDBRANCH  33  40
ENDBRANCH  30  33
ENDBRANCH  28  30
ENDBRANCH  27  28
ENDBRANCH  17  27
BRANCH  11  50
ATOM     50  O   LIG    1       25.744 -28.456  11.371  0.00  0.00    -0.455 OA
BRANCH  50  51
ATOM     51  C   LIG    1       27.064 -28.360  11.765  0.00  0.00    +0.340 C 
ATOM     52  O   LIG    1       28.009 -28.671  11.055  0.00  0.00    -0.245 OA
BRANCH  51  53
ATOM     53  C   LIG    1       27.235 -27.642  13.069  0.00  0.00    +0.059 A 
ATOM     54  C   LIG    1       27.978 -28.251  14.104  0.00  0.00    +0.015 A 
ATOM     55  C   LIG    1       28.447 -27.486  15.182  0.00  0.00    +0.001 A 
ATOM     56  C   LIG    1       28.177 -26.119  15.229  0.00  0.00    +0.000 A 
ATOM     57  C   LIG    1       27.369 -25.537  14.250  0.00  0.00    +0.001 A 
ATOM     58  C   LIG    1       26.864 -26.305  13.196  0.00  0.00    +0.015 A 
ENDBRANCH  51  53
ENDBRANCH  50  51
ENDBRANCH  11  50
BRANCH   6  59
ATOM     59  O   LIG    1       23.028 -28.541  14.743  0.00  0.00    -0.453 OA
BRANCH  59  60
ATOM     60  C   LIG    1       24.131 -29.184  15.234  0.00  0.00    +0.305 C 
ATOM     61  O   LIG    1       25.210 -28.711  15.377  0.00  0.00    -0.251 OA
ATOM     62  C   LIG    1       23.794 -30.628  15.499  0.00  0.00    +0.136 C 
ENDBRANCH  59  60
ENDBRANCH   6  59
BRANCH   1  63
ATOM     63  O   LIG    1       21.132 -33.824  10.876  0.00  0.00    -0.449 OA
BRANCH  63  65
ATOM     64  C   LIG    1       19.008 -33.824  11.879  0.00  0.00    +0.136 C 
ATOM     65  C   LIG    1       19.804 -33.738  10.602  0.00  0.00    +0.305 C 
ATOM     66  O   LIG    1       19.311 -33.721   9.486  0.00  0.00    -0.251 OA
ENDBRANCH  63  65
ENDBRANCH   1  63
TORSDOF 17
ENDMDL
MODEL 3
REMARK VINA RESULT:      -1.9      1.762      4.055
REMARK  Name = *****
REMARK                            x       y       z     vdW  Elec       q    Type
REMARK                         _______ _______ _______ _____ _____    ______ ____
ROOT
ATOM      1  C   LIG    1       23.073 -32.198   9.797  0.00  0.00    +0.270 C 
ATOM      2  C   LIG    1       21.870 -31.171  10.629  0.00  0.00    +0.187 C 
ATOM      3  O   LIG    1       20.715 -31.210  10.147  0.00  0.00    -0.292 OA
ATOM      4  C   LIG    1       22.011 -30.184  12.107  0.00  0.00    +0.066 C 
ATOM      5  C   LIG    1       23.384 -28.948  12.422  0.00  0.00    +0.097 C 
ATOM      6  C   LIG    1       22.940 -28.105  13.679  0.00  0.00    +0.170 C 
ATOM      7  C   LIG    1       21.666 -27.360  13.138  0.00  0.00    +0.167 C 
ATOM      8  C   LIG    1       20.440 -28.211  13.156  0.00  0.00    +0.068 C 
ATOM      9  O   LIG    1       21.800 -26.354  14.171  0.00  0.00    -0.368 OA
ATOM     10  C   LIG    1       23.262 -26.600  14.081  0.00  0.00    +0.211 C 
ATOM     11  C   LIG    1       25.225 -29.136  12.473  0.00  0.00    +0.217 C 
ATOM     12  C   LIG    1       26.250 -30.531  11.765  0.00  0.00    +0.116 C 
ATOM     13  C   LIG    1       26.032 -31.737  10.374  0.00  0.00    +0.023 C 
ATOM     14  C   LIG    1       27.039 -32.960  10.710  0.00  0.00    +0.019 C 
ATOM     15  C   LIG    1       26.710 -31.330   9.032  0.00  0.00    +0.019 C 
ATOM     16  C   LIG    1       25.786 -31.423  12.822  0.00  0.00    +0.088 C 
ATOM     17  C   LIG    1       24.435 -31.475  12.190  0.00  0.00    +0.205 C 
ATOM     18  C   LIG    1       24.269 -32.832  11.653  0.00  0.00    -0.029 C 
ATOM     19  C   LIG    1       23.387 -33.824  12.323  0.00  0.00    +0.043 C 
ATOM     20  C   LIG    1       21.550 -31.162  13.277  0.00  0.00    +0.022 C 
ATOM     21  C   LIG    1       20.632 -29.269  12.044  0.00  0.00    +0.131 C 
ATOM     22  C   LIG    1       24.518 -32.598  10.365  0.00  0.00    -0.011 C 
ENDROOT
BRANCH  21  23
ATOM     23  O   LIG    1       19.439 -30.069  12.127  0.00  0.00    -0.391 OA
ATOM     24  H   LIG    1       18.977 -29.987  11.265  0.00  0.00    +0.210 HD
ENDBRANCH  21  23
BRANCH  12  25
ATOM     25  O   LIG    1       27.633 -30.349  11.982  0.00  0.00    -0.384 OA
ATOM     26  H   LIG    1       27.792 -30.488  12.935  0.00  0.00    +0.210 HD
ENDBRANCH  12  25
BRANCH  17  27
ATOM     27  O   LIG    1       24.096 -30.354  10.796  0.00  0.00    -0.455 OA
BRANCH  27  28
ATOM     28  C   LIG    1       24.351 -29.916   9.461  0.00  0.00    +0.339 C 
ATOM     29  O   LIG    1       23.666 -30.250   8.501  0.00  0.00    -0.248 OA
BRANCH  28  30
ATOM     30  C   LIG    1       25.704 -29.137   9.202  0.00  0.00    +0.247 C 
BRANCH  30  31
ATOM     31  O   LIG    1       25.784 -27.836   9.755  0.00  0.00    -0.379 OA
ATOM     32  H   LIG    1       25.403 -27.201   9.121  0.00  0.00    +0.211 HD
ENDBRANCH  30  31
BRANCH  30  33
ATOM     33  C   LIG    1       26.109 -29.100   7.661  0.00  0.00    +0.143 C 
BRANCH  33  34
ATOM     34  C   LIG    1       25.635 -27.823   6.931  0.00  0.00    -0.024 A 
ATOM     35  C   LIG    1       26.557 -26.797   6.645  0.00  0.00    +0.005 A 
ATOM     36  C   LIG    1       26.170 -25.643   5.949  0.00  0.00    +0.000 A 
ATOM     37  C   LIG    1       24.849 -25.480   5.542  0.00  0.00    +0.000 A 
ATOM     38  C   LIG    1       23.925 -26.490   5.789  0.00  0.00    +0.000 A 
ATOM     39  C   LIG    1       24.316 -27.654   6.466  0.00  0.00    +0.005 A 
ENDBRANCH  33  34
BRANCH  33  40
ATOM     40  N   LIG    1       25.624 -30.282   6.917  0.00  0.00    -0.301 N 
ATOM     41  H   LIG    1       25.122 -30.967   7.467  0.00  0.00    +0.150 HD
ATOM     42  C   LIG    1       25.633 -30.429   5.553  0.00  0.00    +0.245 C 
ATOM     43  O   LIG    1       26.116 -29.576   4.779  0.00  0.00    -0.270 OA
BRANCH  42  44
ATOM     44  C   LIG    1       25.015 -31.678   4.990  0.00  0.00    +0.037 A 
ATOM     45  C   LIG    1       23.943 -32.320   5.632  0.00  0.00    +0.013 A 
ATOM     46  C   LIG    1       23.274 -33.382   5.008  0.00  0.00    +0.001 A 
ATOM     47  C   LIG    1       23.666 -33.820   3.746  0.00  0.00    +0.000 A 
ATOM     48  C   LIG    1       24.775 -33.241   3.132  0.00  0.00    +0.001 A 
ATOM     49  C   LIG    1       25.454 -32.187   3.755  0.00  0.00    +0.013 A 
ENDBRANCH  42  44
ENDBRANCH  33  40
ENDBRANCH  30  33
ENDBRANCH  28  30
ENDBRANCH  27  28
ENDBRANCH  17  27
BRANCH  11  50
ATOM     50  O   LIG    1       25.942 -27.885  12.162  0.00  0.00    -0.455 OA
BRANCH  50  51
ATOM     51  C   LIG    1       27.017 -27.627  12.989  0.00  0.00    +0.340 C 
ATOM     52  O   LIG    1       28.088 -28.212  12.913  0.00  0.00    -0.245 OA
BRANCH  51  53
ATOM     53  C   LIG    1       26.816 -26.418  13.852  0.00  0.00    +0.059 A 
ATOM     54  C   LIG    1       27.743 -26.137  14.879  0.00  0.00    +0.015 A 
ATOM     55  C   LIG    1       27.786 -24.863  15.463  0.00  0.00    +0.001 A 
ATOM     56  C   LIG    1       26.908 -23.872  15.025  0.00  0.00    +0.000 A 
ATOM     57  C   LIG    1       25.935 -24.178  14.072  0.00  0.00    +0.001 A 
ATOM     58  C   LIG    1       25.861 -25.460  13.518  0.00  0.00    +0.015 A 
ENDBRANCH  51  53
ENDBRANCH  50  51
ENDBRANCH  11  50
BRANCH   6  59
ATOM     59  O   LIG    1       22.683 -29.024  14.778  0.00  0.00    -0.453 OA
BRANCH  59  60
ATOM     60  C   LIG    1       23.739 -29.746  15.262  0.00  0.00    +0.305 C 
ATOM     61  O   LIG    1       24.823 -29.326  15.498  0.00  0.00    -0.251 OA
ATOM     62  C   LIG    1       23.344 -31.194  15.380  0.00  0.00    +0.136 C 
ENDBRANCH  59  60
ENDBRANCH   6  59
BRANCH   1  63
ATOM     63  O   LIG    1       22.415 -33.504   9.648  0.00  0.00    -0.449 OA
BRANCH  63  65
ATOM     64  C   LIG    1       20.085 -33.717   9.868  0.00  0.00    +0.136 C 
ATOM     65  C   LIG    1       21.257 -33.538   8.937  0.00  0.00    +0.305 C 
ATOM     66  O   LIG    1       21.175 -33.551   7.719  0.00  0.00    -0.251 OA
ENDBRANCH  63  65
ENDBRANCH   1  63
TORSDOF 17
ENDMDL
