MODEL 1
REMARK VINA RESULT:      -5.0      0.000      0.000
REMARK  Name = *****
REMARK                            x       y       z     vdW  Elec       q    Type
REMARK                         _______ _______ _______ _____ _____    ______ ____
ROOT
ATOM      1  C   LIG    1       24.504 -31.210   9.565  0.00  0.00    +0.064 A 
ATOM      2  C   LIG    1       23.166 -31.699   9.710  0.00  0.00    +0.049 A 
ATOM      3  I   LIG    1       22.601 -33.471   8.576  0.00  0.00    -0.041 I 
ATOM      4  C   LIG    1       22.293 -31.167  10.705  0.00  0.00    +0.065 A 
ATOM      5  C   LIG    1       22.870 -30.334  11.708  0.00  0.00    +0.040 A 
ATOM      6  I   LIG    1       21.908 -30.140  13.629  0.00  0.00    -0.042 I 
ATOM      7  C   LIG    1       24.196 -29.836  11.596  0.00  0.00    +0.065 A 
ATOM      8  C   LIG    1       24.959 -30.215  10.475  0.00  0.00    +0.049 A 
ATOM      9  I   LIG    1       26.758 -29.037  10.006  0.00  0.00    -0.041 I 
ENDROOT
BRANCH   4  10
ATOM     10  C   LIG    1       20.776 -31.426  10.645  0.00  0.00    +0.246 C 
ATOM     11  N   LIG    1       20.336 -32.535  11.361  0.00  0.00    -0.309 N 
ATOM     12  H   LIG    1       20.994 -33.149  11.812  0.00  0.00    +0.149 HD
ATOM     13  O   LIG    1       19.996 -30.709  10.064  0.00  0.00    -0.270 OA
BRANCH  11  14
ATOM     14  C   LIG    1       18.924 -32.950  11.404  0.00  0.00    +0.138 C 
BRANCH  14  15
ATOM     15  C   LIG    1       18.197 -32.520  12.700  0.00  0.00    +0.157 C 
BRANCH  15  16
ATOM     16  O   LIG    1       17.309 -33.568  13.115  0.00  0.00    -0.388 OA
ATOM     17  H   LIG    1       16.408 -33.202  13.028  0.00  0.00    +0.210 HD
ENDBRANCH  15  16
BRANCH  15  18
ATOM     18  C   LIG    1       17.409 -31.212  12.566  0.00  0.00    +0.188 C 
BRANCH  18  19
ATOM     19  O   LIG    1       17.345 -30.847  11.192  0.00  0.00    -0.392 OA
ATOM     20  H   LIG    1       16.629 -31.382  10.795  0.00  0.00    +0.209 HD
ENDBRANCH  18  19
ENDBRANCH  15  18
ENDBRANCH  14  15
ENDBRANCH  11  14
ENDBRANCH   4  10
BRANCH   1  23
ATOM     21  C   LIG    1       27.407 -33.154   7.975  0.00  0.00    +0.110 C 
ATOM     22  C   LIG    1       26.307 -32.733   8.931  0.00  0.00    +0.217 C 
ATOM     23  N   LIG    1       25.419 -31.716   8.554  0.00  0.00    -0.267 N 
ATOM     24  O   LIG    1       26.236 -33.299  10.027  0.00  0.00    -0.276 OA
BRANCH  23  25
ATOM     25  C   LIG    1       25.415 -31.048   7.224  0.00  0.00    +0.147 C 
BRANCH  25  26
ATOM     26  C   LIG    1       24.108 -30.290   6.898  0.00  0.00    +0.158 C 
BRANCH  26  27
ATOM     27  O   LIG    1       23.361 -30.959   5.878  0.00  0.00    -0.388 OA
ATOM     28  H   LIG    1       22.466 -30.576   5.880  0.00  0.00    +0.210 HD
ENDBRANCH  26  27
BRANCH  26  29
ATOM     29  C   LIG    1       24.381 -28.891   6.350  0.00  0.00    +0.188 C 
BRANCH  29  30
ATOM     30  O   LIG    1       23.728 -28.679   5.110  0.00  0.00    -0.392 OA
ATOM     31  H   LIG    1       24.329 -28.987   4.410  0.00  0.00    +0.209 HD
ENDBRANCH  29  30
ENDBRANCH  26  29
ENDBRANCH  25  26
ENDBRANCH  23  25
ENDBRANCH   1  23
BRANCH   7  32
ATOM     32  C   LIG    1       24.787 -28.947  12.654  0.00  0.00    +0.246 C 
ATOM     33  N   LIG    1       25.617 -29.546  13.564  0.00  0.00    -0.309 N 
ATOM     34  H   LIG    1       26.019 -30.448  13.316  0.00  0.00    +0.149 HD
ATOM     35  O   LIG    1       24.522 -27.729  12.692  0.00  0.00    -0.270 OA
BRANCH  33  36
ATOM     36  C   LIG    1       26.289 -28.819  14.637  0.00  0.00    +0.138 C 
BRANCH  36  37
ATOM     37  C   LIG    1       27.709 -28.403  14.216  0.00  0.00    +0.157 C 
BRANCH  37  38
ATOM     38  O   LIG    1       27.668 -27.287  13.319  0.00  0.00    -0.388 OA
ATOM     39  H   LIG    1       27.414 -27.619  12.439  0.00  0.00    +0.210 HD
ENDBRANCH  37  38
BRANCH  37  40
ATOM     40  C   LIG    1       28.458 -29.560  13.555  0.00  0.00    +0.188 C 
BRANCH  40  41
ATOM     41  O   LIG    1       28.317 -30.762  14.297  0.00  0.00    -0.392 OA
ATOM     42  H   LIG    1       27.981 -31.444  13.689  0.00  0.00    +0.209 HD
ENDBRANCH  40  41
ENDBRANCH  37  40
ENDBRANCH  36  37
ENDBRANCH  33  36
ENDBRANCH   7  32
TORSDOF 18
ENDMDL
MODEL 2
REMARK VINA RESULT:      -5.0      1.806      6.707
REMARK  Name = *****
REMARK                            x       y       z     vdW  Elec       q    Type
REMARK                         _______ _______ _______ _____ _____    ______ ____
ROOT
ATOM      1  C   LIG    1       24.513 -30.861  10.164  0.00  0.00    +0.064 A 
ATOM      2  C   LIG    1       24.915 -29.869  11.115  0.00  0.00    +0.049 A 
ATOM      3  I   LIG    1       26.802 -28.835  10.772  0.00  0.00    -0.041 I 
ATOM      4  C   LIG    1       24.027 -29.432  12.142  0.00  0.00    +0.065 A 
ATOM      5  C   LIG    1       22.657 -29.813  12.032  0.00  0.00    +0.040 A 
ATOM      6  I   LIG    1       21.131 -28.624  12.985  0.00  0.00    -0.042 I 
ATOM      7  C   LIG    1       22.225 -30.791  11.097  0.00  0.00    +0.065 A 
ATOM      8  C   LIG    1       23.183 -31.363  10.238  0.00  0.00    +0.049 A 
ATOM      9  I   LIG    1       22.655 -33.232   9.203  0.00  0.00    -0.041 I 
ENDROOT
BRANCH   4  10
ATOM     10  C   LIG    1       24.550 -28.645  13.358  0.00  0.00    +0.246 C 
ATOM     11  N   LIG    1       24.504 -27.260  13.231  0.00  0.00    -0.309 N 
ATOM     12  H   LIG    1       24.217 -26.833  12.367  0.00  0.00    +0.149 HD
ATOM     13  O   LIG    1       24.937 -29.165  14.378  0.00  0.00    -0.270 OA
BRANCH  11  14
ATOM     14  C   LIG    1       24.981 -26.345  14.283  0.00  0.00    +0.138 C 
BRANCH  14  15
ATOM     15  C   LIG    1       25.189 -24.895  13.785  0.00  0.00    +0.157 C 
BRANCH  15  16
ATOM     16  O   LIG    1       26.275 -24.867  12.848  0.00  0.00    -0.388 OA
ATOM     17  H   LIG    1       26.677 -25.757  12.881  0.00  0.00    +0.210 HD
ENDBRANCH  15  16
BRANCH  15  18
ATOM     18  C   LIG    1       25.462 -23.886  14.907  0.00  0.00    +0.188 C 
BRANCH  18  19
ATOM     19  O   LIG    1       25.477 -22.573  14.357  0.00  0.00    -0.392 OA
ATOM     20  H   LIG    1       26.352 -22.457  13.935  0.00  0.00    +0.209 HD
ENDBRANCH  18  19
ENDBRANCH  15  18
ENDBRANCH  14  15
ENDBRANCH  11  14
ENDBRANCH   4  10
BRANCH   1  23
ATOM     21  C   LIG    1       27.266 -32.876   8.406  0.00  0.00    +0.110 C 
ATOM     22  C   LIG    1       26.195 -32.458   9.395  0.00  0.00    +0.217 C 
ATOM     23  N   LIG    1       25.394 -31.343   9.113  0.00  0.00    -0.267 N 
ATOM     24  O   LIG    1       26.068 -33.115  10.433  0.00  0.00    -0.276 OA
BRANCH  23  25
ATOM     25  C   LIG    1       25.455 -30.557   7.851  0.00  0.00    +0.147 C 
BRANCH  25  26
ATOM     26  C   LIG    1       24.073 -30.225   7.241  0.00  0.00    +0.158 C 
BRANCH  26  27
ATOM     27  O   LIG    1       23.587 -31.305   6.439  0.00  0.00    -0.388 OA
ATOM     28  H   LIG    1       24.270 -31.999   6.451  0.00  0.00    +0.210 HD
ENDBRANCH  26  27
BRANCH  26  29
ATOM     29  C   LIG    1       24.137 -29.021   6.305  0.00  0.00    +0.188 C 
BRANCH  29  30
ATOM     30  O   LIG    1       23.264 -29.171   5.200  0.00  0.00    -0.392 OA
ATOM     31  H   LIG    1       22.658 -28.411   5.204  0.00  0.00    +0.209 HD
ENDBRANCH  29  30
ENDBRANCH  26  29
ENDBRANCH  25  26
ENDBRANCH  23  25
ENDBRANCH   1  23
BRANCH   7  32
ATOM     32  C   LIG    1       20.780 -31.194  11.002  0.00  0.00    +0.246 C 
ATOM     33  N   LIG    1       20.369 -32.200  11.834  0.00  0.00    -0.309 N 
ATOM     34  H   LIG    1       20.945 -32.407  12.648  0.00  0.00    +0.149 HD
ATOM     35  O   LIG    1       20.008 -30.634  10.199  0.00  0.00    -0.270 OA
BRANCH  33  36
ATOM     36  C   LIG    1       18.995 -32.690  11.882  0.00  0.00    +0.138 C 
BRANCH  36  37
ATOM     37  C   LIG    1       18.276 -32.192  13.148  0.00  0.00    +0.157 C 
BRANCH  37  38
ATOM     38  O   LIG    1       17.315 -33.154  13.599  0.00  0.00    -0.388 OA
ATOM     39  H   LIG    1       16.694 -32.699  14.196  0.00  0.00    +0.210 HD
ENDBRANCH  37  38
BRANCH  37  40
ATOM     40  C   LIG    1       17.582 -30.853  12.908  0.00  0.00    +0.188 C 
BRANCH  40  41
ATOM     41  O   LIG    1       17.090 -30.753  11.580  0.00  0.00    -0.392 OA
ATOM     42  H   LIG    1       17.726 -31.206  10.997  0.00  0.00    +0.209 HD
ENDBRANCH  40  41
ENDBRANCH  37  40
ENDBRANCH  36  37
ENDBRANCH  33  36
ENDBRANCH   7  32
TORSDOF 18
ENDMDL
MODEL 3
REMARK VINA RESULT:      -4.9      0.440      6.552
REMARK  Name = *****
REMARK                            x       y       z     vdW  Elec       q    Type
REMARK                         _______ _______ _______ _____ _____    ______ ____
ROOT
ATOM      1  C   LIG    1       24.699 -31.177   9.584  0.00  0.00    +0.064 A 
ATOM      2  C   LIG    1       25.161 -30.160  10.479  0.00  0.00    +0.049 A 
ATOM      3  I   LIG    1       27.017 -29.134   9.984  0.00  0.00    -0.041 I 
ATOM      4  C   LIG    1       24.343 -29.699  11.553  0.00  0.00    +0.065 A 
ATOM      5  C   LIG    1       22.970 -30.084  11.545  0.00  0.00    +0.040 A 
ATOM      6  I   LIG    1       21.508 -28.872  12.568  0.00  0.00    -0.042 I 
ATOM      7  C   LIG    1       22.478 -31.086  10.666  0.00  0.00    +0.065 A 
ATOM      8  C   LIG    1       23.378 -31.679   9.759  0.00  0.00    +0.049 A 
ATOM      9  I   LIG    1       22.787 -33.574   8.810  0.00  0.00    -0.041 I 
ENDROOT
BRANCH   4  10
ATOM     10  C   LIG    1       24.944 -28.880  12.710  0.00  0.00    +0.246 C 
ATOM     11  N   LIG    1       25.692 -29.612  13.628  0.00  0.00    -0.309 N 
ATOM     12  H   LIG    1       25.754 -30.614  13.556  0.00  0.00    +0.149 HD
ATOM     13  O   LIG    1       24.829 -27.681  12.815  0.00  0.00    -0.270 OA
BRANCH  11  14
ATOM     14  C   LIG    1       26.325 -29.003  14.810  0.00  0.00    +0.138 C 
BRANCH  14  15
ATOM     15  C   LIG    1       27.782 -28.545  14.558  0.00  0.00    +0.157 C 
BRANCH  15  16
ATOM     16  O   LIG    1       27.779 -27.447  13.635  0.00  0.00    -0.388 OA
ATOM     17  H   LIG    1       28.331 -26.753  14.046  0.00  0.00    +0.210 HD
ENDBRANCH  15  16
BRANCH  15  18
ATOM     18  C   LIG    1       28.697 -29.653  14.024  0.00  0.00    +0.188 C 
BRANCH  18  19
ATOM     19  O   LIG    1       28.150 -30.918  14.377  0.00  0.00    -0.392 OA
ATOM     20  H   LIG    1       28.833 -31.586  14.169  0.00  0.00    +0.209 HD
ENDBRANCH  18  19
ENDBRANCH  15  18
ENDBRANCH  14  15
ENDBRANCH  11  14
ENDBRANCH   4  10
BRANCH   1  23
ATOM     21  C   LIG    1       27.413 -33.143   7.713  0.00  0.00    +0.110 C 
ATOM     22  C   LIG    1       26.413 -32.717   8.771  0.00  0.00    +0.217 C 
ATOM     23  N   LIG    1       25.508 -31.685   8.488  0.00  0.00    -0.267 N 
ATOM     24  O   LIG    1       26.437 -33.292   9.864  0.00  0.00    -0.276 OA
BRANCH  23  25
ATOM     25  C   LIG    1       25.389 -31.005   7.170  0.00  0.00    +0.147 C 
BRANCH  25  26
ATOM     26  C   LIG    1       24.028 -30.309   6.934  0.00  0.00    +0.158 C 
BRANCH  26  27
ATOM     27  O   LIG    1       23.275 -30.974   5.916  0.00  0.00    -0.388 OA
ATOM     28  H   LIG    1       22.713 -30.302   5.492  0.00  0.00    +0.210 HD
ENDBRANCH  26  27
BRANCH  26  29
ATOM     29  C   LIG    1       24.199 -28.874   6.441  0.00  0.00    +0.188 C 
BRANCH  29  30
ATOM     30  O   LIG    1       23.649 -28.698   5.148  0.00  0.00    -0.392 OA
ATOM     31  H   LIG    1       23.704 -29.553   4.690  0.00  0.00    +0.209 HD
ENDBRANCH  29  30
ENDBRANCH  26  29
ENDBRANCH  25  26
ENDBRANCH  23  25
ENDBRANCH   1  23
BRANCH   7  32
ATOM     32  C   LIG    1       21.031 -31.492  10.678  0.00  0.00    +0.246 C 
ATOM     33  N   LIG    1       20.666 -32.427  11.610  0.00  0.00    -0.309 N 
ATOM     34  H   LIG    1       21.284 -32.567  12.407  0.00  0.00    +0.149 HD
ATOM     35  O   LIG    1       20.217 -30.998   9.873  0.00  0.00    -0.270 OA
BRANCH  33  36
ATOM     36  C   LIG    1       19.297 -32.908  11.769  0.00  0.00    +0.138 C 
BRANCH  36  37
ATOM     37  C   LIG    1       18.635 -32.288  13.011  0.00  0.00    +0.157 C 
BRANCH  37  38
ATOM     38  O   LIG    1       17.894 -33.274  13.739  0.00  0.00    -0.388 OA
ATOM     39  H   LIG    1       17.279 -32.808  14.334  0.00  0.00    +0.210 HD
ENDBRANCH  37  38
BRANCH  37  40
ATOM     40  C   LIG    1       17.710 -31.132  12.633  0.00  0.00    +0.188 C 
BRANCH  40  41
ATOM     41  O   LIG    1       17.690 -30.919  11.230  0.00  0.00    -0.392 OA
ATOM     42  H   LIG    1       17.450 -31.764  10.810  0.00  0.00    +0.209 HD
ENDBRANCH  40  41
ENDBRANCH  37  40
ENDBRANCH  36  37
ENDBRANCH  33  36
ENDBRANCH   7  32
TORSDOF 18
ENDMDL
MODEL 4
REMARK VINA RESULT:      -4.8      1.187      1.594
REMARK  Name = *****
REMARK                            x       y       z     vdW  Elec       q    Type
REMARK                         _______ _______ _______ _____ _____    ______ ____
ROOT
ATOM      1  C   LIG    1       24.495 -31.511   9.556  0.00  0.00    +0.064 A 
ATOM      2  C   LIG    1       23.135 -31.936   9.692  0.00  0.00    +0.049 A 
ATOM      3  I   LIG    1       22.491 -33.671   8.543  0.00  0.00    -0.041 I 
ATOM      4  C   LIG    1       22.283 -31.369  10.685  0.00  0.00    +0.065 A 
ATOM      5  C   LIG    1       22.894 -30.571  11.697  0.00  0.00    +0.040 A 
ATOM      6  I   LIG    1       21.931 -30.343  13.614  0.00  0.00    -0.042 I 
ATOM      7  C   LIG    1       24.242 -30.136  11.595  0.00  0.00    +0.065 A 
ATOM      8  C   LIG    1       24.993 -30.544  10.475  0.00  0.00    +0.049 A 
ATOM      9  I   LIG    1       26.848 -29.451  10.023  0.00  0.00    -0.041 I 
ENDROOT
BRANCH   4  10
ATOM     10  C   LIG    1       20.755 -31.554  10.617  0.00  0.00    +0.246 C 
ATOM     11  N   LIG    1       20.262 -32.663  11.298  0.00  0.00    -0.309 N 
ATOM     12  H   LIG    1       20.889 -33.321  11.729  0.00  0.00    +0.149 HD
ATOM     13  O   LIG    1       20.011 -30.784  10.057  0.00  0.00    -0.270 OA
BRANCH  11  14
ATOM     14  C   LIG    1       18.831 -33.012  11.326  0.00  0.00    +0.138 C 
BRANCH  14  15
ATOM     15  C   LIG    1       18.111 -32.542  12.612  0.00  0.00    +0.157 C 
BRANCH  15  16
ATOM     16  O   LIG    1       17.193 -33.559  13.039  0.00  0.00    -0.388 OA
ATOM     17  H   LIG    1       16.418 -33.481  12.450  0.00  0.00    +0.210 HD
ENDBRANCH  15  16
BRANCH  15  18
ATOM     18  C   LIG    1       17.360 -31.216  12.454  0.00  0.00    +0.188 C 
BRANCH  18  19
ATOM     19  O   LIG    1       17.327 -30.862  11.076  0.00  0.00    -0.392 OA
ATOM     20  H   LIG    1       18.029 -30.195  10.942  0.00  0.00    +0.209 HD
ENDBRANCH  18  19
ENDBRANCH  15  18
ENDBRANCH  14  15
ENDBRANCH  11  14
ENDBRANCH   4  10
BRANCH   1  23
ATOM     21  C   LIG    1       27.353 -33.529   7.979  0.00  0.00    +0.110 C 
ATOM     22  C   LIG    1       26.271 -33.071   8.938  0.00  0.00    +0.217 C 
ATOM     23  N   LIG    1       25.390 -32.053   8.547  0.00  0.00    -0.267 N 
ATOM     24  O   LIG    1       26.208 -33.607  10.049  0.00  0.00    -0.276 OA
BRANCH  23  25
ATOM     25  C   LIG    1       25.375 -31.420   7.200  0.00  0.00    +0.147 C 
BRANCH  25  26
ATOM     26  C   LIG    1       24.107 -30.588   6.903  0.00  0.00    +0.158 C 
BRANCH  26  27
ATOM     27  O   LIG    1       23.338 -31.174   5.849  0.00  0.00    -0.388 OA
ATOM     28  H   LIG    1       22.405 -30.957   6.022  0.00  0.00    +0.210 HD
ENDBRANCH  26  27
BRANCH  26  29
ATOM     29  C   LIG    1       24.449 -29.179   6.422  0.00  0.00    +0.188 C 
BRANCH  29  30
ATOM     30  O   LIG    1       23.679 -28.813   5.290  0.00  0.00    -0.392 OA
ATOM     31  H   LIG    1       24.301 -28.615   4.569  0.00  0.00    +0.209 HD
ENDBRANCH  29  30
ENDBRANCH  26  29
ENDBRANCH  25  26
ENDBRANCH  23  25
ENDBRANCH   1  23
BRANCH   7  32
ATOM     32  C   LIG    1       24.869 -29.283  12.662  0.00  0.00    +0.246 C 
ATOM     33  N   LIG    1       24.616 -27.939  12.598  0.00  0.00    -0.309 N 
ATOM     34  H   LIG    1       23.814 -27.633  12.050  0.00  0.00    +0.149 HD
ATOM     35  O   LIG    1       25.584 -29.787  13.551  0.00  0.00    -0.270 OA
BRANCH  33  36
ATOM     36  C   LIG    1       25.129 -26.979  13.571  0.00  0.00    +0.138 C 
BRANCH  36  37
ATOM     37  C   LIG    1       26.472 -26.390  13.108  0.00  0.00    +0.157 C 
BRANCH  37  38
ATOM     38  O   LIG    1       27.525 -27.351  13.247  0.00  0.00    -0.388 OA
ATOM     39  H   LIG    1       28.328 -26.877  13.528  0.00  0.00    +0.210 HD
ENDBRANCH  37  38
BRANCH  37  40
ATOM     40  C   LIG    1       26.829 -25.127  13.890  0.00  0.00    +0.188 C 
BRANCH  40  41
ATOM     41  O   LIG    1       28.078 -24.594  13.476  0.00  0.00    -0.392 OA
ATOM     42  H   LIG    1       28.733 -24.818  14.161  0.00  0.00    +0.209 HD
ENDBRANCH  40  41
ENDBRANCH  37  40
ENDBRANCH  36  37
ENDBRANCH  33  36
ENDBRANCH   7  32
TORSDOF 18
ENDMDL
MODEL 5
REMARK VINA RESULT:      -4.6      2.026      7.940
REMARK  Name = *****
REMARK                            x       y       z     vdW  Elec       q    Type
REMARK                         _______ _______ _______ _____ _____    ______ ____
ROOT
ATOM      1  C   LIG    1       23.921 -29.346  12.593  0.00  0.00    +0.064 A 
ATOM      2  C   LIG    1       24.832 -29.298  11.489  0.00  0.00    +0.049 A 
ATOM      3  I   LIG    1       26.770 -28.356  11.808  0.00  0.00    -0.041 I 
ATOM      4  C   LIG    1       24.563 -30.011  10.283  0.00  0.00    +0.065 A 
ATOM      5  C   LIG    1       23.509 -30.971  10.308  0.00  0.00    +0.040 A 
ATOM      6  I   LIG    1       23.518 -32.614   8.910  0.00  0.00    -0.042 I 
ATOM      7  C   LIG    1       22.591 -31.047  11.390  0.00  0.00    +0.065 A 
ATOM      8  C   LIG    1       22.764 -30.167  12.476  0.00  0.00    +0.049 A 
ATOM      9  I   LIG    1       21.074 -29.888  13.857  0.00  0.00    -0.041 I 
ENDROOT
BRANCH   4  10
ATOM     10  C   LIG    1       25.336 -29.695   8.989  0.00  0.00    +0.246 C 
ATOM     11  N   LIG    1       24.595 -29.063   7.995  0.00  0.00    -0.309 N 
ATOM     12  H   LIG    1       23.608 -28.905   8.113  0.00  0.00    +0.149 HD
ATOM     13  O   LIG    1       26.512 -29.929   8.836  0.00  0.00    -0.270 OA
BRANCH  11  14
ATOM     14  C   LIG    1       25.160 -28.703   6.683  0.00  0.00    +0.138 C 
BRANCH  14  15
ATOM     15  C   LIG    1       24.628 -29.581   5.525  0.00  0.00    +0.157 C 
BRANCH  15  16
ATOM     16  O   LIG    1       23.194 -29.546   5.525  0.00  0.00    -0.388 OA
ATOM     17  H   LIG    1       22.918 -29.995   4.702  0.00  0.00    +0.210 HD
ENDBRANCH  15  16
BRANCH  15  18
ATOM     18  C   LIG    1       25.100 -31.039   5.584  0.00  0.00    +0.188 C 
BRANCH  18  19
ATOM     19  O   LIG    1       26.409 -31.081   6.139  0.00  0.00    -0.392 OA
ATOM     20  H   LIG    1       27.020 -31.270   5.399  0.00  0.00    +0.209 HD
ENDBRANCH  18  19
ENDBRANCH  15  18
ENDBRANCH  14  15
ENDBRANCH  11  14
ENDBRANCH   4  10
BRANCH   1  23
ATOM     21  C   LIG    1       24.137 -26.433  15.082  0.00  0.00    +0.110 C 
ATOM     22  C   LIG    1       23.743 -27.283  13.889  0.00  0.00    +0.217 C 
ATOM     23  N   LIG    1       24.152 -28.622  13.832  0.00  0.00    -0.267 N 
ATOM     24  O   LIG    1       23.078 -26.757  12.991  0.00  0.00    -0.276 OA
BRANCH  23  25
ATOM     25  C   LIG    1       24.894 -29.325  14.913  0.00  0.00    +0.147 C 
BRANCH  25  26
ATOM     26  C   LIG    1       25.365 -30.749  14.539  0.00  0.00    +0.158 C 
BRANCH  26  27
ATOM     27  O   LIG    1       24.564 -31.745  15.181  0.00  0.00    -0.388 OA
ATOM     28  H   LIG    1       24.175 -32.296  14.479  0.00  0.00    +0.210 HD
ENDBRANCH  26  27
BRANCH  26  29
ATOM     29  C   LIG    1       26.795 -31.018  15.002  0.00  0.00    +0.188 C 
BRANCH  29  30
ATOM     30  O   LIG    1       27.285 -32.248  14.499  0.00  0.00    -0.392 OA
ATOM     31  H   LIG    1       27.403 -32.845  15.257  0.00  0.00    +0.209 HD
ENDBRANCH  29  30
ENDBRANCH  26  29
ENDBRANCH  25  26
ENDBRANCH  23  25
ENDBRANCH   1  23
BRANCH   7  32
ATOM     32  C   LIG    1       21.476 -32.054  11.396  0.00  0.00    +0.246 C 
ATOM     33  N   LIG    1       20.395 -31.776  10.602  0.00  0.00    -0.309 N 
ATOM     34  H   LIG    1       20.520 -31.098   9.853  0.00  0.00    +0.149 HD
ATOM     35  O   LIG    1       21.543 -33.084  12.096  0.00  0.00    -0.270 OA
BRANCH  33  36
ATOM     36  C   LIG    1       19.242 -32.662  10.478  0.00  0.00    +0.138 C 
BRANCH  36  37
ATOM     37  C   LIG    1       17.945 -31.856  10.288  0.00  0.00    +0.157 C 
BRANCH  37  38
ATOM     38  O   LIG    1       18.214 -30.603   9.648  0.00  0.00    -0.388 OA
ATOM     39  H   LIG    1       17.463 -30.009   9.826  0.00  0.00    +0.210 HD
ENDBRANCH  37  38
BRANCH  37  40
ATOM     40  C   LIG    1       17.242 -31.606  11.622  0.00  0.00    +0.188 C 
BRANCH  40  41
ATOM     41  O   LIG    1       17.776 -30.472  12.287  0.00  0.00    -0.392 OA
ATOM     42  H   LIG    1       18.735 -30.614  12.383  0.00  0.00    +0.209 HD
ENDBRANCH  40  41
ENDBRANCH  37  40
ENDBRANCH  36  37
ENDBRANCH  33  36
ENDBRANCH   7  32
TORSDOF 18
ENDMDL
MODEL 6
REMARK VINA RESULT:      -4.5      1.781      2.537
REMARK  Name = *****
REMARK                            x       y       z     vdW  Elec       q    Type
REMARK                         _______ _______ _______ _____ _____    ______ ____
ROOT
ATOM      1  C   LIG    1       24.797 -31.521   9.747  0.00  0.00    +0.064 A 
ATOM      2  C   LIG    1       23.503 -32.069  10.018  0.00  0.00    +0.049 A 
ATOM      3  I   LIG    1       22.883 -33.824   8.886  0.00  0.00    -0.041 I 
ATOM      4  C   LIG    1       22.724 -31.607  11.120  0.00  0.00    +0.065 A 
ATOM      5  C   LIG    1       23.376 -30.785  12.086  0.00  0.00    +0.040 A 
ATOM      6  I   LIG    1       22.622 -30.695  14.105  0.00  0.00    -0.042 I 
ATOM      7  C   LIG    1       24.662 -30.229  11.851  0.00  0.00    +0.065 A 
ATOM      8  C   LIG    1       25.312 -30.538  10.640  0.00  0.00    +0.049 A 
ATOM      9  I   LIG    1       27.004 -29.272  10.025  0.00  0.00    -0.041 I 
ENDROOT
BRANCH   4  10
ATOM     10  C   LIG    1       21.221 -31.926  11.215  0.00  0.00    +0.246 C 
ATOM     11  N   LIG    1       20.372 -30.926  10.748  0.00  0.00    -0.309 N 
ATOM     12  H   LIG    1       20.741 -30.040  10.447  0.00  0.00    +0.149 HD
ATOM     13  O   LIG    1       20.782 -32.977  11.621  0.00  0.00    -0.270 OA
BRANCH  11  14
ATOM     14  C   LIG    1       18.905 -31.045  10.779  0.00  0.00    +0.138 C 
BRANCH  14  15
ATOM     15  C   LIG    1       18.282 -31.320   9.389  0.00  0.00    +0.157 C 
BRANCH  15  16
ATOM     16  O   LIG    1       17.195 -30.411   9.169  0.00  0.00    -0.388 OA
ATOM     17  H   LIG    1       16.387 -30.960   9.162  0.00  0.00    +0.210 HD
ENDBRANCH  15  16
BRANCH  15  18
ATOM     18  C   LIG    1       17.786 -32.759   9.205  0.00  0.00    +0.188 C 
BRANCH  18  19
ATOM     19  O   LIG    1       18.871 -33.655   9.414  0.00  0.00    -0.392 OA
ATOM     20  H   LIG    1       19.143 -33.552  10.347  0.00  0.00    +0.209 HD
ENDBRANCH  18  19
ENDBRANCH  15  18
ENDBRANCH  14  15
ENDBRANCH  11  14
ENDBRANCH   4  10
BRANCH   1  23
ATOM     21  C   LIG    1       27.519 -33.365   7.767  0.00  0.00    +0.110 C 
ATOM     22  C   LIG    1       26.511 -33.009   8.843  0.00  0.00    +0.217 C 
ATOM     23  N   LIG    1       25.614 -31.954   8.626  0.00  0.00    -0.267 N 
ATOM     24  O   LIG    1       26.521 -33.661   9.893  0.00  0.00    -0.276 OA
BRANCH  23  25
ATOM     25  C   LIG    1       25.512 -31.181   7.359  0.00  0.00    +0.147 C 
BRANCH  25  26
ATOM     26  C   LIG    1       24.085 -30.685   7.030  0.00  0.00    +0.158 C 
BRANCH  26  27
ATOM     27  O   LIG    1       23.471 -31.499   6.027  0.00  0.00    -0.388 OA
ATOM     28  H   LIG    1       23.434 -32.406   6.379  0.00  0.00    +0.210 HD
ENDBRANCH  26  27
BRANCH  26  29
ATOM     29  C   LIG    1       24.090 -29.269   6.458  0.00  0.00    +0.188 C 
BRANCH  29  30
ATOM     30  O   LIG    1       23.261 -29.165   5.314  0.00  0.00    -0.392 OA
ATOM     31  H   LIG    1       22.494 -29.746   5.458  0.00  0.00    +0.209 HD
ENDBRANCH  29  30
ENDBRANCH  26  29
ENDBRANCH  25  26
ENDBRANCH  23  25
ENDBRANCH   1  23
BRANCH   7  32
ATOM     32  C   LIG    1       25.331 -29.352  12.872  0.00  0.00    +0.246 C 
ATOM     33  N   LIG    1       24.945 -28.038  12.898  0.00  0.00    -0.309 N 
ATOM     34  H   LIG    1       24.057 -27.797  12.463  0.00  0.00    +0.149 HD
ATOM     35  O   LIG    1       26.194 -29.810  13.646  0.00  0.00    -0.270 OA
BRANCH  33  36
ATOM     36  C   LIG    1       25.480 -27.064  13.844  0.00  0.00    +0.138 C 
BRANCH  36  37
ATOM     37  C   LIG    1       24.453 -25.957  14.134  0.00  0.00    +0.157 C 
BRANCH  37  38
ATOM     38  O   LIG    1       23.257 -26.159  13.372  0.00  0.00    -0.388 OA
ATOM     39  H   LIG    1       23.077 -27.116  13.345  0.00  0.00    +0.210 HD
ENDBRANCH  37  38
BRANCH  37  40
ATOM     40  C   LIG    1       25.022 -24.571  13.830  0.00  0.00    +0.188 C 
BRANCH  40  41
ATOM     41  O   LIG    1       26.392 -24.640  13.467  0.00  0.00    -0.392 OA
ATOM     42  H   LIG    1       26.847 -25.175  14.142  0.00  0.00    +0.209 HD
ENDBRANCH  40  41
ENDBRANCH  37  40
ENDBRANCH  36  37
ENDBRANCH  33  36
ENDBRANCH   7  32
TORSDOF 18
ENDMDL
MODEL 7
REMARK VINA RESULT:      -4.5      1.529      1.946
REMARK  Name = *****
REMARK                            x       y       z     vdW  Elec       q    Type
REMARK                         _______ _______ _______ _____ _____    ______ ____
ROOT
ATOM      1  C   LIG    1       24.850 -31.754   8.975  0.00  0.00    +0.064 A 
ATOM      2  C   LIG    1       23.563 -32.371   9.087  0.00  0.00    +0.049 A 
ATOM      3  I   LIG    1       22.957 -33.755   7.518  0.00  0.00    -0.041 I 
ATOM      4  C   LIG    1       22.785 -32.238  10.275  0.00  0.00    +0.065 A 
ATOM      5  C   LIG    1       23.433 -31.705  11.429  0.00  0.00    +0.040 A 
ATOM      6  I   LIG    1       22.689 -32.181  13.396  0.00  0.00    -0.042 I 
ATOM      7  C   LIG    1       24.712 -31.090  11.352  0.00  0.00    +0.065 A 
ATOM      8  C   LIG    1       25.359 -31.048  10.102  0.00  0.00    +0.049 A 
ATOM      9  I   LIG    1       27.033 -29.642   9.854  0.00  0.00    -0.041 I 
ENDROOT
BRANCH   4  10
ATOM     10  C   LIG    1       21.286 -32.589  10.282  0.00  0.00    +0.246 C 
ATOM     11  N   LIG    1       20.422 -31.499  10.217  0.00  0.00    -0.309 N 
ATOM     12  H   LIG    1       20.780 -30.559  10.242  0.00  0.00    +0.149 HD
ATOM     13  O   LIG    1       20.861 -33.720  10.298  0.00  0.00    -0.270 OA
BRANCH  11  14
ATOM     14  C   LIG    1       18.956 -31.639  10.235  0.00  0.00    +0.138 C 
BRANCH  14  15
ATOM     15  C   LIG    1       18.345 -31.513  11.651  0.00  0.00    +0.157 C 
BRANCH  15  16
ATOM     16  O   LIG    1       17.070 -30.862  11.560  0.00  0.00    -0.388 OA
ATOM     17  H   LIG    1       16.725 -31.076  10.672  0.00  0.00    +0.210 HD
ENDBRANCH  15  16
BRANCH  15  18
ATOM     18  C   LIG    1       19.232 -30.755  12.645  0.00  0.00    +0.188 C 
BRANCH  18  19
ATOM     19  O   LIG    1       18.487 -29.680  13.206  0.00  0.00    -0.392 OA
ATOM     20  H   LIG    1       18.441 -28.984  12.520  0.00  0.00    +0.209 HD
ENDBRANCH  18  19
ENDBRANCH  15  18
ENDBRANCH  14  15
ENDBRANCH  11  14
ENDBRANCH   4  10
BRANCH   1  23
ATOM     21  C   LIG    1       27.620 -32.908   6.581  0.00  0.00    +0.110 C 
ATOM     22  C   LIG    1       26.617 -32.882   7.718  0.00  0.00    +0.217 C 
ATOM     23  N   LIG    1       25.666 -31.853   7.776  0.00  0.00    -0.267 N 
ATOM     24  O   LIG    1       26.677 -33.772   8.573  0.00  0.00    -0.276 OA
BRANCH  23  25
ATOM     25  C   LIG    1       25.503 -30.796   6.741  0.00  0.00    +0.147 C 
BRANCH  25  26
ATOM     26  C   LIG    1       24.185 -29.996   6.852  0.00  0.00    +0.158 C 
BRANCH  26  27
ATOM     27  O   LIG    1       23.272 -30.356   5.811  0.00  0.00    -0.388 OA
ATOM     28  H   LIG    1       22.615 -29.640   5.748  0.00  0.00    +0.210 HD
ENDBRANCH  26  27
BRANCH  26  29
ATOM     29  C   LIG    1       24.413 -28.495   6.691  0.00  0.00    +0.188 C 
BRANCH  29  30
ATOM     30  O   LIG    1       23.919 -28.022   5.450  0.00  0.00    -0.392 OA
ATOM     31  H   LIG    1       23.510 -27.155   5.613  0.00  0.00    +0.209 HD
ENDBRANCH  29  30
ENDBRANCH  26  29
ENDBRANCH  25  26
ENDBRANCH  23  25
ENDBRANCH   1  23
BRANCH   7  32
ATOM     32  C   LIG    1       25.377 -30.519  12.573  0.00  0.00    +0.246 C 
ATOM     33  N   LIG    1       24.987 -29.262  12.951  0.00  0.00    -0.309 N 
ATOM     34  H   LIG    1       24.098 -28.915  12.595  0.00  0.00    +0.149 HD
ATOM     35  O   LIG    1       26.239 -31.167  13.198  0.00  0.00    -0.270 OA
BRANCH  33  36
ATOM     36  C   LIG    1       25.517 -28.577  14.125  0.00  0.00    +0.138 C 
BRANCH  36  37
ATOM     37  C   LIG    1       25.427 -27.050  13.960  0.00  0.00    +0.157 C 
BRANCH  37  38
ATOM     38  O   LIG    1       24.160 -26.672  13.409  0.00  0.00    -0.388 OA
ATOM     39  H   LIG    1       24.313 -25.944  12.781  0.00  0.00    +0.210 HD
ENDBRANCH  37  38
BRANCH  37  40
ATOM     40  C   LIG    1       26.549 -26.516  13.071  0.00  0.00    +0.188 C 
BRANCH  40  41
ATOM     41  O   LIG    1       27.590 -27.468  12.920  0.00  0.00    -0.392 OA
ATOM     42  H   LIG    1       28.429 -27.021  13.132  0.00  0.00    +0.209 HD
ENDBRANCH  40  41
ENDBRANCH  37  40
ENDBRANCH  36  37
ENDBRANCH  33  36
ENDBRANCH   7  32
TORSDOF 18
ENDMDL
MODEL 8
REMARK VINA RESULT:      -4.4      1.934      7.911
REMARK  Name = *****
REMARK                            x       y       z     vdW  Elec       q    Type
REMARK                         _______ _______ _______ _____ _____    ______ ____
ROOT
ATOM      1  C   LIG    1       24.203 -29.594  12.043  0.00  0.00    +0.064 A 
ATOM      2  C   LIG    1       24.927 -29.660  10.810  0.00  0.00    +0.049 A 
ATOM      3  I   LIG    1       26.956 -28.868  10.776  0.00  0.00    -0.041 I 
ATOM      4  C   LIG    1       24.416 -30.389   9.695  0.00  0.00    +0.065 A 
ATOM      5  C   LIG    1       23.310 -31.258   9.930  0.00  0.00    +0.040 A 
ATOM      6  I   LIG    1       22.972 -32.944   8.628  0.00  0.00    -0.042 I 
ATOM      7  C   LIG    1       22.574 -31.222  11.145  0.00  0.00    +0.065 A 
ATOM      8  C   LIG    1       22.984 -30.322  12.147  0.00  0.00    +0.049 A 
ATOM      9  I   LIG    1       21.561 -29.858  13.761  0.00  0.00    -0.041 I 
ENDROOT
BRANCH   4  10
ATOM     10  C   LIG    1       24.994 -30.183   8.283  0.00  0.00    +0.246 C 
ATOM     11  N   LIG    1       24.371 -29.195   7.526  0.00  0.00    -0.309 N 
ATOM     12  H   LIG    1       23.556 -28.720   7.875  0.00  0.00    +0.149 HD
ATOM     13  O   LIG    1       25.947 -30.790   7.853  0.00  0.00    -0.270 OA
BRANCH  11  14
ATOM     14  C   LIG    1       24.773 -28.872   6.147  0.00  0.00    +0.138 C 
BRANCH  14  15
ATOM     15  C   LIG    1       25.056 -27.366   5.927  0.00  0.00    +0.157 C 
BRANCH  15  16
ATOM     16  O   LIG    1       23.827 -26.693   5.620  0.00  0.00    -0.388 OA
ATOM     17  H   LIG    1       24.027 -25.739   5.670  0.00  0.00    +0.210 HD
ENDBRANCH  15  16
BRANCH  15  18
ATOM     18  C   LIG    1       26.079 -27.081   4.822  0.00  0.00    +0.188 C 
BRANCH  18  19
ATOM     19  O   LIG    1       27.349 -26.835   5.417  0.00  0.00    -0.392 OA
ATOM     20  H   LIG    1       27.749 -27.710   5.593  0.00  0.00    +0.209 HD
ENDBRANCH  18  19
ENDBRANCH  15  18
ENDBRANCH  14  15
ENDBRANCH  11  14
ENDBRANCH   4  10
BRANCH   1  23
ATOM     21  C   LIG    1       25.738 -28.868  15.485  0.00  0.00    +0.110 C 
ATOM     22  C   LIG    1       25.391 -29.555  14.178  0.00  0.00    +0.217 C 
ATOM     23  N   LIG    1       24.682 -28.849  13.196  0.00  0.00    -0.267 N 
ATOM     24  O   LIG    1       25.737 -30.731  14.025  0.00  0.00    -0.276 OA
BRANCH  23  25
ATOM     25  C   LIG    1       24.300 -27.415  13.297  0.00  0.00    +0.147 C 
BRANCH  25  26
ATOM     26  C   LIG    1       25.356 -26.523  13.991  0.00  0.00    +0.158 C 
BRANCH  26  27
ATOM     27  O   LIG    1       24.736 -25.496  14.769  0.00  0.00    -0.388 OA
ATOM     28  H   LIG    1       24.787 -25.774  15.701  0.00  0.00    +0.210 HD
ENDBRANCH  26  27
BRANCH  26  29
ATOM     29  C   LIG    1       26.237 -25.792  12.981  0.00  0.00    +0.188 C 
BRANCH  29  30
ATOM     30  O   LIG    1       27.614 -25.958  13.273  0.00  0.00    -0.392 OA
ATOM     31  H   LIG    1       27.808 -26.909  13.222  0.00  0.00    +0.209 HD
ENDBRANCH  29  30
ENDBRANCH  26  29
ENDBRANCH  25  26
ENDBRANCH  23  25
ENDBRANCH   1  23
BRANCH   7  32
ATOM     32  C   LIG    1       21.401 -32.134  11.373  0.00  0.00    +0.246 C 
ATOM     33  N   LIG    1       20.229 -31.791  10.752  0.00  0.00    -0.309 N 
ATOM     34  H   LIG    1       20.281 -31.148   9.964  0.00  0.00    +0.149 HD
ATOM     35  O   LIG    1       21.503 -33.144  12.096  0.00  0.00    -0.270 OA
BRANCH  33  36
ATOM     36  C   LIG    1       19.008 -32.584  10.852  0.00  0.00    +0.138 C 
BRANCH  36  37
ATOM     37  C   LIG    1       17.773 -31.740  10.489  0.00  0.00    +0.157 C 
BRANCH  37  38
ATOM     38  O   LIG    1       18.138 -30.642   9.645  0.00  0.00    -0.388 OA
ATOM     39  H   LIG    1       18.958 -30.252   9.999  0.00  0.00    +0.210 HD
ENDBRANCH  37  38
BRANCH  37  40
ATOM     40  C   LIG    1       17.069 -31.212  11.738  0.00  0.00    +0.188 C 
BRANCH  40  41
ATOM     41  O   LIG    1       17.950 -30.451  12.549  0.00  0.00    -0.392 OA
ATOM     42  H   LIG    1       18.710 -31.020  12.769  0.00  0.00    +0.209 HD
ENDBRANCH  40  41
ENDBRANCH  37  40
ENDBRANCH  36  37
ENDBRANCH  33  36
ENDBRANCH   7  32
TORSDOF 18
ENDMDL
MODEL 9
REMARK VINA RESULT:      -4.2      2.450      6.230
REMARK  Name = *****
REMARK                            x       y       z     vdW  Elec       q    Type
REMARK                         _______ _______ _______ _____ _____    ______ ____
ROOT
ATOM      1  C   LIG    1       23.362 -31.027  12.701  0.00  0.00    +0.064 A 
ATOM      2  C   LIG    1       23.371 -31.428  11.326  0.00  0.00    +0.049 A 
ATOM      3  I   LIG    1       21.572 -32.356  10.524  0.00  0.00    -0.041 I 
ATOM      4  C   LIG    1       24.444 -31.060  10.461  0.00  0.00    +0.065 A 
ATOM      5  C   LIG    1       25.358 -30.072  10.931  0.00  0.00    +0.040 A 
ATOM      6  I   LIG    1       26.471 -28.879   9.520  0.00  0.00    -0.042 I 
ATOM      7  C   LIG    1       25.372 -29.649  12.287  0.00  0.00    +0.065 A 
ATOM      8  C   LIG    1       24.425 -30.205  13.170  0.00  0.00    +0.049 A 
ATOM      9  I   LIG    1       24.783 -29.997  15.331  0.00  0.00    -0.041 I 
ENDROOT
BRANCH   4  10
ATOM     10  C   LIG    1       24.643 -31.763   9.105  0.00  0.00    +0.246 C 
ATOM     11  N   LIG    1       23.955 -31.194   8.037  0.00  0.00    -0.309 N 
ATOM     12  H   LIG    1       23.321 -30.427   8.185  0.00  0.00    +0.149 HD
ATOM     13  O   LIG    1       25.372 -32.713   8.942  0.00  0.00    -0.270 OA
BRANCH  11  14
ATOM     14  C   LIG    1       24.007 -31.742   6.671  0.00  0.00    +0.138 C 
BRANCH  14  15
ATOM     15  C   LIG    1       25.013 -31.005   5.753  0.00  0.00    +0.157 C 
BRANCH  15  16
ATOM     16  O   LIG    1       26.326 -31.095   6.323  0.00  0.00    -0.388 OA
ATOM     17  H   LIG    1       26.866 -31.583   5.671  0.00  0.00    +0.210 HD
ENDBRANCH  15  16
BRANCH  15  18
ATOM     18  C   LIG    1       24.666 -29.532   5.509  0.00  0.00    +0.188 C 
BRANCH  18  19
ATOM     19  O   LIG    1       23.251 -29.387   5.476  0.00  0.00    -0.392 OA
ATOM     20  H   LIG    1       23.030 -28.999   4.606  0.00  0.00    +0.209 HD
ENDBRANCH  18  19
ENDBRANCH  15  18
ENDBRANCH  14  15
ENDBRANCH  11  14
ENDBRANCH   4  10
BRANCH   1  23
ATOM     21  C   LIG    1       21.006 -33.205  14.807  0.00  0.00    +0.110 C 
ATOM     22  C   LIG    1       22.210 -32.737  14.013  0.00  0.00    +0.217 C 
ATOM     23  N   LIG    1       22.295 -31.395  13.618  0.00  0.00    -0.267 N 
ATOM     24  O   LIG    1       23.081 -33.565  13.727  0.00  0.00    -0.276 OA
BRANCH  23  25
ATOM     25  C   LIG    1       21.313 -30.341  13.991  0.00  0.00    +0.147 C 
BRANCH  25  26
ATOM     26  C   LIG    1       20.179 -30.136  12.961  0.00  0.00    +0.158 C 
BRANCH  26  27
ATOM     27  O   LIG    1       20.370 -28.932  12.213  0.00  0.00    -0.388 OA
ATOM     28  H   LIG    1       19.773 -28.262  12.592  0.00  0.00    +0.210 HD
ENDBRANCH  26  27
BRANCH  26  29
ATOM     29  C   LIG    1       18.817 -29.984  13.634  0.00  0.00    +0.188 C 
BRANCH  29  30
ATOM     30  O   LIG    1       17.765 -30.410  12.786  0.00  0.00    -0.392 OA
ATOM     31  H   LIG    1       18.167 -30.906  12.052  0.00  0.00    +0.209 HD
ENDBRANCH  29  30
ENDBRANCH  26  29
ENDBRANCH  25  26
ENDBRANCH  23  25
ENDBRANCH   1  23
BRANCH   7  32
ATOM     32  C   LIG    1       26.351 -28.617  12.772  0.00  0.00    +0.246 C 
ATOM     33  N   LIG    1       25.885 -27.333  12.879  0.00  0.00    -0.309 N 
ATOM     34  H   LIG    1       24.877 -27.197  12.919  0.00  0.00    +0.149 HD
ATOM     35  O   LIG    1       27.524 -28.927  13.056  0.00  0.00    -0.270 OA
BRANCH  33  36
ATOM     36  C   LIG    1       26.701 -26.221  13.357  0.00  0.00    +0.138 C 
BRANCH  36  37
ATOM     37  C   LIG    1       25.918 -25.355  14.359  0.00  0.00    +0.157 C 
BRANCH  37  38
ATOM     38  O   LIG    1       24.735 -24.820  13.754  0.00  0.00    -0.388 OA
ATOM     39  H   LIG    1       24.118 -25.558  13.600  0.00  0.00    +0.210 HD
ENDBRANCH  37  38
BRANCH  37  40
ATOM     40  C   LIG    1       26.775 -24.212  14.900  0.00  0.00    +0.188 C 
BRANCH  40  41
ATOM     41  O   LIG    1       27.986 -24.081  14.171  0.00  0.00    -0.392 OA
ATOM     42  H   LIG    1       28.028 -23.167  13.835  0.00  0.00    +0.209 HD
ENDBRANCH  40  41
ENDBRANCH  37  40
ENDBRANCH  36  37
ENDBRANCH  33  36
ENDBRANCH   7  32
TORSDOF 18
ENDMDL
