MODEL 1
REMARK VINA RESULT:      -6.1      0.000      0.000
REMARK  Name = *****
REMARK                            x       y       z     vdW  Elec       q    Type
REMARK                         _______ _______ _______ _____ _____    ______ ____
ROOT
ATOM      1  C   LIG    1       31.627 -16.485  11.331  0.00  0.00    +0.003 C 
ATOM      2  C   LIG    1       30.523 -17.532  11.114  0.00  0.00    +0.005 C 
ATOM      3  C   LIG    1       29.993 -17.558   9.678  0.00  0.00    +0.015 C 
ATOM      4  C   LIG    1       31.099 -17.659   8.617  0.00  0.00    +0.098 C 
ATOM      5  C   LIG    1       32.154 -16.573   8.845  0.00  0.00    +0.015 C 
ATOM      6  C   LIG    1       32.722 -16.603  10.260  0.00  0.00    +0.005 C 
ENDROOT
BRANCH   4   7
ATOM      7  C   LIG    1       31.711 -19.054   8.557  0.00  0.00    +0.308 C 
ATOM      8  O   LIG    1       32.030 -19.725   9.529  0.00  0.00    -0.251 OA
BRANCH   7   9
ATOM      9  O   LIG    1       31.833 -19.533   7.298  0.00  0.00    -0.480 OA
ATOM     10  H   LIG    1       31.708 -20.497   7.221  0.00  0.00    +0.295 HD
ENDBRANCH   7   9
ENDBRANCH   4   7
BRANCH   1  11
ATOM     11  C   LIG    1       32.218 -16.634  12.746  0.00  0.00    +0.081 C 
BRANCH  11  12
ATOM     12  N   LIG    1       31.987 -15.444  13.558  0.00  0.00    -0.330 NA
ATOM     13  H   LIG    1       32.550 -15.491  14.405  0.00  0.00    +0.118 HD
ATOM     14  H   LIG    1       32.302 -14.620  13.047  0.00  0.00    +0.118 HD
ENDBRANCH  11  12
ENDBRANCH   1  11
TORSDOF 4
ENDMDL
MODEL 2
REMARK VINA RESULT:      -6.1      8.177      9.391
REMARK  Name = *****
REMARK                            x       y       z     vdW  Elec       q    Type
REMARK                         _______ _______ _______ _____ _____    ______ ____
ROOT
ATOM      1  C   LIG    1       25.241 -21.053   6.899  0.00  0.00    +0.003 C 
ATOM      2  C   LIG    1       25.707 -20.628   5.498  0.00  0.00    +0.005 C 
ATOM      3  C   LIG    1       24.758 -21.080   4.386  0.00  0.00    +0.015 C 
ATOM      4  C   LIG    1       23.290 -20.708   4.643  0.00  0.00    +0.098 C 
ATOM      5  C   LIG    1       22.855 -21.187   6.031  0.00  0.00    +0.015 C 
ATOM      6  C   LIG    1       23.772 -20.673   7.136  0.00  0.00    +0.005 C 
ENDROOT
BRANCH   4   7
ATOM      7  C   LIG    1       23.031 -19.220   4.440  0.00  0.00    +0.308 C 
ATOM      8  O   LIG    1       22.169 -18.570   5.017  0.00  0.00    -0.251 OA
BRANCH   7   9
ATOM      9  O   LIG    1       23.892 -18.637   3.575  0.00  0.00    -0.480 OA
ATOM     10  H   LIG    1       23.553 -17.824   3.156  0.00  0.00    +0.295 HD
ENDBRANCH   7   9
ENDBRANCH   4   7
BRANCH   1  11
ATOM     11  C   LIG    1       26.155 -20.423   7.969  0.00  0.00    +0.081 C 
BRANCH  11  12
ATOM     12  N   LIG    1       25.800 -20.866   9.313  0.00  0.00    -0.330 NA
ATOM     13  H   LIG    1       26.647 -21.083   9.837  0.00  0.00    +0.118 HD
ATOM     14  H   LIG    1       25.340 -20.105   9.809  0.00  0.00    +0.118 HD
ENDBRANCH  11  12
ENDBRANCH   1  11
TORSDOF 4
ENDMDL
MODEL 3
REMARK VINA RESULT:      -6.0      8.537      9.776
REMARK  Name = *****
REMARK                            x       y       z     vdW  Elec       q    Type
REMARK                         _______ _______ _______ _____ _____    ______ ____
ROOT
ATOM      1  C   LIG    1       24.683 -20.166   5.315  0.00  0.00    +0.003 C 
ATOM      2  C   LIG    1       25.381 -20.709   6.572  0.00  0.00    +0.005 C 
ATOM      3  C   LIG    1       24.399 -21.168   7.653  0.00  0.00    +0.015 C 
ATOM      4  C   LIG    1       23.319 -22.128   7.133  0.00  0.00    +0.098 C 
ATOM      5  C   LIG    1       22.622 -21.532   5.908  0.00  0.00    +0.015 C 
ATOM      6  C   LIG    1       23.608 -21.141   4.812  0.00  0.00    +0.005 C 
ENDROOT
BRANCH   4   7
ATOM      7  C   LIG    1       23.875 -23.522   6.859  0.00  0.00    +0.308 C 
ATOM      8  O   LIG    1       25.034 -23.866   7.044  0.00  0.00    -0.251 OA
BRANCH   7   9
ATOM      9  O   LIG    1       22.940 -24.398   6.424  0.00  0.00    -0.480 OA
ATOM     10  H   LIG    1       23.304 -25.206   6.019  0.00  0.00    +0.295 HD
ENDBRANCH   7   9
ENDBRANCH   4   7
BRANCH   1  11
ATOM     11  C   LIG    1       25.729 -19.881   4.218  0.00  0.00    +0.081 C 
BRANCH  11  12
ATOM     12  N   LIG    1       27.091 -19.960   4.736  0.00  0.00    -0.330 NA
ATOM     13  H   LIG    1       27.458 -19.020   4.881  0.00  0.00    +0.118 HD
ATOM     14  H   LIG    1       27.079 -20.409   5.651  0.00  0.00    +0.118 HD
ENDBRANCH  11  12
ENDBRANCH   1  11
TORSDOF 4
ENDMDL
MODEL 4
REMARK VINA RESULT:      -5.9      8.696      9.963
REMARK  Name = *****
REMARK                            x       y       z     vdW  Elec       q    Type
REMARK                         _______ _______ _______ _____ _____    ______ ____
ROOT
ATOM      1  C   LIG    1       24.290 -24.141   6.903  0.00  0.00    +0.003 C 
ATOM      2  C   LIG    1       23.356 -22.978   6.530  0.00  0.00    +0.005 C 
ATOM      3  C   LIG    1       23.626 -21.707   7.340  0.00  0.00    +0.015 C 
ATOM      4  C   LIG    1       25.102 -21.283   7.342  0.00  0.00    +0.098 C 
ATOM      5  C   LIG    1       25.992 -22.457   7.759  0.00  0.00    +0.015 C 
ATOM      6  C   LIG    1       25.760 -23.695   6.899  0.00  0.00    +0.005 C 
ENDROOT
BRANCH   4   7
ATOM      7  C   LIG    1       25.529 -20.682   6.008  0.00  0.00    +0.308 C 
ATOM      8  O   LIG    1       24.767 -20.231   5.164  0.00  0.00    -0.251 OA
BRANCH   7   9
ATOM      9  O   LIG    1       26.870 -20.638   5.841  0.00  0.00    -0.480 OA
ATOM     10  H   LIG    1       27.379 -21.062   6.557  0.00  0.00    +0.295 HD
ENDBRANCH   7   9
ENDBRANCH   4   7
BRANCH   1  11
ATOM     11  C   LIG    1       24.067 -25.321   5.937  0.00  0.00    +0.081 C 
BRANCH  11  12
ATOM     12  N   LIG    1       24.800 -25.143   4.687  0.00  0.00    -0.330 NA
ATOM     13  H   LIG    1       24.748 -25.997   4.134  0.00  0.00    +0.118 HD
ATOM     14  H   LIG    1       24.352 -24.413   4.134  0.00  0.00    +0.118 HD
ENDBRANCH  11  12
ENDBRANCH   1  11
TORSDOF 4
ENDMDL
MODEL 5
REMARK VINA RESULT:      -5.9      7.272      8.486
REMARK  Name = *****
REMARK                            x       y       z     vdW  Elec       q    Type
REMARK                         _______ _______ _______ _____ _____    ______ ____
ROOT
ATOM      1  C   LIG    1       24.733 -22.543   7.020  0.00  0.00    +0.003 C 
ATOM      2  C   LIG    1       25.485 -21.897   5.846  0.00  0.00    +0.005 C 
ATOM      3  C   LIG    1       25.953 -20.470   6.145  0.00  0.00    +0.015 C 
ATOM      4  C   LIG    1       26.727 -20.342   7.466  0.00  0.00    +0.098 C 
ATOM      5  C   LIG    1       25.924 -20.959   8.614  0.00  0.00    +0.015 C 
ATOM      6  C   LIG    1       25.523 -22.403   8.331  0.00  0.00    +0.005 C 
ENDROOT
BRANCH   4   7
ATOM      7  C   LIG    1       28.132 -20.923   7.366  0.00  0.00    +0.308 C 
ATOM      8  O   LIG    1       28.734 -21.469   8.281  0.00  0.00    -0.251 OA
BRANCH   7   9
ATOM      9  O   LIG    1       28.667 -20.831   6.127  0.00  0.00    -0.480 OA
ATOM     10  H   LIG    1       28.121 -21.227   5.423  0.00  0.00    +0.295 HD
ENDBRANCH   7   9
ENDBRANCH   4   7
BRANCH   1  11
ATOM     11  C   LIG    1       24.443 -24.024   6.705  0.00  0.00    +0.081 C 
BRANCH  11  12
ATOM     12  N   LIG    1       23.011 -24.283   6.596  0.00  0.00    -0.330 NA
ATOM     13  H   LIG    1       22.579 -23.580   5.998  0.00  0.00    +0.118 HD
ATOM     14  H   LIG    1       22.864 -25.181   6.138  0.00  0.00    +0.118 HD
ENDBRANCH  11  12
ENDBRANCH   1  11
TORSDOF 4
ENDMDL
MODEL 6
REMARK VINA RESULT:      -5.9      9.404     10.614
REMARK  Name = *****
REMARK                            x       y       z     vdW  Elec       q    Type
REMARK                         _______ _______ _______ _____ _____    ______ ____
ROOT
ATOM      1  C   LIG    1       25.161 -24.537   6.923  0.00  0.00    +0.003 C 
ATOM      2  C   LIG    1       23.768 -24.482   6.277  0.00  0.00    +0.005 C 
ATOM      3  C   LIG    1       22.857 -23.423   6.903  0.00  0.00    +0.015 C 
ATOM      4  C   LIG    1       23.504 -22.034   6.995  0.00  0.00    +0.098 C 
ATOM      5  C   LIG    1       24.869 -22.127   7.682  0.00  0.00    +0.015 C 
ATOM      6  C   LIG    1       25.790 -23.138   7.006  0.00  0.00    +0.005 C 
ENDROOT
BRANCH   4   7
ATOM      7  C   LIG    1       23.588 -21.348   5.636  0.00  0.00    +0.308 C 
ATOM      8  O   LIG    1       24.556 -20.725   5.221  0.00  0.00    -0.251 OA
BRANCH   7   9
ATOM      9  O   LIG    1       22.487 -21.531   4.872  0.00  0.00    -0.480 OA
ATOM     10  H   LIG    1       21.949 -22.305   5.120  0.00  0.00    +0.295 HD
ENDBRANCH   7   9
ENDBRANCH   4   7
BRANCH   1  11
ATOM     11  C   LIG    1       26.066 -25.505   6.135  0.00  0.00    +0.081 C 
BRANCH  11  12
ATOM     12  N   LIG    1       25.562 -25.738   4.786  0.00  0.00    -0.330 NA
ATOM     13  H   LIG    1       26.324 -25.651   4.115  0.00  0.00    +0.118 HD
ATOM     14  H   LIG    1       25.222 -26.696   4.713  0.00  0.00    +0.118 HD
ENDBRANCH  11  12
ENDBRANCH   1  11
TORSDOF 4
ENDMDL
MODEL 7
REMARK VINA RESULT:      -5.8      1.881      2.662
REMARK  Name = *****
REMARK                            x       y       z     vdW  Elec       q    Type
REMARK                         _______ _______ _______ _____ _____    ______ ____
ROOT
ATOM      1  C   LIG    1       30.850 -17.361   8.904  0.00  0.00    +0.003 C 
ATOM      2  C   LIG    1       29.704 -18.280   9.356  0.00  0.00    +0.005 C 
ATOM      3  C   LIG    1       29.352 -19.353   8.324  0.00  0.00    +0.015 C 
ATOM      4  C   LIG    1       30.567 -20.150   7.827  0.00  0.00    +0.098 C 
ATOM      5  C   LIG    1       31.667 -19.198   7.347  0.00  0.00    +0.015 C 
ATOM      6  C   LIG    1       32.055 -18.177   8.411  0.00  0.00    +0.005 C 
ENDROOT
BRANCH   4   7
ATOM      7  C   LIG    1       31.075 -21.135   8.873  0.00  0.00    +0.308 C 
ATOM      8  O   LIG    1       32.235 -21.224   9.252  0.00  0.00    -0.251 OA
BRANCH   7   9
ATOM      9  O   LIG    1       30.098 -21.902   9.409  0.00  0.00    -0.480 OA
ATOM     10  H   LIG    1       30.375 -22.810   9.630  0.00  0.00    +0.295 HD
ENDBRANCH   7   9
ENDBRANCH   4   7
BRANCH   1  11
ATOM     11  C   LIG    1       31.253 -16.420  10.057  0.00  0.00    +0.081 C 
BRANCH  11  12
ATOM     12  N   LIG    1       30.317 -16.501  11.173  0.00  0.00    -0.330 NA
ATOM     13  H   LIG    1       29.370 -16.627  10.818  0.00  0.00    +0.118 HD
ATOM     14  H   LIG    1       30.528 -17.327  11.732  0.00  0.00    +0.118 HD
ENDBRANCH  11  12
ENDBRANCH   1  11
TORSDOF 4
ENDMDL
MODEL 8
REMARK VINA RESULT:      -5.8      4.308      5.682
REMARK  Name = *****
REMARK                            x       y       z     vdW  Elec       q    Type
REMARK                         _______ _______ _______ _____ _____    ______ ____
ROOT
ATOM      1  C   LIG    1       28.811 -20.527   6.549  0.00  0.00    +0.003 C 
ATOM      2  C   LIG    1       29.029 -21.142   7.940  0.00  0.00    +0.005 C 
ATOM      3  C   LIG    1       30.503 -21.197   8.348  0.00  0.00    +0.015 C 
ATOM      4  C   LIG    1       31.235 -19.856   8.190  0.00  0.00    +0.098 C 
ATOM      5  C   LIG    1       31.027 -19.300   6.779  0.00  0.00    +0.015 C 
ATOM      6  C   LIG    1       29.551 -19.187   6.411  0.00  0.00    +0.005 C 
ENDROOT
BRANCH   4   7
ATOM      7  C   LIG    1       30.837 -18.854   9.268  0.00  0.00    +0.308 C 
ATOM      8  O   LIG    1       29.698 -18.457   9.474  0.00  0.00    -0.251 OA
BRANCH   7   9
ATOM      9  O   LIG    1       31.872 -18.459  10.044  0.00  0.00    -0.480 OA
ATOM     10  H   LIG    1       32.749 -18.718   9.707  0.00  0.00    +0.295 HD
ENDBRANCH   7   9
ENDBRANCH   4   7
BRANCH   1  11
ATOM     11  C   LIG    1       27.302 -20.356   6.282  0.00  0.00    +0.081 C 
BRANCH  11  12
ATOM     12  N   LIG    1       27.032 -20.044   4.883  0.00  0.00    -0.330 NA
ATOM     13  H   LIG    1       26.796 -19.057   4.790  0.00  0.00    +0.118 HD
ATOM     14  H   LIG    1       27.878 -20.191   4.335  0.00  0.00    +0.118 HD
ENDBRANCH  11  12
ENDBRANCH   1  11
TORSDOF 4
ENDMDL
MODEL 9
REMARK VINA RESULT:      -5.7      6.778      7.834
REMARK  Name = *****
REMARK                            x       y       z     vdW  Elec       q    Type
REMARK                         _______ _______ _______ _____ _____    ______ ____
ROOT
ATOM      1  C   LIG    1       27.315 -20.320   7.137  0.00  0.00    +0.003 C 
ATOM      2  C   LIG    1       27.298 -21.604   7.981  0.00  0.00    +0.005 C 
ATOM      3  C   LIG    1       25.884 -22.085   8.315  0.00  0.00    +0.015 C 
ATOM      4  C   LIG    1       24.965 -22.189   7.089  0.00  0.00    +0.098 C 
ATOM      5  C   LIG    1       24.979 -20.876   6.301  0.00  0.00    +0.015 C 
ATOM      6  C   LIG    1       26.391 -20.445   5.917  0.00  0.00    +0.005 C 
ENDROOT
BRANCH   4   7
ATOM      7  C   LIG    1       25.309 -23.389   6.214  0.00  0.00    +0.308 C 
ATOM      8  O   LIG    1       25.925 -24.378   6.588  0.00  0.00    -0.251 OA
BRANCH   7   9
ATOM      9  O   LIG    1       24.820 -23.297   4.957  0.00  0.00    -0.480 OA
ATOM     10  H   LIG    1       24.102 -23.925   4.757  0.00  0.00    +0.295 HD
ENDBRANCH   7   9
ENDBRANCH   4   7
BRANCH   1  11
ATOM     11  C   LIG    1       28.760 -19.996   6.707  0.00  0.00    +0.081 C 
BRANCH  11  12
ATOM     12  N   LIG    1       29.709 -20.981   7.216  0.00  0.00    -0.330 NA
ATOM     13  H   LIG    1       30.660 -20.685   6.998  0.00  0.00    +0.118 HD
ATOM     14  H   LIG    1       29.645 -21.018   8.232  0.00  0.00    +0.118 HD
ENDBRANCH  11  12
ENDBRANCH   1  11
TORSDOF 4
ENDMDL
