MODEL 1
REMARK VINA RESULT:      -5.0      0.000      0.000
REMARK  Name = *****
REMARK                            x       y       z     vdW  Elec       q    Type
REMARK                         _______ _______ _______ _____ _____    ______ ____
ROOT
ATOM      1  C   LIG    1       26.380 -13.729   3.491  0.00  0.00    +0.225 C 
ATOM      2  N   LIG    1       25.455 -14.522   4.092  0.00  0.00    -0.287 N 
ATOM      3  H   LIG    1       25.740 -15.299   4.677  0.00  0.00    +0.172 HD
ATOM      4  C   LIG    1       24.137 -14.281   3.913  0.00  0.00    +0.330 C 
ATOM      5  O   LIG    1       23.269 -14.970   4.437  0.00  0.00    -0.247 OA
ATOM      6  N   LIG    1       23.843 -13.225   3.117  0.00  0.00    -0.259 N 
ATOM      7  H   LIG    1       22.876 -13.000   2.950  0.00  0.00    +0.175 HD
ATOM      8  C   LIG    1       24.783 -12.437   2.519  0.00  0.00    +0.352 C 
ATOM      9  O   LIG    1       24.427 -11.501   1.812  0.00  0.00    -0.244 OA
ATOM     10  N   LIG    1       26.105 -12.722   2.731  0.00  0.00    -0.168 NA
ENDROOT
BRANCH   1  12
ATOM     11  O   LIG    1       28.719 -13.258   3.686  0.00  0.00    -0.242 OA
ATOM     12  C   LIG    1       27.834 -14.089   3.758  0.00  0.00    +0.373 C 
BRANCH  12  13
ATOM     13  O   LIG    1       27.969 -15.387   4.064  0.00  0.00    -0.475 OA
ATOM     14  H   LIG    1       27.188 -15.891   3.733  0.00  0.00    +0.295 HD
ENDBRANCH  12  13
ENDBRANCH   1  12
TORSDOF 2
ENDMDL
MODEL 2
REMARK VINA RESULT:      -5.0      0.140      2.399
REMARK  Name = *****
REMARK                            x       y       z     vdW  Elec       q    Type
REMARK                         _______ _______ _______ _____ _____    ______ ____
ROOT
ATOM      1  C   LIG    1       26.228 -13.824   3.562  0.00  0.00    +0.225 C 
ATOM      2  N   LIG    1       25.931 -12.762   2.770  0.00  0.00    -0.287 N 
ATOM      3  H   LIG    1       26.668 -12.200   2.358  0.00  0.00    +0.172 HD
ATOM      4  C   LIG    1       24.641 -12.442   2.521  0.00  0.00    +0.330 C 
ATOM      5  O   LIG    1       24.328 -11.493   1.812  0.00  0.00    -0.247 OA
ATOM      6  N   LIG    1       23.721 -13.244   3.110  0.00  0.00    -0.259 N 
ATOM      7  H   LIG    1       22.745 -13.050   2.958  0.00  0.00    +0.175 HD
ATOM      8  C   LIG    1       24.034 -14.308   3.905  0.00  0.00    +0.352 C 
ATOM      9  O   LIG    1       23.137 -14.979   4.399  0.00  0.00    -0.244 OA
ATOM     10  N   LIG    1       25.356 -14.591   4.126  0.00  0.00    -0.168 NA
ENDROOT
BRANCH   1  12
ATOM     11  O   LIG    1       28.538 -13.207   3.697  0.00  0.00    -0.242 OA
ATOM     12  C   LIG    1       27.710 -14.095   3.776  0.00  0.00    +0.373 C 
BRANCH  12  13
ATOM     13  O   LIG    1       27.939 -15.388   4.046  0.00  0.00    -0.475 OA
ATOM     14  H   LIG    1       27.144 -15.923   3.810  0.00  0.00    +0.295 HD
ENDBRANCH  12  13
ENDBRANCH   1  12
TORSDOF 2
ENDMDL
MODEL 3
REMARK VINA RESULT:      -4.9      1.603      4.207
REMARK  Name = *****
REMARK                            x       y       z     vdW  Elec       q    Type
REMARK                         _______ _______ _______ _____ _____    ______ ____
ROOT
ATOM      1  C   LIG    1       25.432 -13.566   3.495  0.00  0.00    +0.225 C 
ATOM      2  N   LIG    1       26.653 -12.987   3.625  0.00  0.00    -0.287 N 
ATOM      3  H   LIG    1       26.745 -11.980   3.708  0.00  0.00    +0.172 HD
ATOM      4  C   LIG    1       27.768 -13.752   3.645  0.00  0.00    +0.330 C 
ATOM      5  O   LIG    1       28.889 -13.271   3.762  0.00  0.00    -0.247 OA
ATOM      6  N   LIG    1       27.558 -15.085   3.529  0.00  0.00    -0.259 N 
ATOM      7  H   LIG    1       28.354 -15.702   3.538  0.00  0.00    +0.175 HD
ATOM      8  C   LIG    1       26.324 -15.654   3.397  0.00  0.00    +0.352 C 
ATOM      9  O   LIG    1       26.227 -16.871   3.296  0.00  0.00    -0.244 OA
ATOM     10  N   LIG    1       25.226 -14.835   3.384  0.00  0.00    -0.168 NA
ENDROOT
BRANCH   1  12
ATOM     11  O   LIG    1       23.869 -12.054   4.496  0.00  0.00    -0.242 OA
ATOM     12  C   LIG    1       24.246 -12.612   3.484  0.00  0.00    +0.373 C 
BRANCH  12  13
ATOM     13  O   LIG    1       23.719 -12.499   2.257  0.00  0.00    -0.475 OA
ATOM     14  H   LIG    1       24.380 -12.095   1.646  0.00  0.00    +0.295 HD
ENDBRANCH  12  13
ENDBRANCH   1  12
TORSDOF 2
ENDMDL
MODEL 4
REMARK VINA RESULT:      -4.9      1.810      2.700
REMARK  Name = *****
REMARK                            x       y       z     vdW  Elec       q    Type
REMARK                         _______ _______ _______ _____ _____    ______ ____
ROOT
ATOM      1  C   LIG    1       27.306 -13.790   3.979  0.00  0.00    +0.225 C 
ATOM      2  N   LIG    1       26.155 -13.134   4.275  0.00  0.00    -0.287 N 
ATOM      3  H   LIG    1       26.172 -12.168   4.584  0.00  0.00    +0.172 HD
ATOM      4  C   LIG    1       24.965 -13.766   4.159  0.00  0.00    +0.330 C 
ATOM      5  O   LIG    1       23.902 -13.212   4.414  0.00  0.00    -0.247 OA
ATOM      6  N   LIG    1       25.031 -15.053   3.740  0.00  0.00    -0.259 N 
ATOM      7  H   LIG    1       24.174 -15.572   3.636  0.00  0.00    +0.175 HD
ATOM      8  C   LIG    1       26.196 -15.701   3.447  0.00  0.00    +0.352 C 
ATOM      9  O   LIG    1       26.163 -16.868   3.076  0.00  0.00    -0.244 OA
ATOM     10  N   LIG    1       27.375 -15.016   3.580  0.00  0.00    -0.168 NA
ENDROOT
BRANCH   1  12
ATOM     11  O   LIG    1       28.727 -12.192   5.055  0.00  0.00    -0.242 OA
ATOM     12  C   LIG    1       28.587 -12.985   4.144  0.00  0.00    +0.373 C 
BRANCH  12  13
ATOM     13  O   LIG    1       29.475 -13.273   3.182  0.00  0.00    -0.475 OA
ATOM     14  H   LIG    1       29.151 -12.931   2.316  0.00  0.00    +0.295 HD
ENDBRANCH  12  13
ENDBRANCH   1  12
TORSDOF 2
ENDMDL
MODEL 5
REMARK VINA RESULT:      -4.9      1.650      3.697
REMARK  Name = *****
REMARK                            x       y       z     vdW  Elec       q    Type
REMARK                         _______ _______ _______ _____ _____    ______ ____
ROOT
ATOM      1  C   LIG    1       25.518 -13.523   3.571  0.00  0.00    +0.225 C 
ATOM      2  N   LIG    1       25.333 -14.860   3.419  0.00  0.00    -0.287 N 
ATOM      3  H   LIG    1       24.401 -15.247   3.321  0.00  0.00    +0.172 HD
ATOM      4  C   LIG    1       26.398 -15.693   3.399  0.00  0.00    +0.330 C 
ATOM      5  O   LIG    1       26.276 -16.905   3.263  0.00  0.00    -0.247 OA
ATOM      6  N   LIG    1       27.605 -15.095   3.537  0.00  0.00    -0.259 N 
ATOM      7  H   LIG    1       28.433 -15.669   3.528  0.00  0.00    +0.175 HD
ATOM      8  C   LIG    1       27.776 -13.750   3.690  0.00  0.00    +0.352 C 
ATOM      9  O   LIG    1       28.907 -13.293   3.810  0.00  0.00    -0.244 OA
ATOM     10  N   LIG    1       26.666 -12.948   3.703  0.00  0.00    -0.168 NA
ENDROOT
BRANCH   1  12
ATOM     11  O   LIG    1       23.906 -12.062   4.571  0.00  0.00    -0.242 OA
ATOM     12  C   LIG    1       24.253 -12.678   3.581  0.00  0.00    +0.373 C 
BRANCH  12  13
ATOM     13  O   LIG    1       23.624 -12.723   2.398  0.00  0.00    -0.475 OA
ATOM     14  H   LIG    1       24.178 -13.211   1.744  0.00  0.00    +0.295 HD
ENDBRANCH  12  13
ENDBRANCH   1  12
TORSDOF 2
ENDMDL
MODEL 6
REMARK VINA RESULT:      -4.9      1.949      3.337
REMARK  Name = *****
REMARK                            x       y       z     vdW  Elec       q    Type
REMARK                         _______ _______ _______ _____ _____    ______ ____
ROOT
ATOM      1  C   LIG    1       26.890 -15.377   3.305  0.00  0.00    +0.225 C 
ATOM      2  N   LIG    1       27.959 -14.713   3.815  0.00  0.00    -0.287 N 
ATOM      3  H   LIG    1       28.688 -15.209   4.316  0.00  0.00    +0.172 HD
ATOM      4  C   LIG    1       28.062 -13.373   3.659  0.00  0.00    +0.330 C 
ATOM      5  O   LIG    1       29.010 -12.735   4.102  0.00  0.00    -0.247 OA
ATOM      6  N   LIG    1       27.047 -12.789   2.978  0.00  0.00    -0.259 N 
ATOM      7  H   LIG    1       27.074 -11.793   2.833  0.00  0.00    +0.175 HD
ATOM      8  C   LIG    1       25.978 -13.469   2.472  0.00  0.00    +0.352 C 
ATOM      9  O   LIG    1       25.103 -12.859   1.870  0.00  0.00    -0.244 OA
ATOM     10  N   LIG    1       25.920 -14.825   2.656  0.00  0.00    -0.168 NA
ENDROOT
BRANCH   1  12
ATOM     11  O   LIG    1       25.932 -17.568   3.191  0.00  0.00    -0.242 OA
ATOM     12  C   LIG    1       26.873 -16.880   3.538  0.00  0.00    +0.373 C 
BRANCH  12  13
ATOM     13  O   LIG    1       27.991 -17.294   4.149  0.00  0.00    -0.475 OA
ATOM     14  H   LIG    1       28.704 -16.623   4.031  0.00  0.00    +0.295 HD
ENDBRANCH  12  13
ENDBRANCH   1  12
TORSDOF 2
ENDMDL
MODEL 7
REMARK VINA RESULT:      -4.5      1.819      2.403
REMARK  Name = *****
REMARK                            x       y       z     vdW  Elec       q    Type
REMARK                         _______ _______ _______ _____ _____    ______ ____
ROOT
ATOM      1  C   LIG    1       27.300 -13.720   4.003  0.00  0.00    +0.225 C 
ATOM      2  N   LIG    1       27.408 -15.008   3.588  0.00  0.00    -0.287 N 
ATOM      3  H   LIG    1       28.315 -15.416   3.387  0.00  0.00    +0.172 HD
ATOM      4  C   LIG    1       26.298 -15.766   3.436  0.00  0.00    +0.330 C 
ATOM      5  O   LIG    1       26.349 -16.933   3.065  0.00  0.00    -0.247 OA
ATOM      6  N   LIG    1       25.129 -15.146   3.724  0.00  0.00    -0.259 N 
ATOM      7  H   LIG    1       24.271 -15.665   3.629  0.00  0.00    +0.175 HD
ATOM      8  C   LIG    1       25.036 -13.849   4.140  0.00  0.00    +0.352 C 
ATOM      9  O   LIG    1       23.934 -13.368   4.377  0.00  0.00    -0.244 OA
ATOM     10  N   LIG    1       26.189 -13.124   4.279  0.00  0.00    -0.168 NA
ENDROOT
BRANCH   1  12
ATOM     11  O   LIG    1       28.790 -12.157   5.036  0.00  0.00    -0.242 OA
ATOM     12  C   LIG    1       28.610 -12.958   4.139  0.00  0.00    +0.373 C 
BRANCH  12  13
ATOM     13  O   LIG    1       29.475 -13.292   3.171  0.00  0.00    -0.475 OA
ATOM     14  H   LIG    1       29.303 -14.217   2.875  0.00  0.00    +0.295 HD
ENDBRANCH  12  13
ENDBRANCH   1  12
TORSDOF 2
ENDMDL
MODEL 8
REMARK VINA RESULT:      -4.4      1.920      3.323
REMARK  Name = *****
REMARK                            x       y       z     vdW  Elec       q    Type
REMARK                         _______ _______ _______ _____ _____    ______ ____
ROOT
ATOM      1  C   LIG    1       26.945 -15.297   3.376  0.00  0.00    +0.225 C 
ATOM      2  N   LIG    1       25.926 -14.707   2.699  0.00  0.00    -0.287 N 
ATOM      3  H   LIG    1       25.158 -15.259   2.334  0.00  0.00    +0.172 HD
ATOM      4  C   LIG    1       25.927 -13.369   2.504  0.00  0.00    +0.330 C 
ATOM      5  O   LIG    1       25.028 -12.796   1.900  0.00  0.00    -0.247 OA
ATOM      6  N   LIG    1       26.990 -12.709   3.024  0.00  0.00    -0.259 N 
ATOM      7  H   LIG    1       27.041 -11.709   2.908  0.00  0.00    +0.175 HD
ATOM      8  C   LIG    1       28.008 -13.315   3.701  0.00  0.00    +0.352 C 
ATOM      9  O   LIG    1       28.932 -12.639   4.137  0.00  0.00    -0.244 OA
ATOM     10  N   LIG    1       27.960 -14.673   3.873  0.00  0.00    -0.168 NA
ENDROOT
BRANCH   1  12
ATOM     11  O   LIG    1       25.865 -17.423   3.164  0.00  0.00    -0.242 OA
ATOM     12  C   LIG    1       26.845 -16.807   3.538  0.00  0.00    +0.373 C 
BRANCH  12  13
ATOM     13  O   LIG    1       27.939 -17.312   4.123  0.00  0.00    -0.475 OA
ATOM     14  H   LIG    1       28.621 -17.514   3.438  0.00  0.00    +0.295 HD
ENDBRANCH  12  13
ENDBRANCH   1  12
TORSDOF 2
ENDMDL
MODEL 9
REMARK VINA RESULT:      -4.3      6.203      7.916
REMARK  Name = *****
REMARK                            x       y       z     vdW  Elec       q    Type
REMARK                         _______ _______ _______ _____ _____    ______ ____
ROOT
ATOM      1  C   LIG    1       24.349 -20.666   5.461  0.00  0.00    +0.225 C 
ATOM      2  N   LIG    1       25.430 -20.998   6.213  0.00  0.00    -0.287 N 
ATOM      3  H   LIG    1       25.336 -21.614   7.013  0.00  0.00    +0.172 HD
ATOM      4  C   LIG    1       26.650 -20.505   5.900  0.00  0.00    +0.330 C 
ATOM      5  O   LIG    1       27.652 -20.779   6.550  0.00  0.00    -0.247 OA
ATOM      6  N   LIG    1       26.686 -19.690   4.818  0.00  0.00    -0.259 N 
ATOM      7  H   LIG    1       27.570 -19.296   4.540  0.00  0.00    +0.175 HD
ATOM      8  C   LIG    1       25.591 -19.365   4.072  0.00  0.00    +0.352 C 
ATOM      9  O   LIG    1       25.715 -18.618   3.109  0.00  0.00    -0.244 OA
ATOM     10  N   LIG    1       24.378 -19.890   4.429  0.00  0.00    -0.168 NA
ENDROOT
BRANCH   1  12
ATOM     11  O   LIG    1       22.816 -21.571   7.061  0.00  0.00    -0.242 OA
ATOM     12  C   LIG    1       23.025 -21.275   5.901  0.00  0.00    +0.373 C 
BRANCH  12  13
ATOM     13  O   LIG    1       22.186 -21.424   4.867  0.00  0.00    -0.475 OA
ATOM     14  H   LIG    1       22.582 -22.034   4.201  0.00  0.00    +0.295 HD
ENDBRANCH  12  13
ENDBRANCH   1  12
TORSDOF 2
ENDMDL
