MODEL 1
REMARK VINA RESULT:      -5.7      0.000      0.000
REMARK  Name = *****
REMARK                            x       y       z     vdW  Elec       q    Type
REMARK                         _______ _______ _______ _____ _____    ______ ____
ROOT
ATOM      1  O   LIG    1       32.073 -20.458   9.065  0.00  0.00    -0.268 OA
ATOM      2  C   LIG    1       31.134 -20.342   8.288  0.00  0.00    +0.252 C 
ATOM      3  N   LIG    1       30.079 -21.221   8.255  0.00  0.00    -0.328 N 
ATOM      4  H   LIG    1       30.119 -21.986   8.918  0.00  0.00    +0.168 HD
ATOM      5  C   LIG    1       29.012 -21.102   7.396  0.00  0.00    +0.109 C 
ATOM      6  C   LIG    1       28.950 -20.088   6.520  0.00  0.00    +0.098 C 
ATOM      7 CL   LIG    1       27.600 -19.948   5.456  0.00  0.00    -0.078 Cl
ATOM      8  C   LIG    1       30.029 -19.114   6.484  0.00  0.00    +0.142 C 
ATOM      9  C   LIG    1       31.078 -19.220   7.316  0.00  0.00    +0.117 C 
ENDROOT
BRANCH   8  10
ATOM     10  O   LIG    1       29.910 -18.097   5.562  0.00  0.00    -0.505 OA
ATOM     11  H   LIG    1       30.268 -18.396   4.709  0.00  0.00    +0.292 HD
ENDBRANCH   8  10
TORSDOF 1
ENDMDL
MODEL 2
REMARK VINA RESULT:      -5.5      4.203      4.726
REMARK  Name = *****
REMARK                            x       y       z     vdW  Elec       q    Type
REMARK                         _______ _______ _______ _____ _____    ______ ____
ROOT
ATOM      1  O   LIG    1       25.929 -20.691   9.461  0.00  0.00    -0.268 OA
ATOM      2  C   LIG    1       25.669 -20.663   8.265  0.00  0.00    +0.252 C 
ATOM      3  N   LIG    1       24.396 -20.826   7.774  0.00  0.00    -0.328 N 
ATOM      4  H   LIG    1       23.670 -20.974   8.465  0.00  0.00    +0.168 HD
ATOM      5  C   LIG    1       24.083 -20.787   6.436  0.00  0.00    +0.109 C 
ATOM      6  C   LIG    1       25.038 -20.584   5.516  0.00  0.00    +0.098 C 
ATOM      7 CL   LIG    1       24.628 -20.531   3.843  0.00  0.00    -0.078 Cl
ATOM      8  C   LIG    1       26.415 -20.408   5.950  0.00  0.00    +0.142 C 
ATOM      9  C   LIG    1       26.734 -20.446   7.254  0.00  0.00    +0.117 C 
ENDROOT
BRANCH   8  10
ATOM     10  O   LIG    1       27.351 -20.206   4.959  0.00  0.00    -0.505 OA
ATOM     11  H   LIG    1       26.932 -19.743   4.214  0.00  0.00    +0.292 HD
ENDBRANCH   8  10
TORSDOF 1
ENDMDL
MODEL 3
REMARK VINA RESULT:      -5.4      3.518      4.199
REMARK  Name = *****
REMARK                            x       y       z     vdW  Elec       q    Type
REMARK                         _______ _______ _______ _____ _____    ______ ____
ROOT
ATOM      1  O   LIG    1       29.337 -20.008   6.094  0.00  0.00    -0.268 OA
ATOM      2  C   LIG    1       28.154 -20.188   6.358  0.00  0.00    +0.252 C 
ATOM      3  N   LIG    1       27.181 -20.292   5.394  0.00  0.00    -0.328 N 
ATOM      4  H   LIG    1       27.497 -20.209   4.435  0.00  0.00    +0.168 HD
ATOM      5  C   LIG    1       25.851 -20.503   5.670  0.00  0.00    +0.109 C 
ATOM      6  C   LIG    1       25.427 -20.620   6.938  0.00  0.00    +0.098 C 
ATOM      7 CL   LIG    1       23.757 -20.894   7.268  0.00  0.00    -0.078 Cl
ATOM      8  C   LIG    1       26.392 -20.517   8.021  0.00  0.00    +0.142 C 
ATOM      9  C   LIG    1       27.693 -20.308   7.764  0.00  0.00    +0.117 C 
ENDROOT
BRANCH   8  10
ATOM     10  O   LIG    1       25.896 -20.644   9.301  0.00  0.00    -0.505 OA
ATOM     11  H   LIG    1       26.420 -20.087   9.902  0.00  0.00    +0.292 HD
ENDBRANCH   8  10
TORSDOF 1
ENDMDL
MODEL 4
REMARK VINA RESULT:      -5.4      6.337      7.161
REMARK  Name = *****
REMARK                            x       y       z     vdW  Elec       q    Type
REMARK                         _______ _______ _______ _____ _____    ______ ____
ROOT
ATOM      1  O   LIG    1       26.349 -25.850   5.862  0.00  0.00    -0.268 OA
ATOM      2  C   LIG    1       25.679 -24.878   6.188  0.00  0.00    +0.252 C 
ATOM      3  N   LIG    1       26.232 -23.657   6.489  0.00  0.00    -0.328 N 
ATOM      4  H   LIG    1       27.242 -23.601   6.427  0.00  0.00    +0.168 HD
ATOM      5  C   LIG    1       25.497 -22.553   6.848  0.00  0.00    +0.109 C 
ATOM      6  C   LIG    1       24.159 -22.619   6.925  0.00  0.00    +0.098 C 
ATOM      7 CL   LIG    1       23.250 -21.223   7.368  0.00  0.00    -0.078 Cl
ATOM      8  C   LIG    1       23.492 -23.877   6.628  0.00  0.00    +0.142 C 
ATOM      9  C   LIG    1       24.199 -24.963   6.279  0.00  0.00    +0.117 C 
ENDROOT
BRANCH   8  10
ATOM     10  O   LIG    1       22.117 -23.883   6.727  0.00  0.00    -0.505 OA
ATOM     11  H   LIG    1       21.764 -24.621   6.202  0.00  0.00    +0.292 HD
ENDBRANCH   8  10
TORSDOF 1
ENDMDL
MODEL 5
REMARK VINA RESULT:      -5.4      1.760      2.285
REMARK  Name = *****
REMARK                            x       y       z     vdW  Elec       q    Type
REMARK                         _______ _______ _______ _____ _____    ______ ____
ROOT
ATOM      1  O   LIG    1       31.663 -21.831   9.719  0.00  0.00    -0.268 OA
ATOM      2  C   LIG    1       31.170 -21.114   8.858  0.00  0.00    +0.252 C 
ATOM      3  N   LIG    1       31.780 -19.972   8.398  0.00  0.00    -0.328 N 
ATOM      4  H   LIG    1       32.674 -19.747   8.817  0.00  0.00    +0.168 HD
ATOM      5  C   LIG    1       31.247 -19.160   7.425  0.00  0.00    +0.109 C 
ATOM      6  C   LIG    1       30.066 -19.455   6.861  0.00  0.00    +0.098 C 
ATOM      7 CL   LIG    1       29.416 -18.431   5.635  0.00  0.00    -0.078 Cl
ATOM      8  C   LIG    1       29.350 -20.644   7.293  0.00  0.00    +0.142 C 
ATOM      9  C   LIG    1       29.858 -21.444   8.244  0.00  0.00    +0.117 C 
ENDROOT
BRANCH   8  10
ATOM     10  O   LIG    1       28.142 -20.893   6.679  0.00  0.00    -0.505 OA
ATOM     11  H   LIG    1       27.984 -21.852   6.662  0.00  0.00    +0.292 HD
ENDBRANCH   8  10
TORSDOF 1
ENDMDL
MODEL 6
REMARK VINA RESULT:      -5.1      6.252      7.088
REMARK  Name = *****
REMARK                            x       y       z     vdW  Elec       q    Type
REMARK                         _______ _______ _______ _____ _____    ______ ____
ROOT
ATOM      1  O   LIG    1       23.883 -26.184   6.077  0.00  0.00    -0.268 OA
ATOM      2  C   LIG    1       24.056 -25.014   6.392  0.00  0.00    +0.252 C 
ATOM      3  N   LIG    1       23.024 -24.118   6.535  0.00  0.00    -0.328 N 
ATOM      4  H   LIG    1       22.094 -24.482   6.361  0.00  0.00    +0.168 HD
ATOM      5  C   LIG    1       23.198 -22.804   6.897  0.00  0.00    +0.109 C 
ATOM      6  C   LIG    1       24.425 -22.317   7.135  0.00  0.00    +0.098 C 
ATOM      7 CL   LIG    1       24.626 -20.668   7.597  0.00  0.00    -0.078 Cl
ATOM      8  C   LIG    1       25.575 -23.197   7.001  0.00  0.00    +0.142 C 
ATOM      9  C   LIG    1       25.419 -24.482   6.645  0.00  0.00    +0.117 C 
ENDROOT
BRANCH   8  10
ATOM     10  O   LIG    1       26.810 -22.639   7.256  0.00  0.00    -0.505 OA
ATOM     11  H   LIG    1       27.311 -22.582   6.424  0.00  0.00    +0.292 HD
ENDBRANCH   8  10
TORSDOF 1
ENDMDL
MODEL 7
REMARK VINA RESULT:      -5.1      6.006      6.929
REMARK  Name = *****
REMARK                            x       y       z     vdW  Elec       q    Type
REMARK                         _______ _______ _______ _____ _____    ______ ____
ROOT
ATOM      1  O   LIG    1       23.646 -25.487   6.123  0.00  0.00    -0.268 OA
ATOM      2  C   LIG    1       24.140 -24.460   6.572  0.00  0.00    +0.252 C 
ATOM      3  N   LIG    1       25.483 -24.328   6.829  0.00  0.00    -0.328 N 
ATOM      4  H   LIG    1       26.055 -25.139   6.625  0.00  0.00    +0.168 HD
ATOM      5  C   LIG    1       26.057 -23.181   7.322  0.00  0.00    +0.109 C 
ATOM      6  C   LIG    1       25.306 -22.101   7.588  0.00  0.00    +0.098 C 
ATOM      7 CL   LIG    1       26.043 -20.667   8.199  0.00  0.00    -0.078 Cl
ATOM      8  C   LIG    1       23.873 -22.157   7.351  0.00  0.00    +0.142 C 
ATOM      9  C   LIG    1       23.300 -23.272   6.870  0.00  0.00    +0.117 C 
ENDROOT
BRANCH   8  10
ATOM     10  O   LIG    1       23.155 -21.018   7.644  0.00  0.00    -0.505 OA
ATOM     11  H   LIG    1       22.375 -20.975   7.066  0.00  0.00    +0.292 HD
ENDBRANCH   8  10
TORSDOF 1
ENDMDL
MODEL 8
REMARK VINA RESULT:      -5.0      5.118      6.298
REMARK  Name = *****
REMARK                            x       y       z     vdW  Elec       q    Type
REMARK                         _______ _______ _______ _____ _____    ______ ____
ROOT
ATOM      1  O   LIG    1       24.511 -20.322   3.130  0.00  0.00    -0.268 OA
ATOM      2  C   LIG    1       24.859 -20.412   4.301  0.00  0.00    +0.252 C 
ATOM      3  N   LIG    1       26.169 -20.299   4.701  0.00  0.00    -0.328 N 
ATOM      4  H   LIG    1       26.845 -20.135   3.964  0.00  0.00    +0.168 HD
ATOM      5  C   LIG    1       26.578 -20.387   6.010  0.00  0.00    +0.109 C 
ATOM      6  C   LIG    1       25.688 -20.597   6.991  0.00  0.00    +0.098 C 
ATOM      7 CL   LIG    1       26.216 -20.697   8.629  0.00  0.00    -0.078 Cl
ATOM      8  C   LIG    1       24.280 -20.735   6.654  0.00  0.00    +0.142 C 
ATOM      9  C   LIG    1       23.868 -20.653   5.379  0.00  0.00    +0.117 C 
ENDROOT
BRANCH   8  10
ATOM     10  O   LIG    1       23.414 -20.952   7.705  0.00  0.00    -0.505 OA
ATOM     11  H   LIG    1       23.034 -21.843   7.626  0.00  0.00    +0.292 HD
ENDBRANCH   8  10
TORSDOF 1
ENDMDL
MODEL 9
REMARK VINA RESULT:      -5.0      4.140      4.895
REMARK  Name = *****
REMARK                            x       y       z     vdW  Elec       q    Type
REMARK                         _______ _______ _______ _____ _____    ______ ____
ROOT
ATOM      1  O   LIG    1       28.661 -20.167   6.179  0.00  0.00    -0.268 OA
ATOM      2  C   LIG    1       27.444 -20.286   6.101  0.00  0.00    +0.252 C 
ATOM      3  N   LIG    1       26.760 -20.196   4.913  0.00  0.00    -0.328 N 
ATOM      4  H   LIG    1       27.322 -20.022   4.089  0.00  0.00    +0.168 HD
ATOM      5  C   LIG    1       25.397 -20.336   4.805  0.00  0.00    +0.109 C 
ATOM      6  C   LIG    1       24.646 -20.573   5.891  0.00  0.00    +0.098 C 
ATOM      7 CL   LIG    1       22.938 -20.755   5.737  0.00  0.00    -0.078 Cl
ATOM      8  C   LIG    1       25.290 -20.677   7.190  0.00  0.00    +0.142 C 
ATOM      9  C   LIG    1       26.620 -20.540   7.310  0.00  0.00    +0.117 C 
ENDROOT
BRANCH   8  10
ATOM     10  O   LIG    1       24.466 -20.919   8.269  0.00  0.00    -0.505 OA
ATOM     11  H   LIG    1       24.330 -21.878   8.356  0.00  0.00    +0.292 HD
ENDBRANCH   8  10
TORSDOF 1
ENDMDL
