MODEL 1
REMARK VINA RESULT:       1.1      0.000      0.000
REMARK  Name = *****
REMARK                            x       y       z     vdW  Elec       q    Type
REMARK                         _______ _______ _______ _____ _____    ______ ____
ROOT
ATOM      1  C   LIG    1       23.886 -31.739   9.312  0.00  0.00    +0.168 C 
ATOM      2  C   LIG    1       23.568 -30.792  10.523  0.00  0.00    +0.237 C 
ATOM      3  O   LIG    1       22.721 -29.903  10.382  0.00  0.00    -0.274 OA
ATOM      4  N   LIG    1       24.308 -30.878  11.681  0.00  0.00    -0.285 N 
ATOM      5  C   LIG    1       24.639 -29.693  12.454  0.00  0.00    +0.153 C 
ATOM      6  C   LIG    1       26.012 -30.040  13.051  0.00  0.00    +0.195 C 
ATOM      7  C   LIG    1       25.970 -31.581  13.197  0.00  0.00    +0.078 C 
ATOM      8  O   LIG    1       26.195 -29.387  14.311  0.00  0.00    -0.470 OA
ATOM      9  C   LIG    1       27.516 -29.096  14.572  0.00  0.00    +0.244 A 
ATOM     10  C   LIG    1       27.900 -27.784  14.831  0.00  0.00    +0.175 A 
ATOM     11  N   LIG    1       29.206 -27.475  15.103  0.00  0.00    -0.239 NA
ATOM     12  C   LIG    1       30.083 -28.490  15.152  0.00  0.00    +0.090 A 
ATOM     13  C   LIG    1       29.672 -29.827  14.925  0.00  0.00    +0.093 A 
ATOM     14  C   LIG    1       30.631 -30.833  15.011  0.00  0.00    +0.030 A 
ATOM     15  C   LIG    1       31.971 -30.549  15.293  0.00  0.00    +0.002 A 
ATOM     16  C   LIG    1       32.369 -29.234  15.493  0.00  0.00    +0.002 A 
ATOM     17  C   LIG    1       31.419 -28.217  15.424  0.00  0.00    +0.030 A 
ATOM     18  C   LIG    1       26.892 -26.654  14.700  0.00  0.00    +0.314 C 
ATOM     19  F   LIG    1       25.768 -26.895  15.443  0.00  0.00    -0.194 F 
ATOM     20  F   LIG    1       27.369 -25.471  15.203  0.00  0.00    -0.194 F 
ATOM     21  C   LIG    1       26.462 -26.392  13.267  0.00  0.00    +0.052 C 
ATOM     22  C   LIG    1       27.154 -26.670  12.146  0.00  0.00    +0.003 C 
ATOM     23  C   LIG    1       26.641 -26.476  10.759  0.00  0.00    +0.187 C 
ATOM     24  O   LIG    1       26.717 -27.747  10.121  0.00  0.00    -0.369 OA
ATOM     25  C   LIG    1       26.511 -27.669   8.715  0.00  0.00    +0.159 C 
ATOM     26  C   LIG    1       26.685 -29.038   8.045  0.00  0.00    +0.207 C 
ATOM     27  C   LIG    1       26.099 -28.774   6.661  0.00  0.00    +0.047 C 
ATOM     28  C   LIG    1       24.874 -27.892   6.931  0.00  0.00    +0.006 C 
ATOM     29  O   LIG    1       25.846 -29.998   8.710  0.00  0.00    -0.445 OA
ATOM     30  C   LIG    1       26.257 -31.276   8.749  0.00  0.00    +0.401 C 
ATOM     31  O   LIG    1       27.337 -31.700   8.347  0.00  0.00    -0.227 OA
ATOM     32  C   LIG    1       25.089 -27.272   8.314  0.00  0.00    +0.035 C 
ATOM     33  N   LIG    1       28.388 -30.133  14.630  0.00  0.00    -0.210 NA
ATOM     34  C   LIG    1       24.715 -32.055  12.438  0.00  0.00    +0.166 C 
ATOM     35  N   LIG    1       25.309 -32.110   9.268  0.00  0.00    -0.269 N 
ATOM     36  H   LIG    1       25.571 -33.081   9.191  0.00  0.00    +0.153 HD
ENDROOT
BRANCH   1  38
ATOM     37  C   LIG    1       22.636 -33.824  10.180  0.00  0.00    +0.013 C 
ATOM     38  C   LIG    1       22.952 -32.942   8.966  0.00  0.00    -0.011 C 
ATOM     39  C   LIG    1       21.628 -32.473   8.332  0.00  0.00    +0.013 C 
ATOM     40  C   LIG    1       23.656 -33.820   7.892  0.00  0.00    +0.013 C 
ENDBRANCH   1  38
BRANCH  34  41
ATOM     41  C   LIG    1       23.575 -32.474  13.444  0.00  0.00    +0.234 C 
ATOM     42  N   LIG    1       22.429 -31.713  13.371  0.00  0.00    -0.299 N 
ATOM     43  H   LIG    1       22.331 -31.036  12.611  0.00  0.00    +0.150 HD
ATOM     44  O   LIG    1       23.667 -33.410  14.232  0.00  0.00    -0.274 OA
BRANCH  42  45
ATOM     45  C   LIG    1       21.214 -31.941  14.161  0.00  0.00    +0.121 C 
ATOM     46  C   LIG    1       20.733 -33.372  14.413  0.00  0.00    +0.090 C 
ATOM     47  C   LIG    1       21.466 -32.649  15.500  0.00  0.00    +0.047 C 
BRANCH  45  48
ATOM     48  C   LIG    1       20.193 -30.791  14.196  0.00  0.00    +0.256 C 
ATOM     49  N   LIG    1       19.486 -30.503  13.004  0.00  0.00    -0.188 N 
ATOM     50  H   LIG    1       18.956 -29.632  13.032  0.00  0.00    +0.176 HD
ATOM     51  O   LIG    1       20.023 -30.103  15.185  0.00  0.00    -0.272 OA
BRANCH  49  52
ATOM     52  S   LIG    1       19.688 -31.245  11.538  0.00  0.00    +0.051 S 
ATOM     53  O   LIG    1       20.322 -32.537  11.765  0.00  0.00    -0.155 OA
ATOM     54  O   LIG    1       20.291 -30.289  10.647  0.00  0.00    -0.155 OA
BRANCH  52  55
ATOM     55  C   LIG    1       18.058 -31.621  10.870  0.00  0.00    +0.104 C 
ATOM     56  C   LIG    1       17.894 -31.263   9.413  0.00  0.00    +0.033 C 
ATOM     57  C   LIG    1       17.996 -32.709   9.827  0.00  0.00    +0.033 C 
ATOM     58  C   LIG    1       16.976 -31.375  11.850  0.00  0.00    +0.037 C 
ENDBRANCH  52  55
ENDBRANCH  49  52
ENDBRANCH  45  48
BRANCH  46  59
ATOM     59  C   LIG    1       19.319 -33.775  14.644  0.00  0.00    +0.347 C 
ATOM     60  F   LIG    1       18.737 -32.893  15.494  0.00  0.00    -0.209 F 
ATOM     61  F   LIG    1       18.649 -33.657  13.463  0.00  0.00    -0.209 F 
ENDBRANCH  46  59
ENDBRANCH  42  45
ENDBRANCH  34  41
TORSDOF 7
ENDMDL
MODEL 2
REMARK VINA RESULT:       1.3      1.497      2.289
REMARK  Name = *****
REMARK                            x       y       z     vdW  Elec       q    Type
REMARK                         _______ _______ _______ _____ _____    ______ ____
ROOT
ATOM      1  C   LIG    1       23.826 -31.684   9.005  0.00  0.00    +0.168 C 
ATOM      2  C   LIG    1       23.451 -30.684  10.155  0.00  0.00    +0.237 C 
ATOM      3  O   LIG    1       22.616 -29.800   9.932  0.00  0.00    -0.274 OA
ATOM      4  N   LIG    1       24.130 -30.720  11.353  0.00  0.00    -0.285 N 
ATOM      5  C   LIG    1       24.425 -29.504  12.088  0.00  0.00    +0.153 C 
ATOM      6  C   LIG    1       25.764 -29.826  12.770  0.00  0.00    +0.195 C 
ATOM      7  C   LIG    1       25.709 -31.359  12.981  0.00  0.00    +0.078 C 
ATOM      8  O   LIG    1       25.885 -29.119  14.008  0.00  0.00    -0.470 OA
ATOM      9  C   LIG    1       27.193 -28.820  14.324  0.00  0.00    +0.244 A 
ATOM     10  C   LIG    1       27.569 -27.498  14.544  0.00  0.00    +0.175 A 
ATOM     11  N   LIG    1       28.860 -27.180  14.870  0.00  0.00    -0.239 NA
ATOM     12  C   LIG    1       29.729 -28.194  15.009  0.00  0.00    +0.090 A 
ATOM     13  C   LIG    1       29.324 -29.539  14.820  0.00  0.00    +0.093 A 
ATOM     14  C   LIG    1       30.273 -30.542  14.999  0.00  0.00    +0.030 A 
ATOM     15  C   LIG    1       31.598 -30.249  15.337  0.00  0.00    +0.002 A 
ATOM     16  C   LIG    1       31.990 -28.928  15.499  0.00  0.00    +0.002 A 
ATOM     17  C   LIG    1       31.050 -27.912  15.337  0.00  0.00    +0.030 A 
ATOM     18  C   LIG    1       26.573 -26.373  14.312  0.00  0.00    +0.314 C 
ATOM     19  F   LIG    1       25.411 -26.578  15.006  0.00  0.00    -0.194 F 
ATOM     20  F   LIG    1       27.028 -25.170  14.787  0.00  0.00    -0.194 F 
ATOM     21  C   LIG    1       26.219 -26.174  12.849  0.00  0.00    +0.052 C 
ATOM     22  C   LIG    1       26.967 -26.502  11.779  0.00  0.00    +0.003 C 
ATOM     23  C   LIG    1       26.526 -26.368  10.360  0.00  0.00    +0.187 C 
ATOM     24  O   LIG    1       26.629 -27.666   9.783  0.00  0.00    -0.369 OA
ATOM     25  C   LIG    1       26.496 -27.650   8.366  0.00  0.00    +0.159 C 
ATOM     26  C   LIG    1       26.699 -29.047   7.767  0.00  0.00    +0.207 C 
ATOM     27  C   LIG    1       26.186 -28.843   6.344  0.00  0.00    +0.047 C 
ATOM     28  C   LIG    1       24.952 -27.948   6.511  0.00  0.00    +0.006 C 
ATOM     29  O   LIG    1       25.822 -29.975   8.429  0.00  0.00    -0.445 OA
ATOM     30  C   LIG    1       26.225 -31.251   8.545  0.00  0.00    +0.401 C 
ATOM     31  O   LIG    1       27.323 -31.695   8.218  0.00  0.00    -0.227 OA
ATOM     32  C   LIG    1       25.098 -27.268   7.875  0.00  0.00    +0.035 C 
ATOM     33  N   LIG    1       28.055 -29.855  14.472  0.00  0.00    -0.210 NA
ATOM     34  C   LIG    1       24.491 -31.864  12.180  0.00  0.00    +0.166 C 
ATOM     35  N   LIG    1       25.248 -32.060   9.051  0.00  0.00    -0.269 N 
ATOM     36  H   LIG    1       25.510 -33.034   9.030  0.00  0.00    +0.153 HD
ENDROOT
BRANCH   1  38
ATOM     37  C   LIG    1       21.482 -32.482   8.272  0.00  0.00    +0.013 C 
ATOM     38  C   LIG    1       22.906 -32.899   8.664  0.00  0.00    -0.011 C 
ATOM     39  C   LIG    1       23.499 -33.766   7.537  0.00  0.00    +0.013 C 
ATOM     40  C   LIG    1       22.819 -33.819   9.915  0.00  0.00    +0.013 C 
ENDBRANCH   1  38
BRANCH  34  41
ATOM     41  C   LIG    1       23.300 -32.235  13.143  0.00  0.00    +0.234 C 
ATOM     42  N   LIG    1       22.211 -31.395  13.070  0.00  0.00    -0.299 N 
ATOM     43  H   LIG    1       22.180 -30.687  12.332  0.00  0.00    +0.150 HD
ATOM     44  O   LIG    1       23.306 -33.201  13.900  0.00  0.00    -0.274 OA
BRANCH  42  45
ATOM     45  C   LIG    1       20.963 -31.563  13.822  0.00  0.00    +0.121 C 
ATOM     46  C   LIG    1       20.724 -32.853  14.611  0.00  0.00    +0.090 C 
ATOM     47  C   LIG    1       21.157 -31.622  15.344  0.00  0.00    +0.047 C 
BRANCH  45  48
ATOM     48  C   LIG    1       19.753 -30.749  13.334  0.00  0.00    +0.256 C 
ATOM     49  N   LIG    1       19.852 -29.339  13.368  0.00  0.00    -0.188 N 
ATOM     50  H   LIG    1       18.971 -28.852  13.202  0.00  0.00    +0.176 HD
ATOM     51  O   LIG    1       18.714 -31.278  12.981  0.00  0.00    -0.272 OA
BRANCH  49  52
ATOM     52  S   LIG    1       21.131 -28.457  13.942  0.00  0.00    +0.051 S 
ATOM     53  O   LIG    1       22.074 -28.260  12.850  0.00  0.00    -0.155 OA
ATOM     54  O   LIG    1       21.563 -29.069  15.171  0.00  0.00    -0.155 OA
BRANCH  52  55
ATOM     55  C   LIG    1       20.533 -26.811  14.364  0.00  0.00    +0.104 C 
ATOM     56  C   LIG    1       20.124 -25.981  13.172  0.00  0.00    +0.033 C 
ATOM     57  C   LIG    1       19.073 -26.539  14.100  0.00  0.00    +0.033 C 
ATOM     58  C   LIG    1       21.276 -26.215  15.499  0.00  0.00    +0.037 C 
ENDBRANCH  52  55
ENDBRANCH  49  52
ENDBRANCH  45  48
BRANCH  46  59
ATOM     59  C   LIG    1       19.390 -33.440  14.915  0.00  0.00    +0.347 C 
ATOM     60  F   LIG    1       18.584 -32.475  15.423  0.00  0.00    -0.209 F 
ATOM     61  F   LIG    1       18.821 -33.824  13.738  0.00  0.00    -0.209 F 
ENDBRANCH  46  59
ENDBRANCH  42  45
ENDBRANCH  34  41
TORSDOF 7
ENDMDL
