MODEL 1
REMARK VINA RESULT:      -8.4      0.000      0.000
REMARK  Name = *****
REMARK                            x       y       z     vdW  Elec       q    Type
REMARK                         _______ _______ _______ _____ _____    ______ ____
ROOT
ATOM      1  C   LIG    1       29.943 -20.315   7.660  0.00  0.00    +0.019 A 
ATOM      2  C   LIG    1       28.630 -20.799   7.814  0.00  0.00    +0.035 A 
ATOM      3  C   LIG    1       27.581 -20.517   6.909  0.00  0.00    +0.049 A 
ATOM      4  N   LIG    1       26.250 -21.010   7.085  0.00  0.00    -0.298 N 
ATOM      5  C   LIG    1       25.137 -20.713   6.237  0.00  0.00    +0.048 A 
ATOM      6  C   LIG    1       25.279 -19.951   5.059  0.00  0.00    +0.034 A 
ATOM      7  S   LIG    1       26.812 -19.249   4.511  0.00  0.00    -0.086 S 
ATOM      8  C   LIG    1       24.177 -19.687   4.217  0.00  0.00    +0.017 A 
ATOM      9  C   LIG    1       22.908 -20.159   4.524  0.00  0.00    +0.001 A 
ATOM     10  C   LIG    1       22.731 -20.894   5.682  0.00  0.00    +0.002 A 
ATOM     11  C   LIG    1       23.824 -21.160   6.519  0.00  0.00    +0.024 A 
ATOM     12  C   LIG    1       27.931 -19.709   5.806  0.00  0.00    +0.034 A 
ATOM     13  C   LIG    1       29.241 -19.212   5.649  0.00  0.00    +0.017 A 
ATOM     14  C   LIG    1       30.243 -19.506   6.563  0.00  0.00    +0.012 A 
ENDROOT
BRANCH   1  16
ATOM     15  C   LIG    1       31.002 -22.068   9.227  0.00  0.00    +0.091 C 
ATOM     16  C   LIG    1       30.977 -20.668   8.677  0.00  0.00    +0.160 C 
ATOM     17  O   LIG    1       31.791 -19.817   9.053  0.00  0.00    -0.292 OA
ENDBRANCH   1  16
BRANCH   4  18
ATOM     18  C   LIG    1       25.982 -21.835   8.299  0.00  0.00    +0.112 C 
BRANCH  18  19
ATOM     19  C   LIG    1       25.452 -23.221   7.905  0.00  0.00    +0.035 C 
BRANCH  19  20
ATOM     20  C   LIG    1       26.258 -23.896   6.785  0.00  0.00    +0.085 C 
BRANCH  20  21
ATOM     21  N   LIG    1       25.500 -24.818   5.923  0.00  0.00    -0.308 NA
ATOM     22  C   LIG    1       24.102 -24.886   6.370  0.00  0.00    +0.104 C 
ATOM     23  C   LIG    1       26.063 -26.171   5.921  0.00  0.00    +0.104 C 
ENDBRANCH  20  21
ENDBRANCH  19  20
ENDBRANCH  18  19
ENDBRANCH   4  18
TORSDOF 5
ENDMDL
MODEL 2
REMARK VINA RESULT:      -6.7      2.495      5.573
REMARK  Name = *****
REMARK                            x       y       z     vdW  Elec       q    Type
REMARK                         _______ _______ _______ _____ _____    ______ ____
ROOT
ATOM      1  C   LIG    1       23.688 -20.039   4.708  0.00  0.00    +0.019 A 
ATOM      2  C   LIG    1       24.432 -20.597   5.766  0.00  0.00    +0.035 A 
ATOM      3  C   LIG    1       25.814 -20.366   5.957  0.00  0.00    +0.049 A 
ATOM      4  N   LIG    1       26.556 -20.948   7.032  0.00  0.00    -0.298 N 
ATOM      5  C   LIG    1       27.963 -20.798   7.245  0.00  0.00    +0.048 A 
ATOM      6  C   LIG    1       28.754 -19.959   6.434  0.00  0.00    +0.034 A 
ATOM      7  S   LIG    1       28.130 -19.035   5.055  0.00  0.00    -0.086 S 
ATOM      8  C   LIG    1       30.137 -19.800   6.670  0.00  0.00    +0.017 A 
ATOM      9  C   LIG    1       30.772 -20.473   7.705  0.00  0.00    +0.001 A 
ATOM     10  C   LIG    1       30.028 -21.318   8.508  0.00  0.00    +0.002 A 
ATOM     11  C   LIG    1       28.654 -21.476   8.278  0.00  0.00    +0.024 A 
ATOM     12  C   LIG    1       26.424 -19.515   5.012  0.00  0.00    +0.034 A 
ATOM     13  C   LIG    1       25.689 -18.959   3.945  0.00  0.00    +0.017 A 
ATOM     14  C   LIG    1       24.334 -19.215   3.786  0.00  0.00    +0.012 A 
ENDROOT
BRANCH   1  16
ATOM     15  C   LIG    1       21.316 -19.316   4.002  0.00  0.00    +0.091 C 
ATOM     16  C   LIG    1       22.233 -20.351   4.593  0.00  0.00    +0.160 C 
ATOM     17  O   LIG    1       21.802 -21.443   4.981  0.00  0.00    -0.292 OA
ENDBRANCH   1  16
BRANCH   4  18
ATOM     18  C   LIG    1       25.819 -21.853   7.961  0.00  0.00    +0.112 C 
BRANCH  18  19
ATOM     19  C   LIG    1       25.937 -23.313   7.504  0.00  0.00    +0.035 C 
BRANCH  19  20
ATOM     20  C   LIG    1       24.671 -23.850   6.818  0.00  0.00    +0.085 C 
BRANCH  20  21
ATOM     21  N   LIG    1       24.788 -25.195   6.231  0.00  0.00    -0.308 NA
ATOM     22  C   LIG    1       25.891 -25.926   6.868  0.00  0.00    +0.104 C 
ATOM     23  C   LIG    1       25.020 -25.155   4.784  0.00  0.00    +0.104 C 
ENDBRANCH  20  21
ENDBRANCH  19  20
ENDBRANCH  18  19
ENDBRANCH   4  18
TORSDOF 5
ENDMDL
MODEL 3
REMARK VINA RESULT:      -6.4      1.703      2.229
REMARK  Name = *****
REMARK                            x       y       z     vdW  Elec       q    Type
REMARK                         _______ _______ _______ _____ _____    ______ ____
ROOT
ATOM      1  C   LIG    1       30.487 -20.148   7.865  0.00  0.00    +0.019 A 
ATOM      2  C   LIG    1       29.266 -20.707   7.441  0.00  0.00    +0.035 A 
ATOM      3  C   LIG    1       28.440 -20.123   6.452  0.00  0.00    +0.049 A 
ATOM      4  N   LIG    1       27.198 -20.700   6.039  0.00  0.00    -0.298 N 
ATOM      5  C   LIG    1       26.295 -20.129   5.087  0.00  0.00    +0.048 A 
ATOM      6  C   LIG    1       26.603 -18.947   4.382  0.00  0.00    +0.034 A 
ATOM      7  S   LIG    1       28.098 -18.020   4.606  0.00  0.00    -0.086 S 
ATOM      8  C   LIG    1       25.714 -18.408   3.427  0.00  0.00    +0.017 A 
ATOM      9  C   LIG    1       24.496 -19.016   3.154  0.00  0.00    +0.001 A 
ATOM     10  C   LIG    1       24.155 -20.166   3.842  0.00  0.00    +0.002 A 
ATOM     11  C   LIG    1       25.037 -20.706   4.790  0.00  0.00    +0.024 A 
ATOM     12  C   LIG    1       28.922 -18.922   5.889  0.00  0.00    +0.034 A 
ATOM     13  C   LIG    1       30.138 -18.350   6.315  0.00  0.00    +0.017 A 
ATOM     14  C   LIG    1       30.918 -18.950   7.294  0.00  0.00    +0.012 A 
ENDROOT
BRANCH   1  16
ATOM     15  C   LIG    1       30.803 -22.178   9.424  0.00  0.00    +0.091 C 
ATOM     16  C   LIG    1       31.280 -20.842   8.921  0.00  0.00    +0.160 C 
ATOM     17  O   LIG    1       32.308 -20.320   9.366  0.00  0.00    -0.292 OA
ENDBRANCH   1  16
BRANCH   4  18
ATOM     18  C   LIG    1       26.770 -21.958   6.715  0.00  0.00    +0.112 C 
BRANCH  18  19
ATOM     19  C   LIG    1       25.781 -21.656   7.848  0.00  0.00    +0.035 C 
BRANCH  19  20
ATOM     20  C   LIG    1       24.608 -22.646   7.925  0.00  0.00    +0.085 C 
BRANCH  20  21
ATOM     21  N   LIG    1       23.271 -22.063   7.722  0.00  0.00    -0.308 NA
ATOM     22  C   LIG    1       22.560 -22.797   6.666  0.00  0.00    +0.104 C 
ATOM     23  C   LIG    1       23.328 -20.645   7.357  0.00  0.00    +0.104 C 
ENDBRANCH  20  21
ENDBRANCH  19  20
ENDBRANCH  18  19
ENDBRANCH   4  18
TORSDOF 5
ENDMDL
MODEL 4
REMARK VINA RESULT:      -6.3      3.523      7.413
REMARK  Name = *****
REMARK                            x       y       z     vdW  Elec       q    Type
REMARK                         _______ _______ _______ _____ _____    ______ ____
ROOT
ATOM      1  C   LIG    1       23.360 -20.567   5.732  0.00  0.00    +0.019 A 
ATOM      2  C   LIG    1       24.603 -20.124   5.241  0.00  0.00    +0.035 A 
ATOM      3  C   LIG    1       25.811 -20.222   5.968  0.00  0.00    +0.049 A 
ATOM      4  N   LIG    1       27.064 -19.758   5.457  0.00  0.00    -0.298 N 
ATOM      5  C   LIG    1       28.307 -19.778   6.166  0.00  0.00    +0.048 A 
ATOM      6  C   LIG    1       28.427 -20.360   7.444  0.00  0.00    +0.034 A 
ATOM      7  S   LIG    1       27.077 -21.090   8.333  0.00  0.00    -0.086 S 
ATOM      8  C   LIG    1       29.665 -20.397   8.122  0.00  0.00    +0.017 A 
ATOM      9  C   LIG    1       30.810 -19.850   7.559  0.00  0.00    +0.001 A 
ATOM     10  C   LIG    1       30.722 -19.255   6.313  0.00  0.00    +0.002 A 
ATOM     11  C   LIG    1       29.495 -19.219   5.636  0.00  0.00    +0.024 A 
ATOM     12  C   LIG    1       25.706 -20.814   7.245  0.00  0.00    +0.034 A 
ATOM     13  C   LIG    1       24.464 -21.252   7.748  0.00  0.00    +0.017 A 
ATOM     14  C   LIG    1       23.297 -21.132   7.006  0.00  0.00    +0.012 A 
ENDROOT
BRANCH   1  16
ATOM     15  C   LIG    1       21.890 -19.088   4.215  0.00  0.00    +0.091 C 
ATOM     16  C   LIG    1       22.141 -20.412   4.885  0.00  0.00    +0.160 C 
ATOM     17  O   LIG    1       21.361 -21.360   4.744  0.00  0.00    -0.292 OA
ENDBRANCH   1  16
BRANCH   4  18
ATOM     18  C   LIG    1       27.060 -19.127   4.106  0.00  0.00    +0.112 C 
BRANCH  18  19
ATOM     19  C   LIG    1       27.155 -17.599   4.221  0.00  0.00    +0.035 C 
BRANCH  19  20
ATOM     20  C   LIG    1       26.113 -16.850   3.377  0.00  0.00    +0.085 C 
BRANCH  20  21
ATOM     21  N   LIG    1       26.374 -15.415   3.171  0.00  0.00    -0.308 NA
ATOM     22  C   LIG    1       27.563 -15.009   3.930  0.00  0.00    +0.104 C 
ATOM     23  C   LIG    1       25.242 -14.577   3.578  0.00  0.00    +0.104 C 
ENDBRANCH  20  21
ENDBRANCH  19  20
ENDBRANCH  18  19
ENDBRANCH   4  18
TORSDOF 5
ENDMDL
MODEL 5
REMARK VINA RESULT:      -5.9      5.941      9.709
REMARK  Name = *****
REMARK                            x       y       z     vdW  Elec       q    Type
REMARK                         _______ _______ _______ _____ _____    ______ ____
ROOT
ATOM      1  C   LIG    1       24.677 -26.516   6.192  0.00  0.00    +0.019 A 
ATOM      2  C   LIG    1       25.008 -27.369   7.262  0.00  0.00    +0.035 A 
ATOM      3  C   LIG    1       25.286 -28.747   7.107  0.00  0.00    +0.049 A 
ATOM      4  N   LIG    1       25.611 -29.601   8.207  0.00  0.00    -0.298 N 
ATOM      5  C   LIG    1       25.846 -31.010   8.122  0.00  0.00    +0.048 A 
ATOM      6  C   LIG    1       25.864 -31.689   6.886  0.00  0.00    +0.034 A 
ATOM      7  S   LIG    1       25.567 -30.910   5.321  0.00  0.00    -0.086 S 
ATOM      8  C   LIG    1       26.122 -33.076   6.813  0.00  0.00    +0.017 A 
ATOM      9  C   LIG    1       26.357 -33.824   7.958  0.00  0.00    +0.001 A 
ATOM     10  C   LIG    1       26.328 -33.192   9.188  0.00  0.00    +0.002 A 
ATOM     11  C   LIG    1       26.075 -31.815   9.264  0.00  0.00    +0.024 A 
ATOM     12  C   LIG    1       25.221 -29.235   5.785  0.00  0.00    +0.034 A 
ATOM     13  C   LIG    1       24.881 -28.390   4.709  0.00  0.00    +0.017 A 
ATOM     14  C   LIG    1       24.609 -27.043   4.902  0.00  0.00    +0.012 A 
ENDROOT
BRANCH   1  16
ATOM     15  C   LIG    1       25.552 -24.115   6.537  0.00  0.00    +0.091 C 
ATOM     16  C   LIG    1       24.397 -25.076   6.465  0.00  0.00    +0.160 C 
ATOM     17  O   LIG    1       23.233 -24.692   6.626  0.00  0.00    -0.292 OA
ENDBRANCH   1  16
BRANCH   4  18
ATOM     18  C   LIG    1       25.629 -28.989   9.567  0.00  0.00    +0.112 C 
BRANCH  18  19
ATOM     19  C   LIG    1       27.056 -28.582   9.961  0.00  0.00    +0.035 C 
BRANCH  19  20
ATOM     20  C   LIG    1       27.286 -28.526  11.479  0.00  0.00    +0.085 C 
BRANCH  20  21
ATOM     21  N   LIG    1       26.212 -27.890  12.261  0.00  0.00    -0.308 NA
ATOM     22  C   LIG    1       26.709 -26.656  12.884  0.00  0.00    +0.104 C 
ATOM     23  C   LIG    1       25.686 -28.770  13.308  0.00  0.00    +0.104 C 
ENDBRANCH  20  21
ENDBRANCH  19  20
ENDBRANCH  18  19
ENDBRANCH   4  18
TORSDOF 5
ENDMDL
MODEL 6
REMARK VINA RESULT:      -5.6      7.059     10.611
REMARK  Name = *****
REMARK                            x       y       z     vdW  Elec       q    Type
REMARK                         _______ _______ _______ _____ _____    ______ ____
ROOT
ATOM      1  C   LIG    1       25.365 -27.874   6.447  0.00  0.00    +0.019 A 
ATOM      2  C   LIG    1       25.521 -28.346   7.764  0.00  0.00    +0.035 A 
ATOM      3  C   LIG    1       25.069 -29.613   8.199  0.00  0.00    +0.049 A 
ATOM      4  N   LIG    1       25.228 -30.074   9.544  0.00  0.00    -0.298 N 
ATOM      5  C   LIG    1       24.743 -31.318  10.056  0.00  0.00    +0.048 A 
ATOM      6  C   LIG    1       24.120 -32.274   9.228  0.00  0.00    +0.034 A 
ATOM      7  S   LIG    1       23.830 -32.046   7.494  0.00  0.00    -0.086 S 
ATOM      8  C   LIG    1       23.669 -33.510   9.742  0.00  0.00    +0.017 A 
ATOM      9  C   LIG    1       23.812 -33.825  11.086  0.00  0.00    +0.001 A 
ATOM     10  C   LIG    1       24.403 -32.902  11.929  0.00  0.00    +0.002 A 
ATOM     11  C   LIG    1       24.854 -31.675  11.422  0.00  0.00    +0.024 A 
ATOM     12  C   LIG    1       24.444 -30.407   7.214  0.00  0.00    +0.034 A 
ATOM     13  C   LIG    1       24.275 -29.938   5.895  0.00  0.00    +0.017 A 
ATOM     14  C   LIG    1       24.726 -28.684   5.507  0.00  0.00    +0.012 A 
ENDROOT
BRANCH   1  16
ATOM     15  C   LIG    1       25.062 -25.313   6.487  0.00  0.00    +0.091 C 
ATOM     16  C   LIG    1       25.874 -26.517   6.092  0.00  0.00    +0.160 C 
ATOM     17  O   LIG    1       26.944 -26.397   5.484  0.00  0.00    -0.292 OA
ENDBRANCH   1  16
BRANCH   4  18
ATOM     18  C   LIG    1       25.882 -29.147  10.512  0.00  0.00    +0.112 C 
BRANCH  18  19
ATOM     19  C   LIG    1       27.376 -29.469  10.648  0.00  0.00    +0.035 C 
BRANCH  19  20
ATOM     20  C   LIG    1       28.006 -28.944  11.948  0.00  0.00    +0.085 C 
BRANCH  20  21
ATOM     21  N   LIG    1       28.296 -29.964  12.970  0.00  0.00    -0.308 NA
ATOM     22  C   LIG    1       27.175 -30.061  13.914  0.00  0.00    +0.104 C 
ATOM     23  C   LIG    1       29.522 -29.671  13.719  0.00  0.00    +0.104 C 
ENDBRANCH  20  21
ENDBRANCH  19  20
ENDBRANCH  18  19
ENDBRANCH   4  18
TORSDOF 5
ENDMDL
MODEL 7
REMARK VINA RESULT:      -5.6      6.957     10.938
REMARK  Name = *****
REMARK                            x       y       z     vdW  Elec       q    Type
REMARK                         _______ _______ _______ _____ _____    ______ ____
ROOT
ATOM      1  C   LIG    1       24.128 -30.200  11.123  0.00  0.00    +0.019 A 
ATOM      2  C   LIG    1       24.124 -30.091   9.719  0.00  0.00    +0.035 A 
ATOM      3  C   LIG    1       24.833 -30.965   8.864  0.00  0.00    +0.049 A 
ATOM      4  N   LIG    1       24.824 -30.834   7.440  0.00  0.00    -0.298 N 
ATOM      5  C   LIG    1       25.564 -31.650   6.527  0.00  0.00    +0.048 A 
ATOM      6  C   LIG    1       26.327 -32.753   6.963  0.00  0.00    +0.034 A 
ATOM      7  S   LIG    1       26.492 -33.235   8.661  0.00  0.00    -0.086 S 
ATOM      8  C   LIG    1       27.032 -33.566   6.049  0.00  0.00    +0.017 A 
ATOM      9  C   LIG    1       27.010 -33.303   4.687  0.00  0.00    +0.001 A 
ATOM     10  C   LIG    1       26.287 -32.217   4.228  0.00  0.00    +0.002 A 
ATOM     11  C   LIG    1       25.583 -31.409   5.132  0.00  0.00    +0.024 A 
ATOM     12  C   LIG    1       25.559 -31.989   9.508  0.00  0.00    +0.034 A 
ATOM     13  C   LIG    1       25.577 -32.101  10.913  0.00  0.00    +0.017 A 
ATOM     14  C   LIG    1       24.873 -31.218  11.720  0.00  0.00    +0.012 A 
ENDROOT
BRANCH   1  16
ATOM     15  C   LIG    1       24.096 -28.238  12.796  0.00  0.00    +0.091 C 
ATOM     16  C   LIG    1       23.349 -29.221  11.935  0.00  0.00    +0.160 C 
ATOM     17  O   LIG    1       22.114 -29.227  11.894  0.00  0.00    -0.292 OA
ENDBRANCH   1  16
BRANCH   4  18
ATOM     18  C   LIG    1       24.043 -29.702   6.862  0.00  0.00    +0.112 C 
BRANCH  18  19
ATOM     19  C   LIG    1       24.911 -28.440   6.760  0.00  0.00    +0.035 C 
BRANCH  19  20
ATOM     20  C   LIG    1       24.441 -27.452   5.681  0.00  0.00    +0.085 C 
BRANCH  20  21
ATOM     21  N   LIG    1       25.490 -26.593   5.106  0.00  0.00    -0.308 NA
ATOM     22  C   LIG    1       26.647 -26.542   6.009  0.00  0.00    +0.104 C 
ATOM     23  C   LIG    1       25.021 -25.227   4.857  0.00  0.00    +0.104 C 
ENDBRANCH  20  21
ENDBRANCH  19  20
ENDBRANCH  18  19
ENDBRANCH   4  18
TORSDOF 5
ENDMDL
MODEL 8
REMARK VINA RESULT:      -5.5      2.846      5.993
REMARK  Name = *****
REMARK                            x       y       z     vdW  Elec       q    Type
REMARK                         _______ _______ _______ _____ _____    ______ ____
ROOT
ATOM      1  C   LIG    1       24.486 -17.555   3.925  0.00  0.00    +0.019 A 
ATOM      2  C   LIG    1       25.233 -18.653   4.393  0.00  0.00    +0.035 A 
ATOM      3  C   LIG    1       24.650 -19.862   4.839  0.00  0.00    +0.049 A 
ATOM      4  N   LIG    1       25.423 -20.965   5.320  0.00  0.00    -0.298 N 
ATOM      5  C   LIG    1       24.890 -22.189   5.836  0.00  0.00    +0.048 A 
ATOM      6  C   LIG    1       23.506 -22.459   5.833  0.00  0.00    +0.034 A 
ATOM      7  S   LIG    1       22.276 -21.330   5.239  0.00  0.00    -0.086 S 
ATOM      8  C   LIG    1       22.995 -23.682   6.322  0.00  0.00    +0.017 A 
ATOM      9  C   LIG    1       23.837 -24.659   6.834  0.00  0.00    +0.001 A 
ATOM     10  C   LIG    1       25.198 -24.418   6.868  0.00  0.00    +0.002 A 
ATOM     11  C   LIG    1       25.709 -23.207   6.382  0.00  0.00    +0.024 A 
ATOM     12  C   LIG    1       23.241 -19.916   4.780  0.00  0.00    +0.034 A 
ATOM     13  C   LIG    1       22.485 -18.818   4.321  0.00  0.00    +0.017 A 
ATOM     14  C   LIG    1       23.094 -17.644   3.898  0.00  0.00    +0.012 A 
ENDROOT
BRANCH   1  16
ATOM     15  C   LIG    1       24.572 -14.983   3.760  0.00  0.00    +0.091 C 
ATOM     16  C   LIG    1       25.200 -16.322   3.482  0.00  0.00    +0.160 C 
ATOM     17  O   LIG    1       26.286 -16.411   2.898  0.00  0.00    -0.292 OA
ENDBRANCH   1  16
BRANCH   4  18
ATOM     18  C   LIG    1       26.904 -20.795   5.364  0.00  0.00    +0.112 C 
BRANCH  18  19
ATOM     19  C   LIG    1       27.352 -20.293   6.743  0.00  0.00    +0.035 C 
BRANCH  19  20
ATOM     20  C   LIG    1       28.569 -21.042   7.308  0.00  0.00    +0.085 C 
BRANCH  20  21
ATOM     21  N   LIG    1       29.426 -20.266   8.221  0.00  0.00    -0.308 NA
ATOM     22  C   LIG    1       29.695 -18.940   7.648  0.00  0.00    +0.104 C 
ATOM     23  C   LIG    1       30.702 -20.932   8.493  0.00  0.00    +0.104 C 
ENDBRANCH  20  21
ENDBRANCH  19  20
ENDBRANCH  18  19
ENDBRANCH   4  18
TORSDOF 5
ENDMDL
MODEL 9
REMARK VINA RESULT:      -5.4      8.666     10.807
REMARK  Name = *****
REMARK                            x       y       z     vdW  Elec       q    Type
REMARK                         _______ _______ _______ _____ _____    ______ ____
ROOT
ATOM      1  C   LIG    1       22.216 -30.104  11.599  0.00  0.00    +0.019 A 
ATOM      2  C   LIG    1       23.540 -29.648  11.747  0.00  0.00    +0.035 A 
ATOM      3  C   LIG    1       23.889 -28.471  12.448  0.00  0.00    +0.049 A 
ATOM      4  N   LIG    1       25.239 -28.018  12.580  0.00  0.00    -0.298 N 
ATOM      5  C   LIG    1       25.648 -26.809  13.227  0.00  0.00    +0.048 A 
ATOM      6  C   LIG    1       24.729 -25.970  13.891  0.00  0.00    +0.034 A 
ATOM      7  S   LIG    1       22.985 -26.280  13.976  0.00  0.00    -0.086 S 
ATOM      8  C   LIG    1       25.149 -24.793  14.547  0.00  0.00    +0.017 A 
ATOM      9  C   LIG    1       26.483 -24.410  14.553  0.00  0.00    +0.001 A 
ATOM     10  C   LIG    1       27.408 -25.201  13.895  0.00  0.00    +0.002 A 
ATOM     11  C   LIG    1       26.995 -26.372  13.245  0.00  0.00    +0.024 A 
ATOM     12  C   LIG    1       22.810 -27.760  13.016  0.00  0.00    +0.034 A 
ATOM     13  C   LIG    1       21.481 -28.203  12.864  0.00  0.00    +0.017 A 
ATOM     14  C   LIG    1       21.178 -29.362  12.163  0.00  0.00    +0.012 A 
ENDROOT
BRANCH   1  16
ATOM     15  C   LIG    1       22.657 -32.622  11.256  0.00  0.00    +0.091 C 
ATOM     16  C   LIG    1       21.956 -31.359  10.834  0.00  0.00    +0.160 C 
ATOM     17  O   LIG    1       21.177 -31.348   9.874  0.00  0.00    -0.292 OA
ENDBRANCH   1  16
BRANCH   4  18
ATOM     18  C   LIG    1       26.301 -28.831  11.921  0.00  0.00    +0.112 C 
BRANCH  18  19
ATOM     19  C   LIG    1       26.608 -28.288  10.518  0.00  0.00    +0.035 C 
BRANCH  19  20
ATOM     20  C   LIG    1       26.587 -29.364   9.421  0.00  0.00    +0.085 C 
BRANCH  20  21
ATOM     21  N   LIG    1       25.278 -29.601   8.790  0.00  0.00    -0.308 NA
ATOM     22  C   LIG    1       25.050 -31.044   8.635  0.00  0.00    +0.104 C 
ATOM     23  C   LIG    1       25.166 -28.960   7.476  0.00  0.00    +0.104 C 
ENDBRANCH  20  21
ENDBRANCH  19  20
ENDBRANCH  18  19
ENDBRANCH   4  18
TORSDOF 5
ENDMDL
