MODEL 1
REMARK VINA RESULT:      -9.1      0.000      0.000
REMARK  Name = *****
REMARK                            x       y       z     vdW  Elec       q    Type
REMARK                         _______ _______ _______ _____ _____    ______ ____
ROOT
ATOM      1  C   LIG    1       29.580 -20.443   7.594  0.00  0.00    -0.030 A 
ATOM      2  C   LIG    1       28.461 -20.980   8.263  0.00  0.00    +0.050 A 
ATOM      3  C   LIG    1       27.203 -21.024   7.661  0.00  0.00    +0.129 A 
ATOM      4  C   LIG    1       27.032 -20.427   6.411  0.00  0.00    +0.046 A 
ATOM      5  C   LIG    1       28.131 -19.887   5.730  0.00  0.00    +0.004 A 
ATOM      6  C   LIG    1       29.406 -19.927   6.302  0.00  0.00    +0.005 A 
ENDROOT
BRANCH   1   8
ATOM      7  C   LIG    1       31.131 -19.263   9.169  0.00  0.00    +0.024 C 
ATOM      8  C   LIG    1       30.925 -20.506   8.301  0.00  0.00    +0.124 C 
BRANCH   8   9
ATOM      9  C   LIG    1       31.193 -21.772   9.109  0.00  0.00    +0.312 C 
ATOM     10  O   LIG    1       30.742 -21.994  10.217  0.00  0.00    -0.250 OA
BRANCH   9  11
ATOM     11  O   LIG    1       32.062 -22.628   8.516  0.00  0.00    -0.480 OA
ATOM     12  H   LIG    1       32.915 -22.719   8.983  0.00  0.00    +0.295 HD
ENDBRANCH   9  11
ENDBRANCH   8   9
ENDBRANCH   1   8
BRANCH   3  13
ATOM     13  O   LIG    1       26.079 -21.544   8.266  0.00  0.00    -0.456 OA
BRANCH  13  14
ATOM     14  C   LIG    1       25.289 -22.476   7.620  0.00  0.00    +0.128 A 
ATOM     15  C   LIG    1       25.909 -23.688   7.296  0.00  0.00    +0.046 A 
ATOM     16  C   LIG    1       25.187 -24.716   6.680  0.00  0.00    +0.004 A 
ATOM     17  C   LIG    1       23.826 -24.557   6.425  0.00  0.00    +0.000 A 
ATOM     18  C   LIG    1       23.195 -23.361   6.769  0.00  0.00    +0.004 A 
ATOM     19  C   LIG    1       23.924 -22.320   7.357  0.00  0.00    +0.046 A 
ENDBRANCH  13  14
ENDBRANCH   3  13
TORSDOF 5
ENDMDL
MODEL 2
REMARK VINA RESULT:      -9.0      0.070      1.137
REMARK  Name = *****
REMARK                            x       y       z     vdW  Elec       q    Type
REMARK                         _______ _______ _______ _____ _____    ______ ____
ROOT
ATOM      1  C   LIG    1       29.586 -20.425   7.590  0.00  0.00    -0.030 A 
ATOM      2  C   LIG    1       28.464 -20.954   8.261  0.00  0.00    +0.050 A 
ATOM      3  C   LIG    1       27.206 -20.993   7.658  0.00  0.00    +0.129 A 
ATOM      4  C   LIG    1       27.040 -20.399   6.406  0.00  0.00    +0.046 A 
ATOM      5  C   LIG    1       28.141 -19.867   5.724  0.00  0.00    +0.004 A 
ATOM      6  C   LIG    1       29.416 -19.912   6.297  0.00  0.00    +0.005 A 
ENDROOT
BRANCH   1   8
ATOM      7  C   LIG    1       31.137 -19.256   9.174  0.00  0.00    +0.024 C 
ATOM      8  C   LIG    1       30.931 -20.494   8.299  0.00  0.00    +0.124 C 
BRANCH   8   9
ATOM      9  C   LIG    1       31.197 -21.765   9.100  0.00  0.00    +0.312 C 
ATOM     10  O   LIG    1       30.745 -21.992  10.207  0.00  0.00    -0.250 OA
BRANCH   9  11
ATOM     11  O   LIG    1       32.064 -22.619   8.502  0.00  0.00    -0.480 OA
ATOM     12  H   LIG    1       31.881 -23.562   8.678  0.00  0.00    +0.295 HD
ENDBRANCH   9  11
ENDBRANCH   8   9
ENDBRANCH   1   8
BRANCH   3  13
ATOM     13  O   LIG    1       26.079 -21.505   8.264  0.00  0.00    -0.456 OA
BRANCH  13  14
ATOM     14  C   LIG    1       25.363 -22.534   7.683  0.00  0.00    +0.128 A 
ATOM     15  C   LIG    1       24.008 -22.279   7.440  0.00  0.00    +0.046 A 
ATOM     16  C   LIG    1       23.204 -23.237   6.813  0.00  0.00    +0.004 A 
ATOM     17  C   LIG    1       23.759 -24.441   6.384  0.00  0.00    +0.000 A 
ATOM     18  C   LIG    1       25.114 -24.692   6.599  0.00  0.00    +0.004 A 
ATOM     19  C   LIG    1       25.913 -23.746   7.254  0.00  0.00    +0.046 A 
ENDBRANCH  13  14
ENDBRANCH   3  13
TORSDOF 5
ENDMDL
MODEL 3
REMARK VINA RESULT:      -8.7      1.682      2.075
REMARK  Name = *****
REMARK                            x       y       z     vdW  Elec       q    Type
REMARK                         _______ _______ _______ _____ _____    ______ ____
ROOT
ATOM      1  C   LIG    1       30.047 -20.118   7.497  0.00  0.00    -0.030 A 
ATOM      2  C   LIG    1       28.970 -21.021   7.610  0.00  0.00    +0.050 A 
ATOM      3  C   LIG    1       27.885 -20.975   6.734  0.00  0.00    +0.129 A 
ATOM      4  C   LIG    1       27.821 -19.944   5.793  0.00  0.00    +0.046 A 
ATOM      5  C   LIG    1       28.880 -19.037   5.666  0.00  0.00    +0.004 A 
ATOM      6  C   LIG    1       30.006 -19.144   6.489  0.00  0.00    +0.005 A 
ENDROOT
BRANCH   1   8
ATOM      7  C   LIG    1       31.249 -19.158   9.475  0.00  0.00    +0.024 C 
ATOM      8  C   LIG    1       31.220 -20.293   8.450  0.00  0.00    +0.124 C 
BRANCH   8   9
ATOM      9  C   LIG    1       31.314 -21.646   9.148  0.00  0.00    +0.312 C 
ATOM     10  O   LIG    1       30.788 -21.914  10.212  0.00  0.00    -0.250 OA
BRANCH   9  11
ATOM     11  O   LIG    1       32.116 -22.537   8.513  0.00  0.00    -0.480 OA
ATOM     12  H   LIG    1       32.183 -23.403   8.959  0.00  0.00    +0.295 HD
ENDBRANCH   9  11
ENDBRANCH   8   9
ENDBRANCH   1   8
BRANCH   3  13
ATOM     13  O   LIG    1       26.811 -21.836   6.795  0.00  0.00    -0.456 OA
BRANCH  13  14
ATOM     14  C   LIG    1       25.542 -21.417   6.441  0.00  0.00    +0.128 A 
ATOM     15  C   LIG    1       24.718 -20.999   7.492  0.00  0.00    +0.046 A 
ATOM     16  C   LIG    1       23.430 -20.513   7.238  0.00  0.00    +0.004 A 
ATOM     17  C   LIG    1       22.973 -20.400   5.927  0.00  0.00    +0.000 A 
ATOM     18  C   LIG    1       23.798 -20.790   4.873  0.00  0.00    +0.004 A 
ATOM     19  C   LIG    1       25.076 -21.305   5.127  0.00  0.00    +0.046 A 
ENDBRANCH  13  14
ENDBRANCH   3  13
TORSDOF 5
ENDMDL
MODEL 4
REMARK VINA RESULT:      -8.6      1.636      2.006
REMARK  Name = *****
REMARK                            x       y       z     vdW  Elec       q    Type
REMARK                         _______ _______ _______ _____ _____    ______ ____
ROOT
ATOM      1  C   LIG    1       29.723 -18.807   7.624  0.00  0.00    -0.030 A 
ATOM      2  C   LIG    1       28.880 -19.659   8.366  0.00  0.00    +0.050 A 
ATOM      3  C   LIG    1       27.922 -20.461   7.744  0.00  0.00    +0.129 A 
ATOM      4  C   LIG    1       27.730 -20.335   6.367  0.00  0.00    +0.046 A 
ATOM      5  C   LIG    1       28.557 -19.494   5.612  0.00  0.00    +0.004 A 
ATOM      6  C   LIG    1       29.574 -18.760   6.231  0.00  0.00    +0.005 A 
ENDROOT
BRANCH   1   8
ATOM      7  C   LIG    1       30.135 -16.990   9.299  0.00  0.00    +0.024 C 
ATOM      8  C   LIG    1       30.787 -18.028   8.383  0.00  0.00    +0.124 C 
BRANCH   8   9
ATOM      9  C   LIG    1       31.799 -18.864   9.159  0.00  0.00    +0.312 C 
ATOM     10  O   LIG    1       32.062 -20.029   8.921  0.00  0.00    -0.250 OA
BRANCH   9  11
ATOM     11  O   LIG    1       32.349 -18.218  10.217  0.00  0.00    -0.480 OA
ATOM     12  H   LIG    1       31.809 -17.481  10.560  0.00  0.00    +0.295 HD
ENDBRANCH   9  11
ENDBRANCH   8   9
ENDBRANCH   1   8
BRANCH   3  13
ATOM     13  O   LIG    1       27.078 -21.315   8.420  0.00  0.00    -0.456 OA
BRANCH  13  14
ATOM     14  C   LIG    1       25.887 -21.731   7.856  0.00  0.00    +0.128 A 
ATOM     15  C   LIG    1       25.841 -23.063   7.431  0.00  0.00    +0.046 A 
ATOM     16  C   LIG    1       24.667 -23.599   6.888  0.00  0.00    +0.004 A 
ATOM     17  C   LIG    1       23.516 -22.817   6.808  0.00  0.00    +0.000 A 
ATOM     18  C   LIG    1       23.547 -21.496   7.253  0.00  0.00    +0.004 A 
ATOM     19  C   LIG    1       24.730 -20.950   7.769  0.00  0.00    +0.046 A 
ENDBRANCH  13  14
ENDBRANCH   3  13
TORSDOF 5
ENDMDL
MODEL 5
REMARK VINA RESULT:      -8.4      2.493      6.256
REMARK  Name = *****
REMARK                            x       y       z     vdW  Elec       q    Type
REMARK                         _______ _______ _______ _____ _____    ______ ____
ROOT
ATOM      1  C   LIG    1       25.243 -25.133   6.681  0.00  0.00    -0.030 A 
ATOM      2  C   LIG    1       25.829 -23.923   7.104  0.00  0.00    +0.050 A 
ATOM      3  C   LIG    1       25.062 -22.777   7.317  0.00  0.00    +0.129 A 
ATOM      4  C   LIG    1       23.702 -22.808   7.003  0.00  0.00    +0.046 A 
ATOM      5  C   LIG    1       23.101 -24.001   6.581  0.00  0.00    +0.004 A 
ATOM      6  C   LIG    1       23.860 -25.169   6.456  0.00  0.00    +0.005 A 
ENDROOT
BRANCH   1   8
ATOM      7  C   LIG    1       25.512 -27.566   7.221  0.00  0.00    +0.024 C 
ATOM      8  C   LIG    1       26.149 -26.349   6.548  0.00  0.00    +0.124 C 
BRANCH   8   9
ATOM      9  C   LIG    1       26.593 -26.695   5.130  0.00  0.00    +0.312 C 
ATOM     10  O   LIG    1       25.871 -26.664   4.151  0.00  0.00    -0.250 OA
BRANCH   9  11
ATOM     11  O   LIG    1       27.876 -27.127   5.047  0.00  0.00    -0.480 OA
ATOM     12  H   LIG    1       28.534 -26.494   5.394  0.00  0.00    +0.295 HD
ENDBRANCH   9  11
ENDBRANCH   8   9
ENDBRANCH   1   8
BRANCH   3  13
ATOM     13  O   LIG    1       25.581 -21.571   7.736  0.00  0.00    -0.456 OA
BRANCH  13  14
ATOM     14  C   LIG    1       26.829 -21.149   7.316  0.00  0.00    +0.128 A 
ATOM     15  C   LIG    1       26.851 -20.335   6.178  0.00  0.00    +0.046 A 
ATOM     16  C   LIG    1       28.059 -19.817   5.696  0.00  0.00    +0.004 A 
ATOM     17  C   LIG    1       29.248 -20.072   6.375  0.00  0.00    +0.000 A 
ATOM     18  C   LIG    1       29.230 -20.861   7.525  0.00  0.00    +0.004 A 
ATOM     19  C   LIG    1       28.027 -21.406   7.991  0.00  0.00    +0.046 A 
ENDBRANCH  13  14
ENDBRANCH   3  13
TORSDOF 5
ENDMDL
MODEL 6
REMARK VINA RESULT:      -8.4      2.833      3.863
REMARK  Name = *****
REMARK                            x       y       z     vdW  Elec       q    Type
REMARK                         _______ _______ _______ _____ _____    ______ ____
ROOT
ATOM      1  C   LIG    1       28.509 -19.977   6.826  0.00  0.00    -0.030 A 
ATOM      2  C   LIG    1       27.521 -20.424   5.926  0.00  0.00    +0.050 A 
ATOM      3  C   LIG    1       26.274 -20.865   6.372  0.00  0.00    +0.129 A 
ATOM      4  C   LIG    1       26.045 -20.962   7.746  0.00  0.00    +0.046 A 
ATOM      5  C   LIG    1       27.015 -20.523   8.656  0.00  0.00    +0.004 A 
ATOM      6  C   LIG    1       28.228 -19.998   8.199  0.00  0.00    +0.005 A 
ENDROOT
BRANCH   1   8
ATOM      7  C   LIG    1       29.549 -18.171   5.434  0.00  0.00    +0.024 C 
ATOM      8  C   LIG    1       29.809 -19.444   6.242  0.00  0.00    +0.124 C 
BRANCH   8   9
ATOM      9  C   LIG    1       30.944 -19.223   7.236  0.00  0.00    +0.312 C 
ATOM     10  O   LIG    1       31.293 -18.136   7.658  0.00  0.00    -0.250 OA
BRANCH   9  11
ATOM     11  O   LIG    1       31.610 -20.356   7.571  0.00  0.00    -0.480 OA
ATOM     12  H   LIG    1       31.060 -21.022   8.026  0.00  0.00    +0.295 HD
ENDBRANCH   9  11
ENDBRANCH   8   9
ENDBRANCH   1   8
BRANCH   3  13
ATOM     13  O   LIG    1       25.271 -21.306   5.536  0.00  0.00    -0.456 OA
BRANCH  13  14
ATOM     14  C   LIG    1       24.354 -20.423   4.997  0.00  0.00    +0.128 A 
ATOM     15  C   LIG    1       23.138 -20.308   5.681  0.00  0.00    +0.046 A 
ATOM     16  C   LIG    1       22.158 -19.408   5.245  0.00  0.00    +0.004 A 
ATOM     17  C   LIG    1       22.405 -18.585   4.149  0.00  0.00    +0.000 A 
ATOM     18  C   LIG    1       23.625 -18.676   3.478  0.00  0.00    +0.004 A 
ATOM     19  C   LIG    1       24.594 -19.597   3.895  0.00  0.00    +0.046 A 
ENDBRANCH  13  14
ENDBRANCH   3  13
TORSDOF 5
ENDMDL
MODEL 7
REMARK VINA RESULT:      -8.4      2.437      6.260
REMARK  Name = *****
REMARK                            x       y       z     vdW  Elec       q    Type
REMARK                         _______ _______ _______ _____ _____    ______ ____
ROOT
ATOM      1  C   LIG    1       24.993 -25.166   6.676  0.00  0.00    -0.030 A 
ATOM      2  C   LIG    1       25.796 -24.164   7.259  0.00  0.00    +0.050 A 
ATOM      3  C   LIG    1       25.278 -22.909   7.581  0.00  0.00    +0.129 A 
ATOM      4  C   LIG    1       23.963 -22.610   7.218  0.00  0.00    +0.046 A 
ATOM      5  C   LIG    1       23.149 -23.591   6.637  0.00  0.00    +0.004 A 
ATOM      6  C   LIG    1       23.649 -24.875   6.400  0.00  0.00    +0.005 A 
ENDROOT
BRANCH   1   8
ATOM      7  C   LIG    1       24.569 -27.630   6.507  0.00  0.00    +0.024 C 
ATOM      8  C   LIG    1       25.627 -26.527   6.430  0.00  0.00    +0.124 C 
BRANCH   8   9
ATOM      9  C   LIG    1       26.443 -26.659   5.148  0.00  0.00    +0.312 C 
ATOM     10  O   LIG    1       25.990 -26.546   4.024  0.00  0.00    -0.250 OA
BRANCH   9  11
ATOM     11  O   LIG    1       27.740 -26.998   5.356  0.00  0.00    -0.480 OA
ATOM     12  H   LIG    1       28.345 -26.720   4.642  0.00  0.00    +0.295 HD
ENDBRANCH   9  11
ENDBRANCH   8   9
ENDBRANCH   1   8
BRANCH   3  13
ATOM     13  O   LIG    1       26.015 -21.898   8.157  0.00  0.00    -0.456 OA
BRANCH  13  14
ATOM     14  C   LIG    1       26.923 -21.167   7.415  0.00  0.00    +0.128 A 
ATOM     15  C   LIG    1       28.258 -21.246   7.827  0.00  0.00    +0.046 A 
ATOM     16  C   LIG    1       29.264 -20.580   7.117  0.00  0.00    +0.004 A 
ATOM     17  C   LIG    1       28.948 -19.868   5.963  0.00  0.00    +0.000 A 
ATOM     18  C   LIG    1       27.624 -19.806   5.531  0.00  0.00    +0.004 A 
ATOM     19  C   LIG    1       26.612 -20.446   6.258  0.00  0.00    +0.046 A 
ENDBRANCH  13  14
ENDBRANCH   3  13
TORSDOF 5
ENDMDL
MODEL 8
REMARK VINA RESULT:      -8.4      2.581      3.705
REMARK  Name = *****
REMARK                            x       y       z     vdW  Elec       q    Type
REMARK                         _______ _______ _______ _____ _____    ______ ____
ROOT
ATOM      1  C   LIG    1       30.497 -18.744   8.837  0.00  0.00    -0.030 A 
ATOM      2  C   LIG    1       29.494 -18.744   7.847  0.00  0.00    +0.050 A 
ATOM      3  C   LIG    1       29.109 -19.918   7.198  0.00  0.00    +0.129 A 
ATOM      4  C   LIG    1       29.810 -21.096   7.464  0.00  0.00    +0.046 A 
ATOM      5  C   LIG    1       30.811 -21.116   8.444  0.00  0.00    +0.004 A 
ATOM      6  C   LIG    1       31.129 -19.954   9.154  0.00  0.00    +0.005 A 
ENDROOT
BRANCH   1   8
ATOM      7  C   LIG    1       30.180 -17.422  10.942  0.00  0.00    +0.024 C 
ATOM      8  C   LIG    1       30.796 -17.429   9.541  0.00  0.00    +0.124 C 
BRANCH   8   9
ATOM      9  C   LIG    1       32.266 -17.026   9.604  0.00  0.00    +0.312 C 
ATOM     10  O   LIG    1       33.025 -17.313  10.511  0.00  0.00    -0.250 OA
BRANCH   9  11
ATOM     11  O   LIG    1       32.662 -16.233   8.577  0.00  0.00    -0.480 OA
ATOM     12  H   LIG    1       32.577 -15.277   8.754  0.00  0.00    +0.295 HD
ENDBRANCH   9  11
ENDBRANCH   8   9
ENDBRANCH   1   8
BRANCH   3  13
ATOM     13  O   LIG    1       28.131 -19.975   6.229  0.00  0.00    -0.456 OA
BRANCH  13  14
ATOM     14  C   LIG    1       26.827 -20.299   6.553  0.00  0.00    +0.128 A 
ATOM     15  C   LIG    1       25.917 -20.319   5.490  0.00  0.00    +0.046 A 
ATOM     16  C   LIG    1       24.581 -20.678   5.701  0.00  0.00    +0.004 A 
ATOM     17  C   LIG    1       24.155 -21.064   6.971  0.00  0.00    +0.000 A 
ATOM     18  C   LIG    1       25.062 -21.071   8.030  0.00  0.00    +0.004 A 
ATOM     19  C   LIG    1       26.392 -20.682   7.826  0.00  0.00    +0.046 A 
ENDBRANCH  13  14
ENDBRANCH   3  13
TORSDOF 5
ENDMDL
MODEL 9
REMARK VINA RESULT:      -8.2      4.361      6.200
REMARK  Name = *****
REMARK                            x       y       z     vdW  Elec       q    Type
REMARK                         _______ _______ _______ _____ _____    ______ ____
ROOT
ATOM      1  C   LIG    1       25.276 -25.145   6.465  0.00  0.00    -0.030 A 
ATOM      2  C   LIG    1       25.676 -23.793   6.450  0.00  0.00    +0.050 A 
ATOM      3  C   LIG    1       24.749 -22.757   6.575  0.00  0.00    +0.129 A 
ATOM      4  C   LIG    1       23.389 -23.070   6.610  0.00  0.00    +0.046 A 
ATOM      5  C   LIG    1       22.972 -24.407   6.624  0.00  0.00    +0.004 A 
ATOM      6  C   LIG    1       23.911 -25.441   6.589  0.00  0.00    +0.005 A 
ENDROOT
BRANCH   1   8
ATOM      7  C   LIG    1       26.117 -27.292   7.446  0.00  0.00    +0.024 C 
ATOM      8  C   LIG    1       26.365 -26.205   6.398  0.00  0.00    +0.124 C 
BRANCH   8   9
ATOM      9  C   LIG    1       26.601 -26.831   5.027  0.00  0.00    +0.312 C 
ATOM     10  O   LIG    1       25.736 -27.011   4.190  0.00  0.00    -0.250 OA
BRANCH   9  11
ATOM     11  O   LIG    1       27.874 -27.255   4.829  0.00  0.00    -0.480 OA
ATOM     12  H   LIG    1       27.943 -28.098   4.341  0.00  0.00    +0.295 HD
ENDBRANCH   9  11
ENDBRANCH   8   9
ENDBRANCH   1   8
BRANCH   3  13
ATOM     13  O   LIG    1       25.085 -21.420   6.575  0.00  0.00    -0.456 OA
BRANCH  13  14
ATOM     14  C   LIG    1       24.448 -20.527   5.735  0.00  0.00    +0.128 A 
ATOM     15  C   LIG    1       25.165 -20.131   4.600  0.00  0.00    +0.046 A 
ATOM     16  C   LIG    1       24.593 -19.264   3.662  0.00  0.00    +0.004 A 
ATOM     17  C   LIG    1       23.283 -18.822   3.828  0.00  0.00    +0.000 A 
ATOM     18  C   LIG    1       22.552 -19.233   4.944  0.00  0.00    +0.004 A 
ATOM     19  C   LIG    1       23.134 -20.076   5.899  0.00  0.00    +0.046 A 
ENDBRANCH  13  14
ENDBRANCH   3  13
TORSDOF 5
ENDMDL
