MODEL 1
REMARK VINA RESULT:     -10.7      0.000      0.000
REMARK  Name = *****
REMARK                            x       y       z     vdW  Elec       q    Type
REMARK                         _______ _______ _______ _____ _____    ______ ____
ROOT
ATOM      1  O   LIG    1       24.981 -23.919   4.326  0.00  0.00    -0.226 OA
ATOM      2  C   LIG    1       24.817 -23.725   5.521  0.00  0.00    +0.404 C 
ATOM      3  N   LIG    1       25.117 -22.554   6.181  0.00  0.00    -0.256 N 
ATOM      4  C   LIG    1       25.664 -21.415   5.440  0.00  0.00    +0.140 C 
ATOM      5  C   LIG    1       26.847 -20.788   6.194  0.00  0.00    -0.019 A 
ATOM      6  C   LIG    1       27.057 -21.030   7.571  0.00  0.00    -0.041 A 
ATOM      7  C   LIG    1       28.104 -20.386   8.246  0.00  0.00    +0.004 A 
ATOM      8  C   LIG    1       28.951 -19.515   7.568  0.00  0.00    +0.000 A 
ATOM      9  C   LIG    1       28.779 -19.304   6.202  0.00  0.00    +0.000 A 
ATOM     10  C   LIG    1       26.234 -22.056   8.310  0.00  0.00    +0.054 C 
ATOM     11  C   LIG    1       27.737 -19.936   5.519  0.00  0.00    +0.006 A 
ATOM     12  C   LIG    1       24.915 -22.359   7.614  0.00  0.00    +0.116 C 
ENDROOT
BRANCH   4  13
ATOM     13  C   LIG    1       24.544 -20.421   5.081  0.00  0.00    -0.022 A 
ATOM     14  C   LIG    1       23.354 -20.327   5.825  0.00  0.00    +0.006 A 
ATOM     15  C   LIG    1       22.345 -19.428   5.468  0.00  0.00    +0.000 A 
ATOM     16  C   LIG    1       22.499 -18.610   4.352  0.00  0.00    +0.000 A 
ATOM     17  C   LIG    1       23.658 -18.701   3.586  0.00  0.00    +0.000 A 
ATOM     18  C   LIG    1       24.670 -19.602   3.943  0.00  0.00    +0.006 A 
ENDBRANCH   4  13
BRANCH   2  19
ATOM     19  O   LIG    1       24.309 -24.655   6.369  0.00  0.00    -0.445 OA
BRANCH  19  20
ATOM     20  C   LIG    1       24.091 -25.976   5.847  0.00  0.00    +0.195 C 
ATOM     21  C   LIG    1       24.566 -26.968   6.931  0.00  0.00    +0.034 C 
ATOM     22  C   LIG    1       26.062 -26.726   7.209  0.00  0.00    +0.022 C 
ATOM     23  C   LIG    1       26.841 -26.796   5.886  0.00  0.00    +0.085 C 
ATOM     24  N   LIG    1       25.981 -27.242   4.767  0.00  0.00    -0.299 NA
ATOM     25  C   LIG    1       25.343 -28.526   5.133  0.00  0.00    +0.085 C 
ATOM     26  C   LIG    1       24.429 -28.385   6.363  0.00  0.00    +0.022 C 
ATOM     27  C   LIG    1       24.916 -26.220   4.561  0.00  0.00    +0.129 C 
ENDBRANCH  19  20
ENDBRANCH   2  19
TORSDOF 3
ENDMDL
MODEL 2
REMARK VINA RESULT:      -9.5      2.584      6.373
REMARK  Name = *****
REMARK                            x       y       z     vdW  Elec       q    Type
REMARK                         _______ _______ _______ _____ _____    ______ ____
ROOT
ATOM      1  O   LIG    1       25.756 -19.971   9.249  0.00  0.00    -0.226 OA
ATOM      2  C   LIG    1       26.561 -20.571   8.552  0.00  0.00    +0.404 C 
ATOM      3  N   LIG    1       26.236 -21.380   7.487  0.00  0.00    -0.256 N 
ATOM      4  C   LIG    1       24.834 -21.562   7.104  0.00  0.00    +0.140 C 
ATOM      5  C   LIG    1       24.526 -23.044   6.836  0.00  0.00    -0.019 A 
ATOM      6  C   LIG    1       25.557 -23.978   6.587  0.00  0.00    -0.041 A 
ATOM      7  C   LIG    1       25.240 -25.308   6.274  0.00  0.00    +0.004 A 
ATOM      8  C   LIG    1       23.913 -25.722   6.218  0.00  0.00    +0.000 A 
ATOM      9  C   LIG    1       22.892 -24.819   6.504  0.00  0.00    +0.000 A 
ATOM     10  C   LIG    1       27.006 -23.595   6.755  0.00  0.00    +0.054 C 
ATOM     11  C   LIG    1       23.194 -23.491   6.812  0.00  0.00    +0.006 A 
ATOM     12  C   LIG    1       27.226 -22.090   6.680  0.00  0.00    +0.116 C 
ENDROOT
BRANCH   4  13
ATOM     13  C   LIG    1       24.468 -20.619   5.944  0.00  0.00    -0.022 A 
ATOM     14  C   LIG    1       23.177 -20.085   5.786  0.00  0.00    +0.006 A 
ATOM     15  C   LIG    1       22.867 -19.244   4.712  0.00  0.00    +0.000 A 
ATOM     16  C   LIG    1       23.839 -18.926   3.768  0.00  0.00    +0.000 A 
ATOM     17  C   LIG    1       25.119 -19.461   3.891  0.00  0.00    +0.000 A 
ATOM     18  C   LIG    1       25.431 -20.304   4.966  0.00  0.00    +0.006 A 
ENDBRANCH   4  13
BRANCH   2  19
ATOM     19  O   LIG    1       27.904 -20.516   8.742  0.00  0.00    -0.445 OA
BRANCH  19  20
ATOM     20  C   LIG    1       28.629 -19.494   8.039  0.00  0.00    +0.195 C 
ATOM     21  C   LIG    1       29.656 -20.215   7.139  0.00  0.00    +0.034 C 
ATOM     22  C   LIG    1       30.600 -21.049   8.026  0.00  0.00    +0.022 C 
ATOM     23  C   LIG    1       31.213 -20.143   9.105  0.00  0.00    +0.085 C 
ATOM     24  N   LIG    1       30.871 -18.720   8.885  0.00  0.00    -0.299 NA
ATOM     25  C   LIG    1       31.267 -18.336   7.511  0.00  0.00    +0.085 C 
ATOM     26  C   LIG    1       30.506 -19.144   6.445  0.00  0.00    +0.022 C 
ATOM     27  C   LIG    1       29.394 -18.570   9.016  0.00  0.00    +0.129 C 
ENDBRANCH  19  20
ENDBRANCH   2  19
TORSDOF 3
ENDMDL
MODEL 3
REMARK VINA RESULT:      -8.4      5.708      9.441
REMARK  Name = *****
REMARK                            x       y       z     vdW  Elec       q    Type
REMARK                         _______ _______ _______ _____ _____    ______ ____
ROOT
ATOM      1  O   LIG    1       22.757 -30.336   9.433  0.00  0.00    -0.226 OA
ATOM      2  C   LIG    1       23.926 -30.432   9.774  0.00  0.00    +0.404 C 
ATOM      3  N   LIG    1       25.003 -30.450   8.916  0.00  0.00    -0.256 N 
ATOM      4  C   LIG    1       24.790 -30.334   7.471  0.00  0.00    +0.140 C 
ATOM      5  C   LIG    1       25.637 -31.365   6.708  0.00  0.00    -0.019 A 
ATOM      6  C   LIG    1       26.746 -32.001   7.311  0.00  0.00    -0.041 A 
ATOM      7  C   LIG    1       27.542 -32.882   6.565  0.00  0.00    +0.004 A 
ATOM      8  C   LIG    1       27.242 -33.148   5.232  0.00  0.00    +0.000 A 
ATOM      9  C   LIG    1       26.127 -32.559   4.642  0.00  0.00    +0.000 A 
ATOM     10  C   LIG    1       27.031 -31.829   8.782  0.00  0.00    +0.054 C 
ATOM     11  C   LIG    1       25.329 -31.676   5.373  0.00  0.00    +0.006 A 
ATOM     12  C   LIG    1       26.388 -30.576   9.360  0.00  0.00    +0.116 C 
ENDROOT
BRANCH   4  13
ATOM     13  C   LIG    1       25.000 -28.879   7.014  0.00  0.00    -0.022 A 
ATOM     14  C   LIG    1       25.943 -28.029   7.618  0.00  0.00    +0.006 A 
ATOM     15  C   LIG    1       26.102 -26.705   7.195  0.00  0.00    +0.000 A 
ATOM     16  C   LIG    1       25.313 -26.200   6.165  0.00  0.00    +0.000 A 
ATOM     17  C   LIG    1       24.356 -27.016   5.568  0.00  0.00    +0.000 A 
ATOM     18  C   LIG    1       24.196 -28.342   5.990  0.00  0.00    +0.006 A 
ENDBRANCH   4  13
BRANCH   2  19
ATOM     19  O   LIG    1       24.323 -30.536  11.068  0.00  0.00    -0.445 OA
BRANCH  19  20
ATOM     20  C   LIG    1       23.787 -29.585  12.002  0.00  0.00    +0.195 C 
ATOM     21  C   LIG    1       24.880 -28.519  12.229  0.00  0.00    +0.034 C 
ATOM     22  C   LIG    1       26.136 -29.204  12.801  0.00  0.00    +0.022 C 
ATOM     23  C   LIG    1       25.749 -30.007  14.053  0.00  0.00    +0.085 C 
ATOM     24  N   LIG    1       24.345 -29.758  14.452  0.00  0.00    -0.299 NA
ATOM     25  C   LIG    1       24.141 -28.301  14.611  0.00  0.00    +0.085 C 
ATOM     26  C   LIG    1       24.368 -27.540  13.292  0.00  0.00    +0.022 C 
ATOM     27  C   LIG    1       23.458 -30.249  13.360  0.00  0.00    +0.129 C 
ENDBRANCH  19  20
ENDBRANCH   2  19
TORSDOF 3
ENDMDL
MODEL 4
REMARK VINA RESULT:      -8.1      4.986      9.606
REMARK  Name = *****
REMARK                            x       y       z     vdW  Elec       q    Type
REMARK                         _______ _______ _______ _____ _____    ______ ____
ROOT
ATOM      1  O   LIG    1       27.245 -28.600   9.546  0.00  0.00    -0.226 OA
ATOM      2  C   LIG    1       26.170 -28.928   9.065  0.00  0.00    +0.404 C 
ATOM      3  N   LIG    1       25.150 -29.544   9.755  0.00  0.00    -0.256 N 
ATOM      4  C   LIG    1       25.305 -29.841  11.182  0.00  0.00    +0.140 C 
ATOM      5  C   LIG    1       24.827 -31.266  11.501  0.00  0.00    -0.019 A 
ATOM      6  C   LIG    1       23.984 -31.977  10.616  0.00  0.00    -0.041 A 
ATOM      7  C   LIG    1       23.507 -33.248  10.969  0.00  0.00    +0.004 A 
ATOM      8  C   LIG    1       23.867 -33.825  12.183  0.00  0.00    +0.000 A 
ATOM      9  C   LIG    1       24.732 -33.150  13.041  0.00  0.00    +0.000 A 
ATOM     10  C   LIG    1       23.669 -31.436   9.244  0.00  0.00    +0.054 C 
ATOM     11  C   LIG    1       25.210 -31.882  12.704  0.00  0.00    +0.006 A 
ATOM     12  C   LIG    1       23.881 -29.931   9.146  0.00  0.00    +0.116 C 
ENDROOT
BRANCH   4  13
ATOM     13  C   LIG    1       24.638 -28.744  12.032  0.00  0.00    -0.022 A 
ATOM     14  C   LIG    1       25.366 -27.681  12.595  0.00  0.00    +0.006 A 
ATOM     15  C   LIG    1       24.738 -26.707  13.378  0.00  0.00    +0.000 A 
ATOM     16  C   LIG    1       23.369 -26.781  13.623  0.00  0.00    +0.000 A 
ATOM     17  C   LIG    1       22.632 -27.837  13.095  0.00  0.00    +0.000 A 
ATOM     18  C   LIG    1       23.259 -28.813  12.311  0.00  0.00    +0.006 A 
ENDBRANCH   4  13
BRANCH   2  19
ATOM     19  O   LIG    1       25.836 -28.725   7.765  0.00  0.00    -0.445 OA
BRANCH  19  20
ATOM     20  C   LIG    1       25.655 -27.366   7.335  0.00  0.00    +0.195 C 
ATOM     21  C   LIG    1       24.326 -27.321   6.550  0.00  0.00    +0.034 C 
ATOM     22  C   LIG    1       24.425 -28.272   5.343  0.00  0.00    +0.022 C 
ATOM     23  C   LIG    1       25.672 -27.917   4.518  0.00  0.00    +0.085 C 
ATOM     24  N   LIG    1       26.314 -26.675   5.005  0.00  0.00    -0.299 NA
ATOM     25  C   LIG    1       25.307 -25.591   5.031  0.00  0.00    +0.085 C 
ATOM     26  C   LIG    1       24.153 -25.900   6.001  0.00  0.00    +0.022 C 
ATOM     27  C   LIG    1       26.797 -26.914   6.394  0.00  0.00    +0.129 C 
ENDBRANCH  19  20
ENDBRANCH   2  19
TORSDOF 3
ENDMDL
MODEL 5
REMARK VINA RESULT:      -7.8      1.237      3.967
REMARK  Name = *****
REMARK                            x       y       z     vdW  Elec       q    Type
REMARK                         _______ _______ _______ _____ _____    ______ ____
ROOT
ATOM      1  O   LIG    1       23.243 -24.026   7.328  0.00  0.00    -0.226 OA
ATOM      2  C   LIG    1       23.817 -23.946   6.253  0.00  0.00    +0.404 C 
ATOM      3  N   LIG    1       24.208 -22.771   5.650  0.00  0.00    -0.256 N 
ATOM      4  C   LIG    1       23.954 -21.489   6.311  0.00  0.00    +0.140 C 
ATOM      5  C   LIG    1       23.390 -20.462   5.315  0.00  0.00    -0.019 A 
ATOM      6  C   LIG    1       23.522 -20.638   3.919  0.00  0.00    -0.041 A 
ATOM      7  C   LIG    1       23.061 -19.648   3.039  0.00  0.00    +0.004 A 
ATOM      8  C   LIG    1       22.460 -18.492   3.530  0.00  0.00    +0.000 A 
ATOM      9  C   LIG    1       22.286 -18.331   4.902  0.00  0.00    +0.000 A 
ATOM     10  C   LIG    1       24.060 -21.926   3.349  0.00  0.00    +0.054 C 
ATOM     11  C   LIG    1       22.745 -19.307   5.789  0.00  0.00    +0.006 A 
ATOM     12  C   LIG    1       24.886 -22.713   4.358  0.00  0.00    +0.116 C 
ENDROOT
BRANCH   4  13
ATOM     13  C   LIG    1       25.210 -21.017   7.064  0.00  0.00    -0.022 A 
ATOM     14  C   LIG    1       25.233 -20.851   8.461  0.00  0.00    +0.006 A 
ATOM     15  C   LIG    1       26.382 -20.404   9.119  0.00  0.00    +0.000 A 
ATOM     16  C   LIG    1       27.532 -20.103   8.394  0.00  0.00    +0.000 A 
ATOM     17  C   LIG    1       27.527 -20.237   7.009  0.00  0.00    +0.000 A 
ATOM     18  C   LIG    1       26.376 -20.685   6.347  0.00  0.00    +0.006 A 
ENDBRANCH   4  13
BRANCH   2  19
ATOM     19  O   LIG    1       24.150 -25.025   5.498  0.00  0.00    -0.445 OA
BRANCH  19  20
ATOM     20  C   LIG    1       24.174 -26.304   6.150  0.00  0.00    +0.195 C 
ATOM     21  C   LIG    1       25.545 -26.422   6.851  0.00  0.00    +0.034 C 
ATOM     22  C   LIG    1       26.659 -26.324   5.791  0.00  0.00    +0.022 C 
ATOM     23  C   LIG    1       26.405 -27.367   4.691  0.00  0.00    +0.085 C 
ATOM     24  N   LIG    1       25.288 -28.273   5.043  0.00  0.00    -0.299 NA
ATOM     25  C   LIG    1       25.557 -28.878   6.366  0.00  0.00    +0.085 C 
ATOM     26  C   LIG    1       25.633 -27.818   7.480  0.00  0.00    +0.022 C 
ATOM     27  C   LIG    1       24.041 -27.461   5.132  0.00  0.00    +0.129 C 
ENDBRANCH  19  20
ENDBRANCH   2  19
TORSDOF 3
ENDMDL
MODEL 6
REMARK VINA RESULT:      -7.8      4.148     10.000
REMARK  Name = *****
REMARK                            x       y       z     vdW  Elec       q    Type
REMARK                         _______ _______ _______ _____ _____    ______ ____
ROOT
ATOM      1  O   LIG    1       23.512 -29.616   5.923  0.00  0.00    -0.226 OA
ATOM      2  C   LIG    1       24.268 -29.228   6.801  0.00  0.00    +0.404 C 
ATOM      3  N   LIG    1       24.878 -30.036   7.735  0.00  0.00    -0.256 N 
ATOM      4  C   LIG    1       24.649 -31.483   7.713  0.00  0.00    +0.140 C 
ATOM      5  C   LIG    1       24.375 -32.016   9.129  0.00  0.00    -0.019 A 
ATOM      6  C   LIG    1       24.727 -31.273  10.278  0.00  0.00    -0.041 A 
ATOM      7  C   LIG    1       24.530 -31.818  11.555  0.00  0.00    +0.004 A 
ATOM      8  C   LIG    1       23.977 -33.086  11.703  0.00  0.00    +0.000 A 
ATOM      9  C   LIG    1       23.586 -33.808  10.578  0.00  0.00    +0.000 A 
ATOM     10  C   LIG    1       25.218 -29.852  10.160  0.00  0.00    +0.054 C 
ATOM     11  C   LIG    1       23.782 -33.278   9.300  0.00  0.00    +0.006 A 
ATOM     12  C   LIG    1       25.770 -29.536   8.777  0.00  0.00    +0.116 C 
ENDROOT
BRANCH   4  13
ATOM     13  C   LIG    1       25.798 -32.196   6.979  0.00  0.00    -0.022 A 
ATOM     14  C   LIG    1       26.981 -32.587   7.632  0.00  0.00    +0.006 A 
ATOM     15  C   LIG    1       28.017 -33.219   6.938  0.00  0.00    +0.000 A 
ATOM     16  C   LIG    1       27.898 -33.464   5.573  0.00  0.00    +0.000 A 
ATOM     17  C   LIG    1       26.747 -33.065   4.900  0.00  0.00    +0.000 A 
ATOM     18  C   LIG    1       25.707 -32.433   5.594  0.00  0.00    +0.006 A 
ENDBRANCH   4  13
BRANCH   2  19
ATOM     19  O   LIG    1       24.613 -27.926   6.974  0.00  0.00    -0.445 OA
BRANCH  19  20
ATOM     20  C   LIG    1       24.297 -27.014   5.910  0.00  0.00    +0.195 C 
ATOM     21  C   LIG    1       25.606 -26.773   5.127  0.00  0.00    +0.034 C 
ATOM     22  C   LIG    1       26.655 -26.168   6.078  0.00  0.00    +0.022 C 
ATOM     23  C   LIG    1       26.067 -24.916   6.750  0.00  0.00    +0.085 C 
ATOM     24  N   LIG    1       24.754 -24.551   6.173  0.00  0.00    -0.299 NA
ATOM     25  C   LIG    1       24.895 -24.410   4.706  0.00  0.00    +0.085 C 
ATOM     26  C   LIG    1       25.318 -25.731   4.039  0.00  0.00    +0.022 C 
ATOM     27  C   LIG    1       23.796 -25.656   6.458  0.00  0.00    +0.129 C 
ENDBRANCH  19  20
ENDBRANCH   2  19
TORSDOF 3
ENDMDL
