MODEL 1
REMARK VINA RESULT:      -5.5      0.000      0.000
REMARK  Name = *****
REMARK                            x       y       z     vdW  Elec       q    Type
REMARK                         _______ _______ _______ _____ _____    ______ ____
ROOT
ATOM      1  C   LIG    1       25.775 -16.344   3.465  0.00  0.00    +0.234 C 
ATOM      2  N   LIG    1       26.206 -17.668   3.437  0.00  0.00    -0.284 N 
ATOM      3  H   LIG    1       27.172 -17.797   3.163  0.00  0.00    +0.155 HD
ATOM      4  O   LIG    1       24.663 -15.950   3.814  0.00  0.00    -0.274 OA
ENDROOT
BRANCH   2   5
ATOM      5  C   LIG    1       25.489 -18.824   3.841  0.00  0.00    +0.036 A 
ATOM      6  C   LIG    1       26.101 -19.755   4.706  0.00  0.00    -0.029 A 
ATOM      7  C   LIG    1       27.502 -19.582   5.231  0.00  0.00    +0.045 C 
ATOM      8  C   LIG    1       25.367 -20.876   5.158  0.00  0.00    +0.005 A 
ATOM      9  C   LIG    1       24.055 -21.086   4.741  0.00  0.00    +0.000 A 
ATOM     10  C   LIG    1       23.467 -20.190   3.858  0.00  0.00    +0.002 A 
ATOM     11  C   LIG    1       24.177 -19.073   3.412  0.00  0.00    +0.023 A 
ENDBRANCH   2   5
BRANCH   1  12
ATOM     12  C   LIG    1       26.897 -15.348   3.067  0.00  0.00    +0.138 C 
ATOM     13  C   LIG    1       27.511 -14.634   4.276  0.00  0.00    +0.034 C 
BRANCH  12  14
ATOM     14  N   LIG    1       26.448 -14.430   1.985  0.00  0.00    -0.306 NA
ATOM     15  H   LIG    1       27.187 -14.381   1.283  0.00  0.00    +0.123 HD
BRANCH  14  16
ATOM     16  C   LIG    1       26.178 -13.065   2.461  0.00  0.00    +0.081 C 
BRANCH  16  18
ATOM     17  C   LIG    1       24.057 -12.533   3.713  0.00  0.00    +0.005 C 
ATOM     18  C   LIG    1       24.689 -12.717   2.338  0.00  0.00    +0.012 C 
ENDBRANCH  16  18
ENDBRANCH  14  16
ENDBRANCH  12  14
ENDBRANCH   1  12
TORSDOF 5
ENDMDL
MODEL 2
REMARK VINA RESULT:      -5.4      1.740      6.343
REMARK  Name = *****
REMARK                            x       y       z     vdW  Elec       q    Type
REMARK                         _______ _______ _______ _____ _____    ______ ____
ROOT
ATOM      1  C   LIG    1       26.057 -18.027   3.624  0.00  0.00    +0.234 C 
ATOM      2  N   LIG    1       25.365 -16.857   3.318  0.00  0.00    -0.284 N 
ATOM      3  H   LIG    1       24.414 -16.994   3.001  0.00  0.00    +0.155 HD
ATOM      4  O   LIG    1       27.200 -18.098   4.072  0.00  0.00    -0.274 OA
ENDROOT
BRANCH   2   5
ATOM      5  C   LIG    1       25.801 -15.519   3.496  0.00  0.00    +0.036 A 
ATOM      6  C   LIG    1       24.894 -14.550   3.973  0.00  0.00    -0.029 A 
ATOM      7  C   LIG    1       23.460 -14.869   4.307  0.00  0.00    +0.045 C 
ATOM      8  C   LIG    1       25.342 -13.229   4.209  0.00  0.00    +0.005 A 
ATOM      9  C   LIG    1       26.662 -12.867   3.953  0.00  0.00    +0.000 A 
ATOM     10  C   LIG    1       27.544 -13.812   3.446  0.00  0.00    +0.002 A 
ATOM     11  C   LIG    1       27.117 -15.122   3.219  0.00  0.00    +0.023 A 
ENDBRANCH   2   5
BRANCH   1  12
ATOM     12  C   LIG    1       25.193 -19.298   3.410  0.00  0.00    +0.138 C 
ATOM     13  C   LIG    1       23.701 -19.050   3.664  0.00  0.00    +0.034 C 
BRANCH  12  14
ATOM     14  N   LIG    1       25.747 -20.463   4.152  0.00  0.00    -0.306 NA
ATOM     15  H   LIG    1       26.161 -21.104   3.474  0.00  0.00    +0.123 HD
BRANCH  14  16
ATOM     16  C   LIG    1       24.729 -21.200   4.915  0.00  0.00    +0.081 C 
BRANCH  16  18
ATOM     17  C   LIG    1       23.475 -20.782   7.060  0.00  0.00    +0.005 C 
ATOM     18  C   LIG    1       24.851 -20.923   6.418  0.00  0.00    +0.012 C 
ENDBRANCH  16  18
ENDBRANCH  14  16
ENDBRANCH  12  14
ENDBRANCH   1  12
TORSDOF 5
ENDMDL
MODEL 3
REMARK VINA RESULT:      -4.9      1.482      2.231
REMARK  Name = *****
REMARK                            x       y       z     vdW  Elec       q    Type
REMARK                         _______ _______ _______ _____ _____    ______ ____
ROOT
ATOM      1  C   LIG    1       26.773 -16.184   3.575  0.00  0.00    +0.234 C 
ATOM      2  N   LIG    1       25.424 -16.471   3.377  0.00  0.00    -0.284 N 
ATOM      3  H   LIG    1       24.896 -15.743   2.916  0.00  0.00    +0.155 HD
ATOM      4  O   LIG    1       27.612 -16.938   4.068  0.00  0.00    -0.274 OA
ENDROOT
BRANCH   2   5
ATOM      5  C   LIG    1       24.747 -17.688   3.651  0.00  0.00    +0.036 A 
ATOM      6  C   LIG    1       23.432 -17.652   4.158  0.00  0.00    -0.029 A 
ATOM      7  C   LIG    1       22.697 -16.365   4.429  0.00  0.00    +0.045 C 
ATOM      8  C   LIG    1       22.732 -18.862   4.376  0.00  0.00    +0.005 A 
ATOM      9  C   LIG    1       23.336 -20.090   4.118  0.00  0.00    +0.000 A 
ATOM     10  C   LIG    1       24.645 -20.126   3.656  0.00  0.00    +0.002 A 
ATOM     11  C   LIG    1       25.342 -18.938   3.428  0.00  0.00    +0.023 A 
ENDBRANCH   2   5
BRANCH   1  12
ATOM     12  C   LIG    1       27.166 -14.786   3.028  0.00  0.00    +0.138 C 
ATOM     13  C   LIG    1       27.528 -13.795   4.140  0.00  0.00    +0.034 C 
BRANCH  12  14
ATOM     14  N   LIG    1       26.151 -14.274   2.067  0.00  0.00    -0.306 NA
ATOM     15  H   LIG    1       26.586 -14.214   1.146  0.00  0.00    +0.123 HD
BRANCH  14  16
ATOM     16  C   LIG    1       25.642 -12.940   2.421  0.00  0.00    +0.081 C 
BRANCH  16  18
ATOM     17  C   LIG    1       24.052 -12.907   4.375  0.00  0.00    +0.005 C 
ATOM     18  C   LIG    1       24.173 -13.003   2.858  0.00  0.00    +0.012 C 
ENDBRANCH  16  18
ENDBRANCH  14  16
ENDBRANCH  12  14
ENDBRANCH   1  12
TORSDOF 5
ENDMDL
MODEL 4
REMARK VINA RESULT:      -4.5      1.608      2.498
REMARK  Name = *****
REMARK                            x       y       z     vdW  Elec       q    Type
REMARK                         _______ _______ _______ _____ _____    ______ ____
ROOT
ATOM      1  C   LIG    1       23.897 -15.471   4.160  0.00  0.00    +0.234 C 
ATOM      2  N   LIG    1       24.293 -16.733   3.723  0.00  0.00    -0.284 N 
ATOM      3  H   LIG    1       25.147 -16.749   3.181  0.00  0.00    +0.155 HD
ATOM      4  O   LIG    1       22.924 -15.221   4.871  0.00  0.00    -0.274 OA
ENDROOT
BRANCH   2   5
ATOM      5  C   LIG    1       23.702 -17.985   4.035  0.00  0.00    +0.036 A 
ATOM      6  C   LIG    1       24.505 -19.144   4.068  0.00  0.00    -0.029 A 
ATOM      7  C   LIG    1       25.984 -19.120   3.783  0.00  0.00    +0.045 C 
ATOM      8  C   LIG    1       23.930 -20.383   4.437  0.00  0.00    +0.005 A 
ATOM      9  C   LIG    1       22.576 -20.477   4.745  0.00  0.00    +0.000 A 
ATOM     10  C   LIG    1       21.778 -19.343   4.674  0.00  0.00    +0.002 A 
ATOM     11  C   LIG    1       22.335 -18.112   4.321  0.00  0.00    +0.023 A 
ENDBRANCH   2   5
BRANCH   1  12
ATOM     12  C   LIG    1       24.877 -14.355   3.711  0.00  0.00    +0.138 C 
ATOM     13  C   LIG    1       24.155 -13.077   3.267  0.00  0.00    +0.034 C 
BRANCH  12  14
ATOM     14  N   LIG    1       25.865 -14.867   2.722  0.00  0.00    -0.306 NA
ATOM     15  H   LIG    1       26.160 -15.798   3.019  0.00  0.00    +0.123 HD
BRANCH  14  16
ATOM     16  C   LIG    1       27.063 -14.021   2.612  0.00  0.00    +0.081 C 
BRANCH  16  18
ATOM     17  C   LIG    1       28.729 -12.760   4.021  0.00  0.00    +0.005 C 
ATOM     18  C   LIG    1       27.857 -14.008   3.924  0.00  0.00    +0.012 C 
ENDBRANCH  16  18
ENDBRANCH  14  16
ENDBRANCH  12  14
ENDBRANCH   1  12
TORSDOF 5
ENDMDL
MODEL 5
REMARK VINA RESULT:      -4.3      1.476      1.905
REMARK  Name = *****
REMARK                            x       y       z     vdW  Elec       q    Type
REMARK                         _______ _______ _______ _____ _____    ______ ____
ROOT
ATOM      1  C   LIG    1       25.388 -17.671   3.703  0.00  0.00    +0.234 C 
ATOM      2  N   LIG    1       25.596 -18.974   4.151  0.00  0.00    -0.284 N 
ATOM      3  H   LIG    1       26.559 -19.282   4.138  0.00  0.00    +0.155 HD
ATOM      4  O   LIG    1       24.313 -17.075   3.679  0.00  0.00    -0.274 OA
ENDROOT
BRANCH   2   5
ATOM      5  C   LIG    1       24.640 -19.862   4.710  0.00  0.00    +0.036 A 
ATOM      6  C   LIG    1       25.008 -20.684   5.796  0.00  0.00    -0.029 A 
ATOM      7  C   LIG    1       26.386 -20.667   6.402  0.00  0.00    +0.045 C 
ATOM      8  C   LIG    1       24.041 -21.526   6.394  0.00  0.00    +0.005 A 
ATOM      9  C   LIG    1       22.737 -21.572   5.908  0.00  0.00    +0.000 A 
ATOM     10  C   LIG    1       22.386 -20.792   4.814  0.00  0.00    +0.002 A 
ATOM     11  C   LIG    1       23.329 -19.949   4.221  0.00  0.00    +0.023 A 
ENDBRANCH   2   5
BRANCH   1  12
ATOM     12  C   LIG    1       26.709 -16.974   3.282  0.00  0.00    +0.138 C 
ATOM     13  C   LIG    1       27.862 -17.253   4.253  0.00  0.00    +0.034 C 
BRANCH  12  14
ATOM     14  N   LIG    1       26.493 -15.529   2.998  0.00  0.00    -0.306 NA
ATOM     15  H   LIG    1       26.645 -15.374   2.001  0.00  0.00    +0.123 HD
BRANCH  14  16
ATOM     16  C   LIG    1       27.410 -14.651   3.741  0.00  0.00    +0.081 C 
BRANCH  16  18
ATOM     17  C   LIG    1       25.143 -13.753   4.378  0.00  0.00    +0.005 C 
ATOM     18  C   LIG    1       26.640 -13.695   4.662  0.00  0.00    +0.012 C 
ENDBRANCH  16  18
ENDBRANCH  14  16
ENDBRANCH  12  14
ENDBRANCH   1  12
TORSDOF 5
ENDMDL
MODEL 6
REMARK VINA RESULT:      -4.3      1.465      6.007
REMARK  Name = *****
REMARK                            x       y       z     vdW  Elec       q    Type
REMARK                         _______ _______ _______ _____ _____    ______ ____
ROOT
ATOM      1  C   LIG    1       24.475 -18.154   3.758  0.00  0.00    +0.234 C 
ATOM      2  N   LIG    1       25.367 -17.094   3.611  0.00  0.00    -0.284 N 
ATOM      3  H   LIG    1       26.292 -17.355   3.294  0.00  0.00    +0.155 HD
ATOM      4  O   LIG    1       23.291 -18.067   4.081  0.00  0.00    -0.274 OA
ENDROOT
BRANCH   2   5
ATOM      5  C   LIG    1       25.099 -15.708   3.752  0.00  0.00    +0.036 A 
ATOM      6  C   LIG    1       26.172 -14.794   3.813  0.00  0.00    -0.029 A 
ATOM      7  C   LIG    1       27.614 -15.224   3.735  0.00  0.00    +0.045 C 
ATOM      8  C   LIG    1       25.906 -13.407   3.893  0.00  0.00    +0.005 A 
ATOM      9  C   LIG    1       24.598 -12.934   3.937  0.00  0.00    +0.000 A 
ATOM     10  C   LIG    1       23.542 -13.835   3.916  0.00  0.00    +0.002 A 
ATOM     11  C   LIG    1       23.791 -15.207   3.827  0.00  0.00    +0.023 A 
ENDBRANCH   2   5
BRANCH   1  12
ATOM     12  C   LIG    1       25.114 -19.519   3.391  0.00  0.00    +0.138 C 
ATOM     13  C   LIG    1       24.085 -20.653   3.311  0.00  0.00    +0.034 C 
BRANCH  12  14
ATOM     14  N   LIG    1       26.282 -19.823   4.263  0.00  0.00    -0.306 NA
ATOM     15  H   LIG    1       26.902 -20.455   3.755  0.00  0.00    +0.123 HD
BRANCH  14  16
ATOM     16  C   LIG    1       25.906 -20.472   5.528  0.00  0.00    +0.081 C 
BRANCH  16  18
ATOM     17  C   LIG    1       28.320 -19.855   5.903  0.00  0.00    +0.005 C 
ATOM     18  C   LIG    1       27.060 -20.433   6.538  0.00  0.00    +0.012 C 
ENDBRANCH  16  18
ENDBRANCH  14  16
ENDBRANCH  12  14
ENDBRANCH   1  12
TORSDOF 5
ENDMDL
MODEL 7
REMARK VINA RESULT:      -4.2      1.521      2.801
REMARK  Name = *****
REMARK                            x       y       z     vdW  Elec       q    Type
REMARK                         _______ _______ _______ _____ _____    ______ ____
ROOT
ATOM      1  C   LIG    1       25.566 -16.447   3.528  0.00  0.00    +0.234 C 
ATOM      2  N   LIG    1       24.449 -17.119   4.018  0.00  0.00    -0.284 N 
ATOM      3  H   LIG    1       23.678 -16.524   4.293  0.00  0.00    +0.155 HD
ATOM      4  O   LIG    1       26.593 -16.966   3.092  0.00  0.00    -0.274 OA
ENDROOT
BRANCH   2   5
ATOM      5  C   LIG    1       24.236 -18.521   4.074  0.00  0.00    +0.036 A 
ATOM      6  C   LIG    1       22.925 -19.019   4.225  0.00  0.00    -0.029 A 
ATOM      7  C   LIG    1       21.719 -18.123   4.332  0.00  0.00    +0.045 C 
ATOM      8  C   LIG    1       22.703 -20.416   4.222  0.00  0.00    +0.005 A 
ATOM      9  C   LIG    1       23.766 -21.307   4.095  0.00  0.00    +0.000 A 
ATOM     10  C   LIG    1       25.060 -20.816   3.986  0.00  0.00    +0.002 A 
ATOM     11  C   LIG    1       25.292 -19.439   3.978  0.00  0.00    +0.023 A 
ENDBRANCH   2   5
BRANCH   1  12
ATOM     12  C   LIG    1       25.369 -14.908   3.512  0.00  0.00    +0.138 C 
ATOM     13  C   LIG    1       23.915 -14.494   3.770  0.00  0.00    +0.034 C 
BRANCH  12  14
ATOM     14  N   LIG    1       25.965 -14.297   2.293  0.00  0.00    -0.306 NA
ATOM     15  H   LIG    1       26.432 -15.034   1.763  0.00  0.00    +0.123 HD
BRANCH  14  16
ATOM     16  C   LIG    1       26.957 -13.253   2.594  0.00  0.00    +0.081 C 
BRANCH  16  18
ATOM     17  C   LIG    1       28.950 -12.622   4.002  0.00  0.00    +0.005 C 
ATOM     18  C   LIG    1       27.890 -13.685   3.733  0.00  0.00    +0.012 C 
ENDBRANCH  16  18
ENDBRANCH  14  16
ENDBRANCH  12  14
ENDBRANCH   1  12
TORSDOF 5
ENDMDL
MODEL 8
REMARK VINA RESULT:      -4.0      1.613      5.865
REMARK  Name = *****
REMARK                            x       y       z     vdW  Elec       q    Type
REMARK                         _______ _______ _______ _____ _____    ______ ____
ROOT
ATOM      1  C   LIG    1       26.407 -17.702   3.924  0.00  0.00    +0.234 C 
ATOM      2  N   LIG    1       25.345 -16.846   3.642  0.00  0.00    -0.284 N 
ATOM      3  H   LIG    1       24.427 -17.264   3.720  0.00  0.00    +0.155 HD
ATOM      4  O   LIG    1       27.599 -17.399   3.940  0.00  0.00    -0.274 OA
ENDROOT
BRANCH   2   5
ATOM      5  C   LIG    1       25.401 -15.456   3.365  0.00  0.00    +0.036 A 
ATOM      6  C   LIG    1       24.356 -14.617   3.806  0.00  0.00    -0.029 A 
ATOM      7  C   LIG    1       23.163 -15.131   4.568  0.00  0.00    +0.045 C 
ATOM      8  C   LIG    1       24.439 -13.222   3.585  0.00  0.00    +0.005 A 
ATOM      9  C   LIG    1       25.527 -12.670   2.915  0.00  0.00    +0.000 A 
ATOM     10  C   LIG    1       26.536 -13.501   2.446  0.00  0.00    +0.002 A 
ATOM     11  C   LIG    1       26.471 -14.878   2.667  0.00  0.00    +0.023 A 
ENDBRANCH   2   5
BRANCH   1  12
ATOM     12  C   LIG    1       25.931 -19.129   4.305  0.00  0.00    +0.138 C 
ATOM     13  C   LIG    1       26.998 -19.927   5.064  0.00  0.00    +0.034 C 
BRANCH  12  14
ATOM     14  N   LIG    1       25.363 -19.844   3.129  0.00  0.00    -0.306 NA
ATOM     15  H   LIG    1       25.320 -19.188   2.348  0.00  0.00    +0.123 HD
BRANCH  14  16
ATOM     16  C   LIG    1       24.008 -20.362   3.367  0.00  0.00    +0.081 C 
BRANCH  16  18
ATOM     17  C   LIG    1       22.316 -18.821   4.422  0.00  0.00    +0.005 C 
ATOM     18  C   LIG    1       23.431 -19.828   4.684  0.00  0.00    +0.012 C 
ENDBRANCH  16  18
ENDBRANCH  14  16
ENDBRANCH  12  14
ENDBRANCH   1  12
TORSDOF 5
ENDMDL
MODEL 9
REMARK VINA RESULT:      -3.6      1.831      6.197
REMARK  Name = *****
REMARK                            x       y       z     vdW  Elec       q    Type
REMARK                         _______ _______ _______ _____ _____    ______ ____
ROOT
ATOM      1  C   LIG    1       23.299 -17.678   4.173  0.00  0.00    +0.234 C 
ATOM      2  N   LIG    1       24.387 -16.971   3.665  0.00  0.00    -0.284 N 
ATOM      3  H   LIG    1       25.034 -17.520   3.115  0.00  0.00    +0.155 HD
ATOM      4  O   LIG    1       22.367 -17.207   4.824  0.00  0.00    -0.274 OA
ENDROOT
BRANCH   2   5
ATOM      5  C   LIG    1       24.628 -15.575   3.744  0.00  0.00    +0.036 A 
ATOM      6  C   LIG    1       25.951 -15.092   3.661  0.00  0.00    -0.029 A 
ATOM      7  C   LIG    1       27.141 -15.999   3.491  0.00  0.00    +0.045 C 
ATOM      8  C   LIG    1       26.188 -13.698   3.679  0.00  0.00    +0.005 A 
ATOM      9  C   LIG    1       25.135 -12.796   3.802  0.00  0.00    +0.000 A 
ATOM     10  C   LIG    1       23.836 -13.273   3.924  0.00  0.00    +0.002 A 
ATOM     11  C   LIG    1       23.587 -14.647   3.897  0.00  0.00    +0.023 A 
ENDBRANCH   2   5
BRANCH   1  12
ATOM     12  C   LIG    1       23.326 -19.176   3.768  0.00  0.00    +0.138 C 
ATOM     13  C   LIG    1       22.255 -20.004   4.488  0.00  0.00    +0.034 C 
BRANCH  12  14
ATOM     14  N   LIG    1       24.699 -19.741   3.872  0.00  0.00    -0.306 NA
ATOM     15  H   LIG    1       25.041 -19.923   2.927  0.00  0.00    +0.123 HD
BRANCH  14  16
ATOM     16  C   LIG    1       24.750 -21.002   4.626  0.00  0.00    +0.081 C 
BRANCH  16  18
ATOM     17  C   LIG    1       24.087 -20.999   7.058  0.00  0.00    +0.005 C 
ATOM     18  C   LIG    1       25.223 -20.769   6.067  0.00  0.00    +0.012 C 
ENDBRANCH  16  18
ENDBRANCH  14  16
ENDBRANCH  12  14
ENDBRANCH   1  12
TORSDOF 5
ENDMDL
