MODEL 1
REMARK VINA RESULT:      -6.4      0.000      0.000
REMARK  Name = *****
REMARK                            x       y       z     vdW  Elec       q    Type
REMARK                         _______ _______ _______ _____ _____    ______ ____
ROOT
ATOM      1  C   LIG    1       23.598 -21.992   6.765  0.00  0.00    +0.053 C 
ENDROOT
BRANCH   1   2
ATOM      2  C   LIG    1       23.638 -20.925   5.693  0.00  0.00    -0.046 A 
ATOM      3  C   LIG    1       22.602 -19.983   5.596  0.00  0.00    +0.003 A 
ATOM      4  C   LIG    1       22.622 -19.006   4.599  0.00  0.00    +0.000 A 
ATOM      5  C   LIG    1       23.675 -18.955   3.691  0.00  0.00    +0.000 A 
ATOM      6  C   LIG    1       24.706 -19.891   3.771  0.00  0.00    +0.000 A 
ATOM      7  C   LIG    1       24.684 -20.873   4.764  0.00  0.00    +0.003 A 
ENDBRANCH   1   2
BRANCH   1   9
ATOM      8  C   LIG    1       25.421 -23.773   7.055  0.00  0.00    +0.024 C 
ATOM      9  C   LIG    1       24.133 -23.376   6.333  0.00  0.00    +0.052 C 
BRANCH   9  10
ATOM     10  N   LIG    1       23.106 -24.399   6.596  0.00  0.00    -0.327 NA
ATOM     11  H   LIG    1       22.392 -24.012   7.213  0.00  0.00    +0.118 HD
ATOM     12  H   LIG    1       22.626 -24.635   5.729  0.00  0.00    +0.118 HD
ENDBRANCH   9  10
ENDBRANCH   1   9
TORSDOF 3
ENDMDL
MODEL 2
REMARK VINA RESULT:      -6.4      0.012      1.525
REMARK  Name = *****
REMARK                            x       y       z     vdW  Elec       q    Type
REMARK                         _______ _______ _______ _____ _____    ______ ____
ROOT
ATOM      1  C   LIG    1       23.609 -21.990   6.767  0.00  0.00    +0.053 C 
ENDROOT
BRANCH   1   2
ATOM      2  C   LIG    1       23.623 -20.934   5.684  0.00  0.00    -0.046 A 
ATOM      3  C   LIG    1       24.685 -20.875   4.769  0.00  0.00    +0.003 A 
ATOM      4  C   LIG    1       24.714 -19.892   3.777  0.00  0.00    +0.000 A 
ATOM      5  C   LIG    1       23.684 -18.962   3.684  0.00  0.00    +0.000 A 
ATOM      6  C   LIG    1       22.627 -19.004   4.594  0.00  0.00    +0.000 A 
ATOM      7  C   LIG    1       22.600 -19.982   5.591  0.00  0.00    +0.003 A 
ENDBRANCH   1   2
BRANCH   1   9
ATOM      8  C   LIG    1       25.418 -23.786   7.051  0.00  0.00    +0.024 C 
ATOM      9  C   LIG    1       24.130 -23.379   6.335  0.00  0.00    +0.052 C 
BRANCH   9  10
ATOM     10  N   LIG    1       23.096 -24.393   6.604  0.00  0.00    -0.327 NA
ATOM     11  H   LIG    1       23.270 -25.217   6.029  0.00  0.00    +0.118 HD
ATOM     12  H   LIG    1       23.168 -24.709   7.570  0.00  0.00    +0.118 HD
ENDBRANCH   9  10
ENDBRANCH   1   9
TORSDOF 3
ENDMDL
MODEL 3
REMARK VINA RESULT:      -6.1      2.503      4.074
REMARK  Name = *****
REMARK                            x       y       z     vdW  Elec       q    Type
REMARK                         _______ _______ _______ _____ _____    ______ ____
ROOT
ATOM      1  C   LIG    1       24.287 -20.694   4.954  0.00  0.00    +0.053 C 
ENDROOT
BRANCH   1   2
ATOM      2  C   LIG    1       25.312 -20.615   6.064  0.00  0.00    -0.046 A 
ATOM      3  C   LIG    1       24.922 -20.802   7.399  0.00  0.00    +0.003 A 
ATOM      4  C   LIG    1       25.859 -20.715   8.432  0.00  0.00    +0.000 A 
ATOM      5  C   LIG    1       27.192 -20.444   8.145  0.00  0.00    +0.000 A 
ATOM      6  C   LIG    1       27.591 -20.246   6.823  0.00  0.00    +0.000 A 
ATOM      7  C   LIG    1       26.654 -20.327   5.789  0.00  0.00    +0.003 A 
ENDBRANCH   1   2
BRANCH   1   9
ATOM      8  C   LIG    1       22.378 -18.995   4.732  0.00  0.00    +0.024 C 
ATOM      9  C   LIG    1       22.848 -20.307   5.362  0.00  0.00    +0.052 C 
BRANCH   9  10
ATOM     10  N   LIG    1       21.923 -21.382   4.965  0.00  0.00    -0.327 NA
ATOM     11  H   LIG    1       20.962 -21.076   5.113  0.00  0.00    +0.118 HD
ATOM     12  H   LIG    1       22.007 -21.556   3.964  0.00  0.00    +0.118 HD
ENDBRANCH   9  10
ENDBRANCH   1   9
TORSDOF 3
ENDMDL
MODEL 4
REMARK VINA RESULT:      -6.1      4.723      5.618
REMARK  Name = *****
REMARK                            x       y       z     vdW  Elec       q    Type
REMARK                         _______ _______ _______ _____ _____    ______ ____
ROOT
ATOM      1  C   LIG    1       28.711 -20.223   5.995  0.00  0.00    +0.053 C 
ENDROOT
BRANCH   1   2
ATOM      2  C   LIG    1       27.338 -20.401   6.605  0.00  0.00    -0.046 A 
ATOM      3  C   LIG    1       27.190 -20.486   7.998  0.00  0.00    +0.003 A 
ATOM      4  C   LIG    1       25.928 -20.667   8.568  0.00  0.00    +0.000 A 
ATOM      5  C   LIG    1       24.802 -20.762   7.758  0.00  0.00    +0.000 A 
ATOM      6  C   LIG    1       24.936 -20.689   6.371  0.00  0.00    +0.000 A 
ATOM      7  C   LIG    1       26.199 -20.514   5.799  0.00  0.00    +0.003 A 
ENDBRANCH   1   2
BRANCH   1   9
ATOM      8  C   LIG    1       30.859 -19.232   6.986  0.00  0.00    +0.024 C 
ATOM      9  C   LIG    1       29.462 -18.946   6.433  0.00  0.00    +0.052 C 
BRANCH   9  10
ATOM     10  N   LIG    1       29.584 -18.034   5.283  0.00  0.00    -0.327 NA
ATOM     11  H   LIG    1       28.667 -17.900   4.857  0.00  0.00    +0.118 HD
ATOM     12  H   LIG    1       29.878 -17.112   5.605  0.00  0.00    +0.118 HD
ENDBRANCH   9  10
ENDBRANCH   1   9
TORSDOF 3
ENDMDL
MODEL 5
REMARK VINA RESULT:      -6.0      4.738      5.622
REMARK  Name = *****
REMARK                            x       y       z     vdW  Elec       q    Type
REMARK                         _______ _______ _______ _____ _____    ______ ____
ROOT
ATOM      1  C   LIG    1       28.740 -20.228   6.020  0.00  0.00    +0.053 C 
ENDROOT
BRANCH   1   2
ATOM      2  C   LIG    1       27.368 -20.422   6.628  0.00  0.00    -0.046 A 
ATOM      3  C   LIG    1       26.236 -20.508   5.804  0.00  0.00    +0.003 A 
ATOM      4  C   LIG    1       24.964 -20.669   6.358  0.00  0.00    +0.000 A 
ATOM      5  C   LIG    1       24.808 -20.750   7.737  0.00  0.00    +0.000 A 
ATOM      6  C   LIG    1       25.924 -20.656   8.569  0.00  0.00    +0.000 A 
ATOM      7  C   LIG    1       27.196 -20.488   8.016  0.00  0.00    +0.003 A 
ENDBRANCH   1   2
BRANCH   1   9
ATOM      8  C   LIG    1       30.876 -19.212   7.013  0.00  0.00    +0.024 C 
ATOM      9  C   LIG    1       29.476 -18.942   6.458  0.00  0.00    +0.052 C 
BRANCH   9  10
ATOM     10  N   LIG    1       29.588 -18.029   5.308  0.00  0.00    -0.327 NA
ATOM     11  H   LIG    1       28.723 -17.498   5.211  0.00  0.00    +0.118 HD
ATOM     12  H   LIG    1       30.319 -17.340   5.486  0.00  0.00    +0.118 HD
ENDBRANCH   9  10
ENDBRANCH   1   9
TORSDOF 3
ENDMDL
MODEL 6
REMARK VINA RESULT:      -6.0      1.747      2.334
REMARK  Name = *****
REMARK                            x       y       z     vdW  Elec       q    Type
REMARK                         _______ _______ _______ _____ _____    ______ ____
ROOT
ATOM      1  C   LIG    1       25.902 -21.202   6.576  0.00  0.00    +0.053 C 
ENDROOT
BRANCH   1   2
ATOM      2  C   LIG    1       24.877 -20.503   5.709  0.00  0.00    -0.046 A 
ATOM      3  C   LIG    1       25.258 -19.935   4.484  0.00  0.00    +0.003 A 
ATOM      4  C   LIG    1       24.322 -19.273   3.686  0.00  0.00    +0.000 A 
ATOM      5  C   LIG    1       22.998 -19.173   4.099  0.00  0.00    +0.000 A 
ATOM      6  C   LIG    1       22.608 -19.725   5.319  0.00  0.00    +0.000 A 
ATOM      7  C   LIG    1       23.544 -20.382   6.122  0.00  0.00    +0.003 A 
ENDBRANCH   1   2
BRANCH   1   9
ATOM      8  C   LIG    1       25.776 -23.642   7.356  0.00  0.00    +0.024 C 
ATOM      9  C   LIG    1       25.321 -22.203   7.600  0.00  0.00    +0.052 C 
BRANCH   9  10
ATOM     10  N   LIG    1       25.726 -21.800   8.958  0.00  0.00    -0.327 NA
ATOM     11  H   LIG    1       26.732 -21.925   9.063  0.00  0.00    +0.118 HD
ATOM     12  H   LIG    1       25.555 -20.803   9.085  0.00  0.00    +0.118 HD
ENDBRANCH   9  10
ENDBRANCH   1   9
TORSDOF 3
ENDMDL
MODEL 7
REMARK VINA RESULT:      -6.0      2.601      3.671
REMARK  Name = *****
REMARK                            x       y       z     vdW  Elec       q    Type
REMARK                         _______ _______ _______ _____ _____    ______ ____
ROOT
ATOM      1  C   LIG    1       23.664 -24.601   6.580  0.00  0.00    +0.053 C 
ENDROOT
BRANCH   1   2
ATOM      2  C   LIG    1       24.163 -23.232   6.984  0.00  0.00    -0.046 A 
ATOM      3  C   LIG    1       25.477 -23.068   7.448  0.00  0.00    +0.003 A 
ATOM      4  C   LIG    1       25.942 -21.810   7.839  0.00  0.00    +0.000 A 
ATOM      5  C   LIG    1       25.103 -20.703   7.768  0.00  0.00    +0.000 A 
ATOM      6  C   LIG    1       23.791 -20.854   7.317  0.00  0.00    +0.000 A 
ATOM      7  C   LIG    1       23.324 -22.112   6.932  0.00  0.00    +0.003 A 
ENDBRANCH   1   2
BRANCH   1   9
ATOM      8  C   LIG    1       24.340 -26.991   5.938  0.00  0.00    +0.024 C 
ATOM      9  C   LIG    1       24.714 -25.509   5.902  0.00  0.00    +0.052 C 
BRANCH   9  10
ATOM     10  N   LIG    1       24.882 -25.095   4.498  0.00  0.00    -0.327 NA
ATOM     11  H   LIG    1       24.533 -25.830   3.883  0.00  0.00    +0.118 HD
ATOM     12  H   LIG    1       24.303 -24.278   4.309  0.00  0.00    +0.118 HD
ENDBRANCH   9  10
ENDBRANCH   1   9
TORSDOF 3
ENDMDL
MODEL 8
REMARK VINA RESULT:      -6.0      1.871      2.035
REMARK  Name = *****
REMARK                            x       y       z     vdW  Elec       q    Type
REMARK                         _______ _______ _______ _____ _____    ______ ____
ROOT
ATOM      1  C   LIG    1       25.983 -21.045   6.720  0.00  0.00    +0.053 C 
ENDROOT
BRANCH   1   2
ATOM      2  C   LIG    1       24.950 -20.430   5.801  0.00  0.00    -0.046 A 
ATOM      3  C   LIG    1       23.600 -20.395   6.179  0.00  0.00    +0.003 A 
ATOM      4  C   LIG    1       22.638 -19.844   5.329  0.00  0.00    +0.000 A 
ATOM      5  C   LIG    1       23.012 -19.321   4.097  0.00  0.00    +0.000 A 
ATOM      6  C   LIG    1       24.350 -19.358   3.704  0.00  0.00    +0.000 A 
ATOM      7  C   LIG    1       25.313 -19.914   4.551  0.00  0.00    +0.003 A 
ENDBRANCH   1   2
BRANCH   1   9
ATOM      8  C   LIG    1       25.780 -23.490   7.469  0.00  0.00    +0.024 C 
ATOM      9  C   LIG    1       25.422 -22.033   7.767  0.00  0.00    +0.052 C 
BRANCH   9  10
ATOM     10  N   LIG    1       25.942 -21.679   9.099  0.00  0.00    -0.327 NA
ATOM     11  H   LIG    1       26.448 -20.796   9.042  0.00  0.00    +0.118 HD
ATOM     12  H   LIG    1       25.166 -21.514   9.739  0.00  0.00    +0.118 HD
ENDBRANCH   9  10
ENDBRANCH   1   9
TORSDOF 3
ENDMDL
MODEL 9
REMARK VINA RESULT:      -5.9      3.507      4.832
REMARK  Name = *****
REMARK                            x       y       z     vdW  Elec       q    Type
REMARK                         _______ _______ _______ _____ _____    ______ ____
ROOT
ATOM      1  C   LIG    1       24.831 -21.729   7.584  0.00  0.00    +0.053 C 
ENDROOT
BRANCH   1   2
ATOM      2  C   LIG    1       24.797 -23.160   7.094  0.00  0.00    -0.046 A 
ATOM      3  C   LIG    1       23.577 -23.753   6.734  0.00  0.00    +0.003 A 
ATOM      4  C   LIG    1       23.534 -25.079   6.297  0.00  0.00    +0.000 A 
ATOM      5  C   LIG    1       24.705 -25.825   6.212  0.00  0.00    +0.000 A 
ATOM      6  C   LIG    1       25.923 -25.250   6.576  0.00  0.00    +0.000 A 
ATOM      7  C   LIG    1       25.966 -23.926   7.020  0.00  0.00    +0.003 A 
ENDBRANCH   1   2
BRANCH   1   9
ATOM      8  C   LIG    1       26.977 -20.391   7.153  0.00  0.00    +0.024 C 
ATOM      9  C   LIG    1       26.194 -21.258   8.139  0.00  0.00    +0.052 C 
BRANCH   9  10
ATOM     10  N   LIG    1       25.977 -20.491   9.378  0.00  0.00    -0.327 NA
ATOM     11  H   LIG    1       25.682 -21.123  10.122  0.00  0.00    +0.118 HD
ATOM     12  H   LIG    1       26.859 -20.087   9.690  0.00  0.00    +0.118 HD
ENDBRANCH   9  10
ENDBRANCH   1   9
TORSDOF 3
ENDMDL
