MODEL 1
REMARK VINA RESULT:      -4.8      0.000      0.000
REMARK  Name = *****
REMARK                            x       y       z     vdW  Elec       q    Type
REMARK                         _______ _______ _______ _____ _____    ______ ____
ROOT
ATOM      1  C   LIG    1       25.012 -19.026   3.915  0.00  0.00    +0.087 C 
ATOM      2  N   LIG    1       23.976 -19.784   3.630  0.00  0.00    -0.089 NA
ENDROOT
BRANCH   1   3
ATOM      3  C   LIG    1       25.093 -17.513   3.741  0.00  0.00    -0.001 A 
ATOM      4  C   LIG    1       26.345 -17.005   3.314  0.00  0.00    +0.010 A 
ATOM      5  C   LIG    1       26.614 -15.644   3.310  0.00  0.00    +0.013 A 
ATOM      6  C   LIG    1       25.647 -14.709   3.654  0.00  0.00    +0.055 A 
ATOM      7  C   LIG    1       24.361 -15.178   3.971  0.00  0.00    +0.013 A 
ATOM      8  C   LIG    1       24.092 -16.570   4.012  0.00  0.00    +0.010 A 
BRANCH   6   9
ATOM      9  C   LIG    1       26.071 -13.262   3.696  0.00  0.00    +0.417 C 
ATOM     10  F   LIG    1       26.436 -12.872   4.951  0.00  0.00    -0.166 F 
ATOM     11  F   LIG    1       25.052 -12.424   3.343  0.00  0.00    -0.166 F 
ATOM     12  F   LIG    1       27.113 -12.949   2.884  0.00  0.00    -0.166 F 
ENDBRANCH   6   9
ENDBRANCH   1   3
BRANCH   1  13
ATOM     13  C   LIG    1       26.269 -19.768   4.436  0.00  0.00    +0.059 C 
BRANCH  13  14
ATOM     14  C   LIG    1       26.248 -20.596   5.736  0.00  0.00    +0.009 C 
BRANCH  14  15
ATOM     15  C   LIG    1       27.233 -20.326   6.891  0.00  0.00    +0.028 C 
BRANCH  15  16
ATOM     16  C   LIG    1       28.740 -20.464   6.667  0.00  0.00    +0.159 C 
BRANCH  16  18
ATOM     17  C   LIG    1       29.475 -18.399   5.726  0.00  0.00    +0.193 C 
ATOM     18  O   LIG    1       29.470 -19.261   6.849  0.00  0.00    -0.383 OA
ENDBRANCH  16  18
ENDBRANCH  15  16
ENDBRANCH  14  15
ENDBRANCH  13  14
ENDBRANCH   1  13
BRANCH   2  19
ATOM     19  O   LIG    1       22.864 -19.035   3.251  0.00  0.00    -0.392 OA
BRANCH  19  20
ATOM     20  C   LIG    1       21.852 -19.172   4.246  0.00  0.00    +0.277 C 
BRANCH  20  21
ATOM     21  C   LIG    1       22.312 -20.156   5.327  0.00  0.00    +0.121 C 
BRANCH  21  22
ATOM     22  N   LIG    1       21.982 -21.546   5.005  0.00  0.00    -0.327 NA
ATOM     23  H   LIG    1       22.829 -22.097   4.889  0.00  0.00    +0.118 HD
ATOM     24  H   LIG    1       21.463 -21.580   4.131  0.00  0.00    +0.118 HD
ENDBRANCH  21  22
ENDBRANCH  20  21
ENDBRANCH  19  20
ENDBRANCH   2  19
TORSDOF 11
ENDMDL
MODEL 2
REMARK VINA RESULT:      -4.7      1.973      3.954
REMARK  Name = *****
REMARK                            x       y       z     vdW  Elec       q    Type
REMARK                         _______ _______ _______ _____ _____    ______ ____
ROOT
ATOM      1  C   LIG    1       25.327 -19.239   3.760  0.00  0.00    +0.087 C 
ATOM      2  N   LIG    1       26.138 -19.928   4.530  0.00  0.00    -0.089 NA
ENDROOT
BRANCH   1   3
ATOM      3  C   LIG    1       25.267 -17.718   3.652  0.00  0.00    -0.001 A 
ATOM      4  C   LIG    1       26.469 -17.077   3.262  0.00  0.00    +0.010 A 
ATOM      5  C   LIG    1       26.610 -15.699   3.320  0.00  0.00    +0.013 A 
ATOM      6  C   LIG    1       25.557 -14.874   3.694  0.00  0.00    +0.055 A 
ATOM      7  C   LIG    1       24.318 -15.474   3.974  0.00  0.00    +0.013 A 
ATOM      8  C   LIG    1       24.180 -16.885   3.953  0.00  0.00    +0.010 A 
BRANCH   6   9
ATOM      9  C   LIG    1       25.843 -13.397   3.803  0.00  0.00    +0.417 C 
ATOM     10  F   LIG    1       26.246 -13.045   5.058  0.00  0.00    -0.166 F 
ATOM     11  F   LIG    1       24.729 -12.645   3.560  0.00  0.00    -0.166 F 
ATOM     12  F   LIG    1       26.799 -12.936   2.955  0.00  0.00    -0.166 F 
ENDBRANCH   6   9
ENDBRANCH   1   3
BRANCH   1  13
ATOM     13  C   LIG    1       24.318 -20.068   2.926  0.00  0.00    +0.059 C 
BRANCH  13  14
ATOM     14  C   LIG    1       23.518 -21.235   3.537  0.00  0.00    +0.009 C 
BRANCH  14  15
ATOM     15  C   LIG    1       22.545 -21.029   4.715  0.00  0.00    +0.028 C 
BRANCH  15  16
ATOM     16  C   LIG    1       22.871 -20.017   5.816  0.00  0.00    +0.159 C 
BRANCH  16  18
ATOM     17  C   LIG    1       24.446 -21.303   7.062  0.00  0.00    +0.193 C 
ATOM     18  O   LIG    1       23.217 -20.601   7.062  0.00  0.00    -0.383 OA
ENDBRANCH  16  18
ENDBRANCH  15  16
ENDBRANCH  14  15
ENDBRANCH  13  14
ENDBRANCH   1  13
BRANCH   2  19
ATOM     19  O   LIG    1       27.067 -19.117   5.179  0.00  0.00    -0.392 OA
BRANCH  19  20
ATOM     20  C   LIG    1       27.918 -19.934   5.979  0.00  0.00    +0.277 C 
BRANCH  20  21
ATOM     21  C   LIG    1       29.298 -19.282   6.108  0.00  0.00    +0.121 C 
BRANCH  21  22
ATOM     22  N   LIG    1       29.422 -18.054   5.318  0.00  0.00    -0.327 NA
ATOM     23  H   LIG    1       29.529 -18.273   4.331  0.00  0.00    +0.118 HD
ATOM     24  H   LIG    1       30.246 -17.538   5.616  0.00  0.00    +0.118 HD
ENDBRANCH  21  22
ENDBRANCH  20  21
ENDBRANCH  19  20
ENDBRANCH   2  19
TORSDOF 11
ENDMDL
MODEL 3
REMARK VINA RESULT:      -4.2      4.078      6.681
REMARK  Name = *****
REMARK                            x       y       z     vdW  Elec       q    Type
REMARK                         _______ _______ _______ _____ _____    ______ ____
ROOT
ATOM      1  C   LIG    1       27.183 -17.259   3.932  0.00  0.00    +0.087 C 
ATOM      2  N   LIG    1       28.438 -17.437   4.282  0.00  0.00    -0.089 NA
ENDROOT
BRANCH   1   3
ATOM      3  C   LIG    1       26.062 -18.285   4.060  0.00  0.00    -0.001 A 
ATOM      4  C   LIG    1       24.772 -17.845   3.670  0.00  0.00    +0.010 A 
ATOM      5  C   LIG    1       23.638 -18.602   3.922  0.00  0.00    +0.013 A 
ATOM      6  C   LIG    1       23.718 -19.861   4.504  0.00  0.00    +0.055 A 
ATOM      7  C   LIG    1       24.993 -20.373   4.796  0.00  0.00    +0.013 A 
ATOM      8  C   LIG    1       26.153 -19.587   4.574  0.00  0.00    +0.010 A 
BRANCH   6   9
ATOM      9  C   LIG    1       22.418 -20.562   4.810  0.00  0.00    +0.417 C 
ATOM     10  F   LIG    1       22.161 -21.571   3.928  0.00  0.00    -0.166 F 
ATOM     11  F   LIG    1       21.349 -19.718   4.709  0.00  0.00    -0.166 F 
ATOM     12  F   LIG    1       22.345 -21.115   6.048  0.00  0.00    -0.166 F 
ENDBRANCH   6   9
ENDBRANCH   1   3
BRANCH   1  13
ATOM     13  C   LIG    1       26.847 -15.888   3.295  0.00  0.00    +0.059 C 
BRANCH  13  14
ATOM     14  C   LIG    1       27.123 -14.558   4.026  0.00  0.00    +0.009 C 
BRANCH  14  15
ATOM     15  C   LIG    1       25.981 -13.661   4.544  0.00  0.00    +0.028 C 
BRANCH  15  16
ATOM     16  C   LIG    1       24.532 -13.950   4.146  0.00  0.00    +0.159 C 
BRANCH  16  18
ATOM     17  C   LIG    1       24.863 -12.752   2.110  0.00  0.00    +0.193 C 
ATOM     18  O   LIG    1       23.998 -13.046   3.191  0.00  0.00    -0.383 OA
ENDBRANCH  16  18
ENDBRANCH  15  16
ENDBRANCH  14  15
ENDBRANCH  13  14
ENDBRANCH   1  13
BRANCH   2  19
ATOM     19  O   LIG    1       28.639 -18.658   4.922  0.00  0.00    -0.392 OA
BRANCH  19  20
ATOM     20  C   LIG    1       29.471 -18.453   6.061  0.00  0.00    +0.277 C 
BRANCH  20  21
ATOM     21  C   LIG    1       29.405 -19.674   6.984  0.00  0.00    +0.121 C 
BRANCH  21  22
ATOM     22  N   LIG    1       28.669 -20.794   6.391  0.00  0.00    -0.327 NA
ATOM     23  H   LIG    1       28.576 -21.555   7.058  0.00  0.00    +0.118 HD
ATOM     24  H   LIG    1       29.176 -21.145   5.582  0.00  0.00    +0.118 HD
ENDBRANCH  21  22
ENDBRANCH  20  21
ENDBRANCH  19  20
ENDBRANCH   2  19
TORSDOF 11
ENDMDL
MODEL 4
REMARK VINA RESULT:      -4.1      2.014      4.396
REMARK  Name = *****
REMARK                            x       y       z     vdW  Elec       q    Type
REMARK                         _______ _______ _______ _____ _____    ______ ____
ROOT
ATOM      1  C   LIG    1       26.165 -18.102   3.769  0.00  0.00    +0.087 C 
ATOM      2  N   LIG    1       27.200 -18.705   4.311  0.00  0.00    -0.089 NA
ENDROOT
BRANCH   1   3
ATOM      3  C   LIG    1       25.946 -16.595   3.687  0.00  0.00    -0.001 A 
ATOM      4  C   LIG    1       24.654 -16.136   4.045  0.00  0.00    +0.010 A 
ATOM      5  C   LIG    1       24.261 -14.825   3.824  0.00  0.00    +0.013 A 
ATOM      6  C   LIG    1       25.137 -13.879   3.308  0.00  0.00    +0.055 A 
ATOM      7  C   LIG    1       26.460 -14.277   3.052  0.00  0.00    +0.013 A 
ATOM      8  C   LIG    1       26.856 -15.625   3.241  0.00  0.00    +0.010 A 
BRANCH   6   9
ATOM      9  C   LIG    1       24.582 -12.504   3.030  0.00  0.00    +0.417 C 
ATOM     10  F   LIG    1       25.498 -11.697   2.419  0.00  0.00    -0.166 F 
ATOM     11  F   LIG    1       24.240 -11.852   4.180  0.00  0.00    -0.166 F 
ATOM     12  F   LIG    1       23.475 -12.484   2.243  0.00  0.00    -0.166 F 
ENDBRANCH   6   9
ENDBRANCH   1   3
BRANCH   1  13
ATOM     13  C   LIG    1       25.060 -19.031   3.207  0.00  0.00    +0.059 C 
BRANCH  13  14
ATOM     14  C   LIG    1       24.762 -20.412   3.824  0.00  0.00    +0.009 C 
BRANCH  14  15
ATOM     15  C   LIG    1       24.385 -20.578   5.310  0.00  0.00    +0.028 C 
BRANCH  15  16
ATOM     16  C   LIG    1       23.026 -20.091   5.818  0.00  0.00    +0.159 C 
BRANCH  16  18
ATOM     17  C   LIG    1       21.898 -18.508   4.437  0.00  0.00    +0.193 C 
ATOM     18  O   LIG    1       22.067 -19.866   4.797  0.00  0.00    -0.383 OA
ENDBRANCH  16  18
ENDBRANCH  15  16
ENDBRANCH  14  15
ENDBRANCH  13  14
ENDBRANCH   1  13
BRANCH   2  19
ATOM     19  O   LIG    1       28.184 -17.805   4.714  0.00  0.00    -0.392 OA
BRANCH  19  20
ATOM     20  C   LIG    1       29.110 -18.478   5.562  0.00  0.00    +0.277 C 
BRANCH  20  21
ATOM     21  C   LIG    1       28.439 -19.696   6.206  0.00  0.00    +0.121 C 
BRANCH  21  22
ATOM     22  N   LIG    1       29.382 -20.783   6.483  0.00  0.00    -0.327 NA
ATOM     23  H   LIG    1       28.901 -21.575   6.900  0.00  0.00    +0.118 HD
ATOM     24  H   LIG    1       30.088 -20.462   7.142  0.00  0.00    +0.118 HD
ENDBRANCH  21  22
ENDBRANCH  20  21
ENDBRANCH  19  20
ENDBRANCH   2  19
TORSDOF 11
ENDMDL
MODEL 5
REMARK VINA RESULT:      -4.0      2.003      4.380
REMARK  Name = *****
REMARK                            x       y       z     vdW  Elec       q    Type
REMARK                         _______ _______ _______ _____ _____    ______ ____
ROOT
ATOM      1  C   LIG    1       25.832 -19.188   3.936  0.00  0.00    +0.087 C 
ATOM      2  N   LIG    1       26.405 -19.999   4.798  0.00  0.00    -0.089 NA
ENDROOT
BRANCH   1   3
ATOM      3  C   LIG    1       26.188 -17.722   3.709  0.00  0.00    -0.001 A 
ATOM      4  C   LIG    1       27.503 -17.340   4.071  0.00  0.00    +0.010 A 
ATOM      5  C   LIG    1       27.891 -16.009   4.106  0.00  0.00    +0.013 A 
ATOM      6  C   LIG    1       27.031 -14.990   3.719  0.00  0.00    +0.055 A 
ATOM      7  C   LIG    1       25.757 -15.347   3.245  0.00  0.00    +0.013 A 
ATOM      8  C   LIG    1       25.344 -16.703   3.243  0.00  0.00    +0.010 A 
BRANCH   6   9
ATOM      9  C   LIG    1       27.526 -13.573   3.875  0.00  0.00    +0.417 C 
ATOM     10  F   LIG    1       28.887 -13.498   3.815  0.00  0.00    -0.166 F 
ATOM     11  F   LIG    1       27.191 -13.050   5.090  0.00  0.00    -0.166 F 
ATOM     12  F   LIG    1       27.057 -12.699   2.947  0.00  0.00    -0.166 F 
ENDBRANCH   6   9
ENDBRANCH   1   3
BRANCH   1  13
ATOM     13  C   LIG    1       24.662 -19.788   3.118  0.00  0.00    +0.059 C 
BRANCH  13  14
ATOM     14  C   LIG    1       23.914 -21.057   3.572  0.00  0.00    +0.009 C 
BRANCH  14  15
ATOM     15  C   LIG    1       22.763 -21.003   4.597  0.00  0.00    +0.028 C 
BRANCH  15  16
ATOM     16  C   LIG    1       22.829 -20.034   5.779  0.00  0.00    +0.159 C 
BRANCH  16  18
ATOM     17  C   LIG    1       21.791 -18.582   4.197  0.00  0.00    +0.193 C 
ATOM     18  O   LIG    1       22.312 -18.742   5.504  0.00  0.00    -0.383 OA
ENDBRANCH  16  18
ENDBRANCH  15  16
ENDBRANCH  14  15
ENDBRANCH  13  14
ENDBRANCH   1  13
BRANCH   2  19
ATOM     19  O   LIG    1       27.499 -19.410   5.429  0.00  0.00    -0.392 OA
BRANCH  19  20
ATOM     20  C   LIG    1       27.993 -20.301   6.426  0.00  0.00    +0.277 C 
BRANCH  20  21
ATOM     21  C   LIG    1       29.370 -19.833   6.907  0.00  0.00    +0.121 C 
BRANCH  21  22
ATOM     22  N   LIG    1       29.475 -18.375   6.998  0.00  0.00    -0.327 NA
ATOM     23  H   LIG    1       29.478 -17.958   6.071  0.00  0.00    +0.118 HD
ATOM     24  H   LIG    1       30.346 -18.123   7.459  0.00  0.00    +0.118 HD
ENDBRANCH  21  22
ENDBRANCH  20  21
ENDBRANCH  19  20
ENDBRANCH   2  19
TORSDOF 11
ENDMDL
MODEL 6
REMARK VINA RESULT:      -3.6      3.998      5.448
REMARK  Name = *****
REMARK                            x       y       z     vdW  Elec       q    Type
REMARK                         _______ _______ _______ _____ _____    ______ ____
ROOT
ATOM      1  C   LIG    1       26.938 -15.893   3.548  0.00  0.00    +0.087 C 
ATOM      2  N   LIG    1       26.998 -14.756   2.892  0.00  0.00    -0.089 NA
ENDROOT
BRANCH   1   3
ATOM      3  C   LIG    1       25.752 -16.854   3.572  0.00  0.00    -0.001 A 
ATOM      4  C   LIG    1       24.520 -16.306   4.005  0.00  0.00    +0.010 A 
ATOM      5  C   LIG    1       23.419 -17.108   4.265  0.00  0.00    +0.013 A 
ATOM      6  C   LIG    1       23.448 -18.479   4.045  0.00  0.00    +0.055 A 
ATOM      7  C   LIG    1       24.621 -19.035   3.506  0.00  0.00    +0.013 A 
ATOM      8  C   LIG    1       25.761 -18.224   3.273  0.00  0.00    +0.010 A 
BRANCH   6   9
ATOM      9  C   LIG    1       22.224 -19.267   4.440  0.00  0.00    +0.417 C 
ATOM     10  F   LIG    1       21.077 -18.703   3.963  0.00  0.00    -0.166 F 
ATOM     11  F   LIG    1       22.065 -19.314   5.795  0.00  0.00    -0.166 F 
ATOM     12  F   LIG    1       22.215 -20.558   4.016  0.00  0.00    -0.166 F 
ENDBRANCH   6   9
ENDBRANCH   1   3
BRANCH   1  13
ATOM     13  C   LIG    1       28.180 -16.249   4.402  0.00  0.00    +0.059 C 
BRANCH  13  14
ATOM     14  C   LIG    1       28.611 -17.708   4.649  0.00  0.00    +0.009 C 
BRANCH  14  15
ATOM     15  C   LIG    1       29.363 -18.131   5.927  0.00  0.00    +0.028 C 
BRANCH  15  16
ATOM     16  C   LIG    1       29.448 -19.608   6.318  0.00  0.00    +0.159 C 
BRANCH  16  18
ATOM     17  C   LIG    1       27.310 -20.362   7.060  0.00  0.00    +0.193 C 
ATOM     18  O   LIG    1       28.278 -20.357   6.027  0.00  0.00    -0.383 OA
ENDBRANCH  16  18
ENDBRANCH  15  16
ENDBRANCH  14  15
ENDBRANCH  13  14
ENDBRANCH   1  13
BRANCH   2  19
ATOM     19  O   LIG    1       25.881 -14.552   2.084  0.00  0.00    -0.392 OA
BRANCH  19  20
ATOM     20  C   LIG    1       25.515 -13.176   2.138  0.00  0.00    +0.277 C 
BRANCH  20  21
ATOM     21  C   LIG    1       24.166 -13.022   2.847  0.00  0.00    +0.121 C 
BRANCH  21  22
ATOM     22  N   LIG    1       24.305 -12.740   4.278  0.00  0.00    -0.327 NA
ATOM     23  H   LIG    1       24.868 -13.455   4.730  0.00  0.00    +0.118 HD
ATOM     24  H   LIG    1       23.387 -12.738   4.717  0.00  0.00    +0.118 HD
ENDBRANCH  21  22
ENDBRANCH  20  21
ENDBRANCH  19  20
ENDBRANCH   2  19
TORSDOF 11
ENDMDL
MODEL 7
REMARK VINA RESULT:      -3.0      4.080      5.764
REMARK  Name = *****
REMARK                            x       y       z     vdW  Elec       q    Type
REMARK                         _______ _______ _______ _____ _____    ______ ____
ROOT
ATOM      1  C   LIG    1       27.168 -17.061   3.727  0.00  0.00    +0.087 C 
ATOM      2  N   LIG    1       27.227 -15.816   3.312  0.00  0.00    -0.089 NA
ENDROOT
BRANCH   1   3
ATOM      3  C   LIG    1       25.922 -17.942   3.748  0.00  0.00    -0.001 A 
ATOM      4  C   LIG    1       24.691 -17.270   3.944  0.00  0.00    +0.010 A 
ATOM      5  C   LIG    1       23.514 -17.963   4.184  0.00  0.00    +0.013 A 
ATOM      6  C   LIG    1       23.471 -19.351   4.172  0.00  0.00    +0.055 A 
ATOM      7  C   LIG    1       24.654 -20.045   3.865  0.00  0.00    +0.013 A 
ATOM      8  C   LIG    1       25.867 -19.341   3.656  0.00  0.00    +0.010 A 
BRANCH   6   9
ATOM      9  C   LIG    1       22.158 -20.004   4.527  0.00  0.00    +0.417 C 
ATOM     10  F   LIG    1       21.091 -19.294   4.058  0.00  0.00    -0.166 F 
ATOM     11  F   LIG    1       21.975 -20.074   5.878  0.00  0.00    -0.166 F 
ATOM     12  F   LIG    1       22.005 -21.270   4.061  0.00  0.00    -0.166 F 
ENDBRANCH   6   9
ENDBRANCH   1   3
BRANCH   1  13
ATOM     13  C   LIG    1       28.488 -17.653   4.281  0.00  0.00    +0.059 C 
BRANCH  13  14
ATOM     14  C   LIG    1       28.584 -18.251   5.698  0.00  0.00    +0.009 C 
BRANCH  14  15
ATOM     15  C   LIG    1       28.949 -19.730   5.936  0.00  0.00    +0.028 C 
BRANCH  15  16
ATOM     16  C   LIG    1       28.185 -20.554   6.975  0.00  0.00    +0.159 C 
BRANCH  16  18
ATOM     17  C   LIG    1       25.957 -21.401   7.050  0.00  0.00    +0.193 C 
ATOM     18  O   LIG    1       26.798 -20.263   7.047  0.00  0.00    -0.383 OA
ENDBRANCH  16  18
ENDBRANCH  15  16
ENDBRANCH  14  15
ENDBRANCH  13  14
ENDBRANCH   1  13
BRANCH   2  19
ATOM     19  O   LIG    1       26.025 -15.388   2.752  0.00  0.00    -0.392 OA
BRANCH  19  20
ATOM     20  C   LIG    1       26.064 -13.972   2.595  0.00  0.00    +0.277 C 
BRANCH  20  21
ATOM     21  C   LIG    1       26.899 -13.345   3.716  0.00  0.00    +0.121 C 
BRANCH  21  22
ATOM     22  N   LIG    1       28.281 -13.074   3.310  0.00  0.00    -0.327 NA
ATOM     23  H   LIG    1       28.326 -12.853   2.319  0.00  0.00    +0.118 HD
ATOM     24  H   LIG    1       28.853 -13.899   3.475  0.00  0.00    +0.118 HD
ENDBRANCH  21  22
ENDBRANCH  20  21
ENDBRANCH  19  20
ENDBRANCH   2  19
TORSDOF 11
ENDMDL
MODEL 8
REMARK VINA RESULT:      -2.9      1.475      1.769
REMARK  Name = *****
REMARK                            x       y       z     vdW  Elec       q    Type
REMARK                         _______ _______ _______ _____ _____    ______ ____
ROOT
ATOM      1  C   LIG    1       24.706 -18.663   3.878  0.00  0.00    +0.087 C 
ATOM      2  N   LIG    1       23.423 -18.948   3.892  0.00  0.00    -0.089 NA
ENDROOT
BRANCH   1   3
ATOM      3  C   LIG    1       25.317 -17.280   3.672  0.00  0.00    -0.001 A 
ATOM      4  C   LIG    1       26.732 -17.231   3.610  0.00  0.00    +0.010 A 
ATOM      5  C   LIG    1       27.419 -16.026   3.629  0.00  0.00    +0.013 A 
ATOM      6  C   LIG    1       26.752 -14.808   3.637  0.00  0.00    +0.055 A 
ATOM      7  C   LIG    1       25.349 -14.824   3.582  0.00  0.00    +0.013 A 
ATOM      8  C   LIG    1       24.642 -16.053   3.600  0.00  0.00    +0.010 A 
BRANCH   6   9
ATOM      9  C   LIG    1       27.596 -13.561   3.741  0.00  0.00    +0.417 C 
ATOM     10  F   LIG    1       27.664 -13.095   5.022  0.00  0.00    -0.166 F 
ATOM     11  F   LIG    1       27.073 -12.532   3.013  0.00  0.00    -0.166 F 
ATOM     12  F   LIG    1       28.880 -13.704   3.321  0.00  0.00    -0.166 F 
ENDBRANCH   6   9
ENDBRANCH   1   3
BRANCH   1  13
ATOM     13  C   LIG    1       25.668 -19.866   4.045  0.00  0.00    +0.059 C 
BRANCH  13  14
ATOM     14  C   LIG    1       25.298 -21.094   4.901  0.00  0.00    +0.009 C 
BRANCH  14  15
ATOM     15  C   LIG    1       25.467 -21.102   6.433  0.00  0.00    +0.028 C 
BRANCH  15  16
ATOM     16  C   LIG    1       26.857 -21.257   7.054  0.00  0.00    +0.159 C 
BRANCH  16  18
ATOM     17  C   LIG    1       28.912 -20.309   6.301  0.00  0.00    +0.193 C 
ATOM     18  O   LIG    1       27.673 -20.100   6.954  0.00  0.00    -0.383 OA
ENDBRANCH  16  18
ENDBRANCH  15  16
ENDBRANCH  14  15
ENDBRANCH  13  14
ENDBRANCH   1  13
BRANCH   2  19
ATOM     19  O   LIG    1       22.628 -17.805   3.822  0.00  0.00    -0.392 OA
BRANCH  19  20
ATOM     20  C   LIG    1       21.354 -18.091   4.393  0.00  0.00    +0.277 C 
BRANCH  20  21
ATOM     21  C   LIG    1       20.571 -19.036   3.477  0.00  0.00    +0.121 C 
BRANCH  21  22
ATOM     22  N   LIG    1       19.382 -18.407   2.896  0.00  0.00    -0.327 NA
ATOM     23  H   LIG    1       19.645 -17.743   2.173  0.00  0.00    +0.118 HD
ATOM     24  H   LIG    1       18.876 -17.900   3.619  0.00  0.00    +0.118 HD
ENDBRANCH  21  22
ENDBRANCH  20  21
ENDBRANCH  19  20
ENDBRANCH   2  19
TORSDOF 11
ENDMDL
MODEL 9
REMARK VINA RESULT:      -2.6      4.755      7.437
REMARK  Name = *****
REMARK                            x       y       z     vdW  Elec       q    Type
REMARK                         _______ _______ _______ _____ _____    ______ ____
ROOT
ATOM      1  C   LIG    1       24.986 -15.075   3.406  0.00  0.00    +0.087 C 
ATOM      2  N   LIG    1       26.161 -14.489   3.352  0.00  0.00    -0.089 NA
ENDROOT
BRANCH   1   3
ATOM      3  C   LIG    1       24.735 -16.573   3.547  0.00  0.00    -0.001 A 
ATOM      4  C   LIG    1       23.455 -16.945   4.027  0.00  0.00    +0.010 A 
ATOM      5  C   LIG    1       23.166 -18.251   4.391  0.00  0.00    +0.013 A 
ATOM      6  C   LIG    1       24.094 -19.273   4.235  0.00  0.00    +0.055 A 
ATOM      7  C   LIG    1       25.333 -18.955   3.654  0.00  0.00    +0.013 A 
ATOM      8  C   LIG    1       25.646 -17.614   3.315  0.00  0.00    +0.010 A 
BRANCH   6   9
ATOM      9  C   LIG    1       23.705 -20.640   4.740  0.00  0.00    +0.417 C 
ATOM     10  F   LIG    1       24.781 -21.338   5.206  0.00  0.00    -0.166 F 
ATOM     11  F   LIG    1       23.176 -21.416   3.749  0.00  0.00    -0.166 F 
ATOM     12  F   LIG    1       22.790 -20.639   5.745  0.00  0.00    -0.166 F 
ENDBRANCH   6   9
ENDBRANCH   1   3
BRANCH   1  13
ATOM     13  C   LIG    1       23.758 -14.141   3.268  0.00  0.00    +0.059 C 
BRANCH  13  14
ATOM     14  C   LIG    1       23.865 -12.739   2.635  0.00  0.00    +0.009 C 
BRANCH  14  15
ATOM     15  C   LIG    1       23.918 -11.459   3.493  0.00  0.00    +0.028 C 
BRANCH  15  16
ATOM     16  C   LIG    1       23.309 -11.447   4.897  0.00  0.00    +0.159 C 
BRANCH  16  18
ATOM     17  C   LIG    1       25.476 -12.117   5.636  0.00  0.00    +0.193 C 
ATOM     18  O   LIG    1       24.264 -11.454   5.947  0.00  0.00    -0.383 OA
ENDBRANCH  16  18
ENDBRANCH  15  16
ENDBRANCH  14  15
ENDBRANCH  13  14
ENDBRANCH   1  13
BRANCH   2  19
ATOM     19  O   LIG    1       27.208 -15.383   3.570  0.00  0.00    -0.392 OA
BRANCH  19  20
ATOM     20  C   LIG    1       28.259 -14.709   4.256  0.00  0.00    +0.277 C 
BRANCH  20  21
ATOM     21  C   LIG    1       28.379 -13.270   3.743  0.00  0.00    +0.121 C 
BRANCH  21  22
ATOM     22  N   LIG    1       29.000 -12.370   4.718  0.00  0.00    -0.327 NA
ATOM     23  H   LIG    1       28.877 -11.400   4.440  0.00  0.00    +0.118 HD
ATOM     24  H   LIG    1       29.999 -12.559   4.769  0.00  0.00    +0.118 HD
ENDBRANCH  21  22
ENDBRANCH  20  21
ENDBRANCH  19  20
ENDBRANCH   2  19
TORSDOF 11
ENDMDL
