MODEL 1
REMARK VINA RESULT:     -10.3      0.000      0.000
REMARK  Name = *****
REMARK                            x       y       z     vdW  Elec       q    Type
REMARK                         _______ _______ _______ _____ _____    ______ ____
ROOT
ATOM      1  C   LIG    1       26.578 -21.072   6.315  0.00  0.00    -0.017 C 
ATOM      2  C   LIG    1       25.456 -21.520   5.691  0.00  0.00    -0.013 C 
ATOM      3  C   LIG    1       24.929 -22.890   5.917  0.00  0.00    -0.003 A 
ATOM      4  C   LIG    1       23.594 -23.038   6.333  0.00  0.00    +0.021 A 
ATOM      5  C   LIG    1       23.108 -24.309   6.664  0.00  0.00    +0.016 A 
ATOM      6  C   LIG    1       23.928 -25.435   6.558  0.00  0.00    +0.013 A 
ATOM      7  C   LIG    1       25.236 -25.315   6.072  0.00  0.00    +0.056 A 
ATOM      8  S   LIG    1       22.472 -21.645   6.458  0.00  0.00    -0.088 S 
ATOM      9  C   LIG    1       23.231 -20.464   5.339  0.00  0.00    +0.021 A 
ATOM     10  C   LIG    1       22.419 -19.469   4.779  0.00  0.00    +0.015 A 
ATOM     11  C   LIG    1       22.960 -18.516   3.913  0.00  0.00    +0.001 A 
ATOM     12  C   LIG    1       24.315 -18.558   3.592  0.00  0.00    +0.001 A 
ATOM     13  C   LIG    1       25.133 -19.543   4.145  0.00  0.00    +0.009 A 
ATOM     14  C   LIG    1       25.710 -24.040   5.721  0.00  0.00    +0.022 A 
ATOM     15  C   LIG    1       24.607 -20.490   5.039  0.00  0.00    -0.004 A 
ENDROOT
BRANCH   7  16
ATOM     16  C   LIG    1       26.146 -26.511   5.954  0.00  0.00    +0.417 C 
ATOM     17  F   LIG    1       25.951 -27.188   4.786  0.00  0.00    -0.166 F 
ATOM     18  F   LIG    1       25.955 -27.419   6.950  0.00  0.00    -0.166 F 
ATOM     19  F   LIG    1       27.471 -26.197   5.981  0.00  0.00    -0.166 F 
ENDBRANCH   7  16
BRANCH   1  20
ATOM     20  C   LIG    1       27.505 -21.822   7.234  0.00  0.00    +0.043 C 
BRANCH  20  21
ATOM     21  C   LIG    1       28.955 -21.295   7.170  0.00  0.00    +0.088 C 
BRANCH  21  25
ATOM     22  N   LIG    1       31.545 -18.515   8.023  0.00  0.00    -0.298 NA
ATOM     23  C   LIG    1       31.846 -19.966   7.978  0.00  0.00    +0.100 C 
ATOM     24  C   LIG    1       30.822 -20.891   8.696  0.00  0.00    +0.100 C 
ATOM     25  N   LIG    1       29.389 -20.634   8.416  0.00  0.00    -0.300 NA
ATOM     26  C   LIG    1       29.140 -19.179   8.435  0.00  0.00    +0.100 C 
ATOM     27  C   LIG    1       30.140 -18.340   7.611  0.00  0.00    +0.100 C 
BRANCH  22  28
ATOM     28  C   LIG    1       31.827 -17.952   9.360  0.00  0.00    +0.112 C 
BRANCH  28  29
ATOM     29  C   LIG    1       31.695 -16.419   9.437  0.00  0.00    +0.171 C 
BRANCH  29  30
ATOM     30  O   LIG    1       32.825 -15.800   8.825  0.00  0.00    -0.394 OA
ATOM     31  H   LIG    1       32.996 -14.982   9.323  0.00  0.00    +0.209 HD
ENDBRANCH  29  30
ENDBRANCH  28  29
ENDBRANCH  22  28
ENDBRANCH  21  25
ENDBRANCH  20  21
ENDBRANCH   1  20
TORSDOF 7
ENDMDL
MODEL 2
REMARK VINA RESULT:      -8.2      4.853      7.976
REMARK  Name = *****
REMARK                            x       y       z     vdW  Elec       q    Type
REMARK                         _______ _______ _______ _____ _____    ______ ____
ROOT
ATOM      1  C   LIG    1       25.340 -22.396   6.233  0.00  0.00    -0.017 C 
ATOM      2  C   LIG    1       25.524 -21.057   6.086  0.00  0.00    -0.013 C 
ATOM      3  C   LIG    1       26.872 -20.440   6.159  0.00  0.00    -0.003 A 
ATOM      4  C   LIG    1       27.309 -19.644   5.086  0.00  0.00    +0.021 A 
ATOM      5  C   LIG    1       28.618 -19.147   5.079  0.00  0.00    +0.016 A 
ATOM      6  C   LIG    1       29.486 -19.410   6.142  0.00  0.00    +0.013 A 
ATOM      7  C   LIG    1       29.043 -20.136   7.253  0.00  0.00    +0.056 A 
ATOM      8  S   LIG    1       26.241 -19.234   3.705  0.00  0.00    -0.088 S 
ATOM      9  C   LIG    1       24.611 -19.439   4.431  0.00  0.00    +0.021 A 
ATOM     10  C   LIG    1       23.539 -18.746   3.853  0.00  0.00    +0.015 A 
ATOM     11  C   LIG    1       22.248 -18.881   4.369  0.00  0.00    +0.001 A 
ATOM     12  C   LIG    1       22.022 -19.700   5.472  0.00  0.00    +0.001 A 
ATOM     13  C   LIG    1       23.082 -20.396   6.054  0.00  0.00    +0.009 A 
ATOM     14  C   LIG    1       27.722 -20.614   7.264  0.00  0.00    +0.022 A 
ATOM     15  C   LIG    1       24.380 -20.290   5.528  0.00  0.00    -0.004 A 
ENDROOT
BRANCH   7  16
ATOM     16  C   LIG    1       29.960 -20.443   8.411  0.00  0.00    +0.417 C 
ATOM     17  F   LIG    1       31.253 -20.604   8.009  0.00  0.00    -0.166 F 
ATOM     18  F   LIG    1       29.623 -21.589   9.061  0.00  0.00    -0.166 F 
ATOM     19  F   LIG    1       29.988 -19.466   9.360  0.00  0.00    -0.166 F 
ENDBRANCH   7  16
BRANCH   1  20
ATOM     20  C   LIG    1       26.360 -23.455   6.555  0.00  0.00    +0.043 C 
BRANCH  20  21
ATOM     21  C   LIG    1       25.713 -24.788   6.989  0.00  0.00    +0.088 C 
BRANCH  21  25
ATOM     22  N   LIG    1       24.399 -28.309   5.968  0.00  0.00    -0.298 NA
ATOM     23  C   LIG    1       25.001 -27.980   7.283  0.00  0.00    +0.100 C 
ATOM     24  C   LIG    1       26.313 -27.146   7.234  0.00  0.00    +0.100 C 
ATOM     25  N   LIG    1       26.314 -25.966   6.335  0.00  0.00    -0.300 NA
ATOM     26  C   LIG    1       25.675 -26.328   5.054  0.00  0.00    +0.100 C 
ATOM     27  C   LIG    1       24.323 -27.060   5.188  0.00  0.00    +0.100 C 
BRANCH  22  28
ATOM     28  C   LIG    1       25.163 -29.371   5.281  0.00  0.00    +0.112 C 
BRANCH  28  29
ATOM     29  C   LIG    1       24.800 -30.799   5.731  0.00  0.00    +0.171 C 
BRANCH  29  30
ATOM     30  O   LIG    1       23.384 -30.965   5.737  0.00  0.00    -0.394 OA
ATOM     31  H   LIG    1       23.194 -31.703   6.341  0.00  0.00    +0.209 HD
ENDBRANCH  29  30
ENDBRANCH  28  29
ENDBRANCH  22  28
ENDBRANCH  21  25
ENDBRANCH  20  21
ENDBRANCH   1  20
TORSDOF 7
ENDMDL
