MODEL 1
REMARK VINA RESULT:      -8.9      0.000      0.000
REMARK  Name = *****
REMARK                            x       y       z     vdW  Elec       q    Type
REMARK                         _______ _______ _______ _____ _____    ______ ____
ROOT
ATOM      1  C   LIG    1       25.763 -22.782   6.022  0.00  0.00    +0.170 C 
ENDROOT
BRANCH   1   7
ATOM      2 CL   LIG    1       21.894 -18.515   4.167  0.00  0.00    -0.084 Cl
ATOM      3  C   LIG    1       22.984 -19.742   4.687  0.00  0.00    +0.042 A 
ATOM      4  C   LIG    1       22.535 -20.748   5.535  0.00  0.00    +0.040 A 
ATOM      5  C   LIG    1       23.423 -21.729   5.980  0.00  0.00    +0.048 A 
ATOM      6 CL   LIG    1       22.821 -22.863   7.139  0.00  0.00    -0.083 Cl
ATOM      7  C   LIG    1       24.761 -21.744   5.542  0.00  0.00    +0.001 A 
ATOM      8  C   LIG    1       25.192 -20.708   4.688  0.00  0.00    +0.009 A 
ATOM      9  C   LIG    1       24.311 -19.709   4.270  0.00  0.00    +0.020 A 
ENDBRANCH   1   7
BRANCH   1  10
ATOM     10  O   LIG    1       25.135 -24.084   5.998  0.00  0.00    -0.365 OA
BRANCH  10  11
ATOM     11  C   LIG    1       25.879 -25.080   6.724  0.00  0.00    +0.197 C 
BRANCH  11  12
ATOM     12  C   LIG    1       25.363 -26.466   6.468  0.00  0.00    -0.007 A 
ATOM     13  C   LIG    1       25.629 -27.607   7.325  0.00  0.00    -0.004 A 
ATOM     14  C   LIG    1       26.396 -27.699   8.517  0.00  0.00    +0.009 A 
ATOM     15  C   LIG    1       26.487 -28.897   9.229  0.00  0.00    +0.002 A 
ATOM     16  C   LIG    1       25.829 -30.027   8.770  0.00  0.00    +0.021 A 
ATOM     17  C   LIG    1       25.083 -29.982   7.589  0.00  0.00    +0.055 A 
ATOM     18 CL   LIG    1       24.289 -31.419   7.061  0.00  0.00    -0.082 Cl
ATOM     19  C   LIG    1       24.992 -28.771   6.866  0.00  0.00    +0.038 A 
ATOM     20  S   LIG    1       24.152 -28.465   5.389  0.00  0.00    -0.095 S 
ATOM     21  C   LIG    1       24.602 -26.827   5.375  0.00  0.00    +0.052 A 
ENDBRANCH  11  12
ENDBRANCH  10  11
ENDBRANCH   1  10
BRANCH   1  22
ATOM     22  C   LIG    1       26.266 -22.525   7.461  0.00  0.00    +0.159 C 
BRANCH  22  23
ATOM     23  N   LIG    1       27.273 -21.491   7.595  0.00  0.00    -0.334 N 
ATOM     24  C   LIG    1       27.160 -20.345   8.335  0.00  0.00    +0.199 A 
ATOM     25  N   LIG    1       28.305 -19.710   8.420  0.00  0.00    -0.244 NA
ATOM     26  C   LIG    1       29.189 -20.455   7.697  0.00  0.00    +0.130 A 
ATOM     27  C   LIG    1       28.564 -21.547   7.145  0.00  0.00    +0.107 A 
ENDBRANCH  22  23
ENDBRANCH   1  22
TORSDOF 6
ENDMDL
MODEL 2
REMARK VINA RESULT:      -8.4      3.644      7.084
REMARK  Name = *****
REMARK                            x       y       z     vdW  Elec       q    Type
REMARK                         _______ _______ _______ _____ _____    ______ ____
ROOT
ATOM      1  C   LIG    1       24.906 -23.313   5.918  0.00  0.00    +0.170 C 
ENDROOT
BRANCH   1   7
ATOM      2 CL   LIG    1       22.416 -18.076   4.189  0.00  0.00    -0.084 Cl
ATOM      3  C   LIG    1       23.108 -19.573   4.680  0.00  0.00    +0.042 A 
ATOM      4  C   LIG    1       22.700 -20.162   5.872  0.00  0.00    +0.040 A 
ATOM      5  C   LIG    1       23.279 -21.363   6.288  0.00  0.00    +0.048 A 
ATOM      6 CL   LIG    1       22.818 -21.957   7.844  0.00  0.00    -0.083 Cl
ATOM      7  C   LIG    1       24.238 -22.015   5.490  0.00  0.00    +0.001 A 
ATOM      8  C   LIG    1       24.638 -21.394   4.289  0.00  0.00    +0.009 A 
ATOM      9  C   LIG    1       24.083 -20.176   3.892  0.00  0.00    +0.020 A 
ENDBRANCH   1   7
BRANCH   1  10
ATOM     10  O   LIG    1       26.264 -23.027   6.324  0.00  0.00    -0.365 OA
BRANCH  10  11
ATOM     11  C   LIG    1       26.336 -22.180   7.486  0.00  0.00    +0.197 C 
BRANCH  11  12
ATOM     12  C   LIG    1       27.713 -21.617   7.689  0.00  0.00    -0.007 A 
ATOM     13  C   LIG    1       28.279 -20.538   6.899  0.00  0.00    -0.004 A 
ATOM     14  C   LIG    1       27.726 -19.811   5.811  0.00  0.00    +0.009 A 
ATOM     15  C   LIG    1       28.425 -18.761   5.212  0.00  0.00    +0.002 A 
ATOM     16  C   LIG    1       29.686 -18.418   5.673  0.00  0.00    +0.021 A 
ATOM     17  C   LIG    1       30.273 -19.125   6.725  0.00  0.00    +0.055 A 
ATOM     18 CL   LIG    1       31.848 -18.658   7.254  0.00  0.00    -0.082 Cl
ATOM     19  C   LIG    1       29.567 -20.189   7.332  0.00  0.00    +0.038 A 
ATOM     20  S   LIG    1       30.075 -21.212   8.626  0.00  0.00    -0.095 S 
ATOM     21  C   LIG    1       28.614 -22.077   8.628  0.00  0.00    +0.052 A 
ENDBRANCH  11  12
ENDBRANCH  10  11
ENDBRANCH   1  10
BRANCH   1  22
ATOM     22  C   LIG    1       24.960 -24.372   4.793  0.00  0.00    +0.159 C 
BRANCH  22  23
ATOM     23  N   LIG    1       25.044 -25.749   5.236  0.00  0.00    -0.334 N 
ATOM     24  C   LIG    1       24.231 -26.351   6.157  0.00  0.00    +0.199 A 
ATOM     25  N   LIG    1       24.424 -27.649   6.198  0.00  0.00    -0.244 NA
ATOM     26  C   LIG    1       25.407 -27.898   5.286  0.00  0.00    +0.130 A 
ATOM     27  C   LIG    1       25.833 -26.730   4.701  0.00  0.00    +0.107 A 
ENDBRANCH  22  23
ENDBRANCH   1  22
TORSDOF 6
ENDMDL
MODEL 3
REMARK VINA RESULT:      -8.3      3.694      6.766
REMARK  Name = *****
REMARK                            x       y       z     vdW  Elec       q    Type
REMARK                         _______ _______ _______ _____ _____    ______ ____
ROOT
ATOM      1  C   LIG    1       24.921 -23.349   5.854  0.00  0.00    +0.170 C 
ENDROOT
BRANCH   1   7
ATOM      2 CL   LIG    1       22.429 -18.086   4.209  0.00  0.00    -0.084 Cl
ATOM      3  C   LIG    1       23.121 -19.591   4.677  0.00  0.00    +0.042 A 
ATOM      4  C   LIG    1       22.777 -20.156   5.900  0.00  0.00    +0.040 A 
ATOM      5  C   LIG    1       23.358 -21.363   6.296  0.00  0.00    +0.048 A 
ATOM      6 CL   LIG    1       22.983 -21.928   7.886  0.00  0.00    -0.083 Cl
ATOM      7  C   LIG    1       24.252 -22.044   5.450  0.00  0.00    +0.001 A 
ATOM      8  C   LIG    1       24.589 -21.446   4.217  0.00  0.00    +0.009 A 
ATOM      9  C   LIG    1       24.033 -20.223   3.839  0.00  0.00    +0.020 A 
ENDBRANCH   1   7
BRANCH   1  10
ATOM     10  O   LIG    1       26.326 -23.101   6.088  0.00  0.00    -0.365 OA
BRANCH  10  11
ATOM     11  C   LIG    1       26.568 -22.317   7.271  0.00  0.00    +0.197 C 
BRANCH  11  12
ATOM     12  C   LIG    1       27.606 -21.257   7.043  0.00  0.00    -0.007 A 
ATOM     13  C   LIG    1       28.866 -21.181   7.758  0.00  0.00    -0.004 A 
ATOM     14  C   LIG    1       29.390 -22.012   8.785  0.00  0.00    +0.009 A 
ATOM     15  C   LIG    1       30.663 -21.794   9.314  0.00  0.00    +0.002 A 
ATOM     16  C   LIG    1       31.439 -20.746   8.843  0.00  0.00    +0.021 A 
ATOM     17  C   LIG    1       30.950 -19.893   7.851  0.00  0.00    +0.055 A 
ATOM     18 CL   LIG    1       31.955 -18.601   7.306  0.00  0.00    -0.082 Cl
ATOM     19  C   LIG    1       29.660 -20.111   7.315  0.00  0.00    +0.038 A 
ATOM     20  S   LIG    1       28.834 -19.199   6.104  0.00  0.00    -0.095 S 
ATOM     21  C   LIG    1       27.473 -20.214   6.149  0.00  0.00    +0.052 A 
ENDBRANCH  11  12
ENDBRANCH  10  11
ENDBRANCH   1  10
BRANCH   1  22
ATOM     22  C   LIG    1       24.808 -24.452   4.776  0.00  0.00    +0.159 C 
BRANCH  22  23
ATOM     23  N   LIG    1       24.997 -25.809   5.250  0.00  0.00    -0.334 N 
ATOM     24  C   LIG    1       24.251 -26.440   6.208  0.00  0.00    +0.199 A 
ATOM     25  N   LIG    1       24.534 -27.720   6.275  0.00  0.00    -0.244 NA
ATOM     26  C   LIG    1       25.507 -27.926   5.342  0.00  0.00    +0.130 A 
ATOM     27  C   LIG    1       25.837 -26.748   4.718  0.00  0.00    +0.107 A 
ENDBRANCH  22  23
ENDBRANCH   1  22
TORSDOF 6
ENDMDL
MODEL 4
REMARK VINA RESULT:      -7.8      1.333      1.876
REMARK  Name = *****
REMARK                            x       y       z     vdW  Elec       q    Type
REMARK                         _______ _______ _______ _____ _____    ______ ____
ROOT
ATOM      1  C   LIG    1       25.368 -23.524   5.791  0.00  0.00    +0.170 C 
ENDROOT
BRANCH   1   7
ATOM      2 CL   LIG    1       22.039 -18.672   4.380  0.00  0.00    -0.084 Cl
ATOM      3  C   LIG    1       22.974 -20.062   4.772  0.00  0.00    +0.042 A 
ATOM      4  C   LIG    1       22.408 -21.081   5.530  0.00  0.00    +0.040 A 
ATOM      5  C   LIG    1       23.171 -22.199   5.874  0.00  0.00    +0.048 A 
ATOM      6 CL   LIG    1       22.439 -23.353   6.931  0.00  0.00    -0.083 Cl
ATOM      7  C   LIG    1       24.497 -22.333   5.420  0.00  0.00    +0.001 A 
ATOM      8  C   LIG    1       25.049 -21.282   4.658  0.00  0.00    +0.009 A 
ATOM      9  C   LIG    1       24.294 -20.151   4.344  0.00  0.00    +0.020 A 
ENDBRANCH   1   7
BRANCH   1  10
ATOM     10  O   LIG    1       24.581 -24.732   5.675  0.00  0.00    -0.365 OA
BRANCH  10  11
ATOM     11  C   LIG    1       25.350 -25.860   5.220  0.00  0.00    +0.197 C 
BRANCH  11  12
ATOM     12  C   LIG    1       25.557 -26.876   6.306  0.00  0.00    -0.007 A 
ATOM     13  C   LIG    1       24.988 -28.211   6.295  0.00  0.00    -0.004 A 
ATOM     14  C   LIG    1       24.144 -28.840   5.341  0.00  0.00    +0.009 A 
ATOM     15  C   LIG    1       23.741 -30.168   5.495  0.00  0.00    +0.002 A 
ATOM     16  C   LIG    1       24.158 -30.895   6.598  0.00  0.00    +0.021 A 
ATOM     17  C   LIG    1       24.970 -30.304   7.570  0.00  0.00    +0.055 A 
ATOM     18 CL   LIG    1       25.455 -31.253   8.927  0.00  0.00    -0.082 Cl
ATOM     19  C   LIG    1       25.377 -28.959   7.417  0.00  0.00    +0.038 A 
ATOM     20  S   LIG    1       26.357 -28.009   8.474  0.00  0.00    -0.095 S 
ATOM     21  C   LIG    1       26.287 -26.651   7.455  0.00  0.00    +0.052 A 
ENDBRANCH  11  12
ENDBRANCH  10  11
ENDBRANCH   1  10
BRANCH   1  22
ATOM     22  C   LIG    1       25.917 -23.452   7.234  0.00  0.00    +0.159 C 
BRANCH  22  23
ATOM     23  N   LIG    1       26.431 -22.160   7.642  0.00  0.00    -0.334 N 
ATOM     24  C   LIG    1       25.893 -21.342   8.598  0.00  0.00    +0.199 A 
ATOM     25  N   LIG    1       26.692 -20.341   8.884  0.00  0.00    -0.244 NA
ATOM     26  C   LIG    1       27.778 -20.501   8.075  0.00  0.00    +0.130 A 
ATOM     27  C   LIG    1       27.624 -21.603   7.270  0.00  0.00    +0.107 A 
ENDBRANCH  22  23
ENDBRANCH   1  22
TORSDOF 6
ENDMDL
MODEL 5
REMARK VINA RESULT:      -7.3      2.377      3.830
REMARK  Name = *****
REMARK                            x       y       z     vdW  Elec       q    Type
REMARK                         _______ _______ _______ _____ _____    ______ ____
ROOT
ATOM      1  C   LIG    1       25.268 -22.473   6.067  0.00  0.00    +0.170 C 
ENDROOT
BRANCH   1   7
ATOM      2 CL   LIG    1       29.645 -18.674   7.807  0.00  0.00    -0.084 Cl
ATOM      3  C   LIG    1       28.388 -19.743   7.319  0.00  0.00    +0.042 A 
ATOM      4  C   LIG    1       27.565 -20.322   8.279  0.00  0.00    +0.040 A 
ATOM      5  C   LIG    1       26.561 -21.212   7.890  0.00  0.00    +0.048 A 
ATOM      6 CL   LIG    1       25.674 -21.993   9.151  0.00  0.00    -0.083 Cl
ATOM      7  C   LIG    1       26.336 -21.494   6.529  0.00  0.00    +0.001 A 
ATOM      8  C   LIG    1       27.188 -20.898   5.576  0.00  0.00    +0.009 A 
ATOM      9  C   LIG    1       28.213 -20.035   5.971  0.00  0.00    +0.020 A 
ENDBRANCH   1   7
BRANCH   1  10
ATOM     10  O   LIG    1       25.881 -23.763   5.845  0.00  0.00    -0.365 OA
BRANCH  10  11
ATOM     11  C   LIG    1       25.731 -24.656   6.964  0.00  0.00    +0.197 C 
BRANCH  11  12
ATOM     12  C   LIG    1       25.317 -26.034   6.534  0.00  0.00    -0.007 A 
ATOM     13  C   LIG    1       25.613 -27.244   7.278  0.00  0.00    -0.004 A 
ATOM     14  C   LIG    1       26.325 -27.422   8.494  0.00  0.00    +0.009 A 
ATOM     15  C   LIG    1       26.457 -28.683   9.078  0.00  0.00    +0.002 A 
ATOM     16  C   LIG    1       25.894 -29.792   8.467  0.00  0.00    +0.021 A 
ATOM     17  C   LIG    1       25.205 -29.661   7.258  0.00  0.00    +0.055 A 
ATOM     18 CL   LIG    1       24.529 -31.075   6.538  0.00  0.00    -0.082 Cl
ATOM     19  C   LIG    1       25.072 -28.385   6.664  0.00  0.00    +0.038 A 
ATOM     20  S   LIG    1       24.288 -27.968   5.184  0.00  0.00    -0.095 S 
ATOM     21  C   LIG    1       24.634 -26.315   5.368  0.00  0.00    +0.052 A 
ENDBRANCH  11  12
ENDBRANCH  10  11
ENDBRANCH   1  10
BRANCH   1  22
ATOM     22  C   LIG    1       24.575 -22.044   4.753  0.00  0.00    +0.159 C 
BRANCH  22  23
ATOM     23  N   LIG    1       23.880 -20.773   4.800  0.00  0.00    -0.334 N 
ATOM     24  C   LIG    1       24.023 -19.741   3.913  0.00  0.00    +0.199 A 
ATOM     25  N   LIG    1       23.117 -18.810   4.104  0.00  0.00    -0.244 NA
ATOM     26  C   LIG    1       22.371 -19.241   5.160  0.00  0.00    +0.130 A 
ATOM     27  C   LIG    1       22.847 -20.440   5.633  0.00  0.00    +0.107 A 
ENDBRANCH  22  23
ENDBRANCH   1  22
TORSDOF 6
ENDMDL
MODEL 6
REMARK VINA RESULT:      -7.0      5.734      8.519
REMARK  Name = *****
REMARK                            x       y       z     vdW  Elec       q    Type
REMARK                         _______ _______ _______ _____ _____    ______ ____
ROOT
ATOM      1  C   LIG    1       25.389 -30.062   8.826  0.00  0.00    +0.170 C 
ENDROOT
BRANCH   1   7
ATOM      2 CL   LIG    1       25.246 -25.673   4.662  0.00  0.00    -0.084 Cl
ATOM      3  C   LIG    1       25.295 -26.932   5.834  0.00  0.00    +0.042 A 
ATOM      4  C   LIG    1       24.620 -28.124   5.593  0.00  0.00    +0.040 A 
ATOM      5  C   LIG    1       24.634 -29.138   6.553  0.00  0.00    +0.048 A 
ATOM      6 CL   LIG    1       23.660 -30.530   6.238  0.00  0.00    -0.083 Cl
ATOM      7  C   LIG    1       25.367 -28.990   7.747  0.00  0.00    +0.001 A 
ATOM      8  C   LIG    1       26.037 -27.769   7.969  0.00  0.00    +0.009 A 
ATOM      9  C   LIG    1       25.993 -26.744   7.022  0.00  0.00    +0.020 A 
ENDBRANCH   1   7
BRANCH   1  10
ATOM     10  O   LIG    1       25.506 -29.422  10.117  0.00  0.00    -0.365 OA
BRANCH  10  11
ATOM     11  C   LIG    1       24.993 -30.230  11.192  0.00  0.00    +0.197 C 
BRANCH  11  12
ATOM     12  C   LIG    1       23.627 -29.785  11.630  0.00  0.00    -0.007 A 
ATOM     13  C   LIG    1       23.373 -28.599  12.427  0.00  0.00    -0.004 A 
ATOM     14  C   LIG    1       24.277 -27.645  12.965  0.00  0.00    +0.009 A 
ATOM     15  C   LIG    1       23.817 -26.531  13.672  0.00  0.00    +0.002 A 
ATOM     16  C   LIG    1       22.458 -26.345  13.865  0.00  0.00    +0.021 A 
ATOM     17  C   LIG    1       21.539 -27.274  13.370  0.00  0.00    +0.055 A 
ATOM     18 CL   LIG    1       19.858 -26.997  13.645  0.00  0.00    -0.082 Cl
ATOM     19  C   LIG    1       22.002 -28.403  12.656  0.00  0.00    +0.038 A 
ATOM     20  S   LIG    1       21.077 -29.686  11.963  0.00  0.00    -0.095 S 
ATOM     21  C   LIG    1       22.459 -30.464  11.353  0.00  0.00    +0.052 A 
ENDBRANCH  11  12
ENDBRANCH  10  11
ENDBRANCH   1  10
BRANCH   1  22
ATOM     22  C   LIG    1       26.568 -31.051   8.678  0.00  0.00    +0.159 C 
BRANCH  22  23
ATOM     23  N   LIG    1       26.350 -32.148   7.756  0.00  0.00    -0.334 N 
ATOM     24  C   LIG    1       25.357 -33.087   7.839  0.00  0.00    +0.199 A 
ATOM     25  N   LIG    1       25.297 -33.825   6.756  0.00  0.00    -0.244 NA
ATOM     26  C   LIG    1       26.294 -33.364   5.948  0.00  0.00    +0.130 A 
ATOM     27  C   LIG    1       26.984 -32.347   6.561  0.00  0.00    +0.107 A 
ENDBRANCH  22  23
ENDBRANCH   1  22
TORSDOF 6
ENDMDL
MODEL 7
REMARK VINA RESULT:      -6.8      5.717      8.659
REMARK  Name = *****
REMARK                            x       y       z     vdW  Elec       q    Type
REMARK                         _______ _______ _______ _____ _____    ______ ____
ROOT
ATOM      1  C   LIG    1       24.534 -30.152   7.522  0.00  0.00    +0.170 C 
ENDROOT
BRANCH   1   7
ATOM      2 CL   LIG    1       28.059 -33.819   4.244  0.00  0.00    -0.084 Cl
ATOM      3  C   LIG    1       27.071 -32.765   5.179  0.00  0.00    +0.042 A 
ATOM      4  C   LIG    1       27.388 -32.524   6.511  0.00  0.00    +0.040 A 
ATOM      5  C   LIG    1       26.573 -31.691   7.281  0.00  0.00    +0.048 A 
ATOM      6 CL   LIG    1       26.958 -31.553   8.960  0.00  0.00    -0.083 Cl
ATOM      7  C   LIG    1       25.458 -31.049   6.712  0.00  0.00    +0.001 A 
ATOM      8  C   LIG    1       25.154 -31.314   5.360  0.00  0.00    +0.009 A 
ATOM      9  C   LIG    1       25.951 -32.174   4.603  0.00  0.00    +0.020 A 
ENDBRANCH   1   7
BRANCH   1  10
ATOM     10  O   LIG    1       23.367 -30.912   7.911  0.00  0.00    -0.365 OA
BRANCH  10  11
ATOM     11  C   LIG    1       23.515 -31.552   9.191  0.00  0.00    +0.197 C 
BRANCH  11  12
ATOM     12  C   LIG    1       22.826 -30.789  10.285  0.00  0.00    -0.007 A 
ATOM     13  C   LIG    1       23.495 -29.866  11.184  0.00  0.00    -0.004 A 
ATOM     14  C   LIG    1       24.863 -29.493  11.262  0.00  0.00    +0.009 A 
ATOM     15  C   LIG    1       25.301 -28.535  12.180  0.00  0.00    +0.002 A 
ATOM     16  C   LIG    1       24.396 -27.937  13.041  0.00  0.00    +0.021 A 
ATOM     17  C   LIG    1       23.046 -28.295  13.010  0.00  0.00    +0.055 A 
ATOM     18 CL   LIG    1       21.963 -27.523  14.110  0.00  0.00    -0.082 Cl
ATOM     19  C   LIG    1       22.601 -29.265  12.083  0.00  0.00    +0.038 A 
ATOM     20  S   LIG    1       21.003 -29.880  11.859  0.00  0.00    -0.095 S 
ATOM     21  C   LIG    1       21.483 -30.897  10.586  0.00  0.00    +0.052 A 
ENDBRANCH  11  12
ENDBRANCH  10  11
ENDBRANCH   1  10
BRANCH   1  22
ATOM     22  C   LIG    1       24.052 -28.908   6.740  0.00  0.00    +0.159 C 
BRANCH  22  23
ATOM     23  N   LIG    1       25.096 -28.003   6.302  0.00  0.00    -0.334 N 
ATOM     24  C   LIG    1       25.426 -27.720   5.005  0.00  0.00    +0.199 A 
ATOM     25  N   LIG    1       26.270 -26.718   4.928  0.00  0.00    -0.244 NA
ATOM     26  C   LIG    1       26.511 -26.348   6.218  0.00  0.00    +0.130 A 
ATOM     27  C   LIG    1       25.822 -27.153   7.091  0.00  0.00    +0.107 A 
ENDBRANCH  22  23
ENDBRANCH   1  22
TORSDOF 6
ENDMDL
MODEL 8
REMARK VINA RESULT:      -6.6      6.852      8.541
REMARK  Name = *****
REMARK                            x       y       z     vdW  Elec       q    Type
REMARK                         _______ _______ _______ _____ _____    ______ ____
ROOT
ATOM      1  C   LIG    1       24.847 -28.938  12.588  0.00  0.00    +0.170 C 
ENDROOT
BRANCH   1   7
ATOM      2 CL   LIG    1       19.432 -26.336  13.315  0.00  0.00    -0.084 Cl
ATOM      3  C   LIG    1       20.975 -27.075  13.126  0.00  0.00    +0.042 A 
ATOM      4  C   LIG    1       22.122 -26.376  13.487  0.00  0.00    +0.040 A 
ATOM      5  C   LIG    1       23.377 -26.961  13.309  0.00  0.00    +0.048 A 
ATOM      6 CL   LIG    1       24.756 -25.977  13.652  0.00  0.00    -0.083 Cl
ATOM      7  C   LIG    1       23.497 -28.274  12.815  0.00  0.00    +0.001 A 
ATOM      8  C   LIG    1       22.319 -28.959  12.451  0.00  0.00    +0.009 A 
ATOM      9  C   LIG    1       21.067 -28.358  12.598  0.00  0.00    +0.020 A 
ENDBRANCH   1   7
BRANCH   1  10
ATOM     10  O   LIG    1       24.814 -29.641  11.325  0.00  0.00    -0.365 OA
BRANCH  10  11
ATOM     11  C   LIG    1       25.877 -29.249  10.437  0.00  0.00    +0.197 C 
BRANCH  11  12
ATOM     12  C   LIG    1       25.976 -30.152   9.242  0.00  0.00    -0.007 A 
ATOM     13  C   LIG    1       25.481 -29.814   7.920  0.00  0.00    -0.004 A 
ATOM     14  C   LIG    1       24.816 -28.645   7.461  0.00  0.00    +0.009 A 
ATOM     15  C   LIG    1       24.462 -28.493   6.119  0.00  0.00    +0.002 A 
ATOM     16  C   LIG    1       24.751 -29.497   5.208  0.00  0.00    +0.021 A 
ATOM     17  C   LIG    1       25.383 -30.671   5.626  0.00  0.00    +0.055 A 
ATOM     18 CL   LIG    1       25.714 -31.891   4.452  0.00  0.00    -0.082 Cl
ATOM     19  C   LIG    1       25.741 -30.828   6.985  0.00  0.00    +0.038 A 
ATOM     20  S   LIG    1       26.510 -32.175   7.743  0.00  0.00    -0.095 S 
ATOM     21  C   LIG    1       26.520 -31.420   9.264  0.00  0.00    +0.052 A 
ENDBRANCH  11  12
ENDBRANCH  10  11
ENDBRANCH   1  10
BRANCH   1  22
ATOM     22  C   LIG    1       25.218 -29.957  13.689  0.00  0.00    +0.159 C 
BRANCH  22  23
ATOM     23  N   LIG    1       26.621 -30.003  14.049  0.00  0.00    -0.334 N 
ATOM     24  C   LIG    1       27.267 -31.048  14.651  0.00  0.00    +0.199 A 
ATOM     25  N   LIG    1       28.567 -30.871  14.664  0.00  0.00    -0.244 NA
ATOM     26  C   LIG    1       28.775 -29.663  14.067  0.00  0.00    +0.130 A 
ATOM     27  C   LIG    1       27.580 -29.088  13.708  0.00  0.00    +0.107 A 
ENDBRANCH  22  23
ENDBRANCH   1  22
TORSDOF 6
ENDMDL
MODEL 9
REMARK VINA RESULT:      -6.6      3.423      7.410
REMARK  Name = *****
REMARK                            x       y       z     vdW  Elec       q    Type
REMARK                         _______ _______ _______ _____ _____    ______ ____
ROOT
ATOM      1  C   LIG    1       24.645 -21.954   4.764  0.00  0.00    +0.170 C 
ENDROOT
BRANCH   1   7
ATOM      2 CL   LIG    1       24.198 -27.753   6.435  0.00  0.00    -0.084 Cl
ATOM      3  C   LIG    1       24.334 -26.100   5.975  0.00  0.00    +0.042 A 
ATOM      4  C   LIG    1       23.730 -25.117   6.752  0.00  0.00    +0.040 A 
ATOM      5  C   LIG    1       23.815 -23.777   6.368  0.00  0.00    +0.048 A 
ATOM      6 CL   LIG    1       22.923 -22.634   7.309  0.00  0.00    -0.083 Cl
ATOM      7  C   LIG    1       24.548 -23.400   5.227  0.00  0.00    +0.001 A 
ATOM      8  C   LIG    1       25.145 -24.416   4.453  0.00  0.00    +0.009 A 
ATOM      9  C   LIG    1       25.030 -25.758   4.821  0.00  0.00    +0.020 A 
ENDBRANCH   1   7
BRANCH   1  10
ATOM     10  O   LIG    1       24.987 -21.123   5.897  0.00  0.00    -0.365 OA
BRANCH  10  11
ATOM     11  C   LIG    1       26.182 -20.348   5.684  0.00  0.00    +0.197 C 
BRANCH  11  12
ATOM     12  C   LIG    1       27.280 -20.734   6.632  0.00  0.00    -0.007 A 
ATOM     13  C   LIG    1       28.581 -20.093   6.678  0.00  0.00    -0.004 A 
ATOM     14  C   LIG    1       29.111 -19.036   5.890  0.00  0.00    +0.009 A 
ATOM     15  C   LIG    1       30.388 -18.524   6.131  0.00  0.00    +0.002 A 
ATOM     16  C   LIG    1       31.166 -19.052   7.149  0.00  0.00    +0.021 A 
ATOM     17  C   LIG    1       30.688 -20.108   7.930  0.00  0.00    +0.055 A 
ATOM     18 CL   LIG    1       31.702 -20.731   9.179  0.00  0.00    -0.082 Cl
ATOM     19  C   LIG    1       29.397 -20.629   7.687  0.00  0.00    +0.038 A 
ATOM     20  S   LIG    1       28.595 -21.925   8.497  0.00  0.00    -0.095 S 
ATOM     21  C   LIG    1       27.193 -21.760   7.551  0.00  0.00    +0.052 A 
ENDBRANCH  11  12
ENDBRANCH  10  11
ENDBRANCH   1  10
BRANCH   1  22
ATOM     22  C   LIG    1       23.327 -21.416   4.161  0.00  0.00    +0.159 C 
BRANCH  22  23
ATOM     23  N   LIG    1       23.119 -19.988   4.289  0.00  0.00    -0.334 N 
ATOM     24  C   LIG    1       23.765 -19.012   3.580  0.00  0.00    +0.199 A 
ATOM     25  N   LIG    1       23.221 -17.833   3.773  0.00  0.00    -0.244 NA
ATOM     26  C   LIG    1       22.198 -18.045   4.650  0.00  0.00    +0.130 A 
ATOM     27  C   LIG    1       22.137 -19.368   5.012  0.00  0.00    +0.107 A 
ENDBRANCH  22  23
ENDBRANCH   1  22
TORSDOF 6
ENDMDL
