MODEL 1
REMARK VINA RESULT:      -5.0      0.000      0.000
REMARK  Name = *****
REMARK                            x       y       z     vdW  Elec       q    Type
REMARK                         _______ _______ _______ _____ _____    ______ ____
ROOT
ATOM      1  C   LIG    1       25.883 -17.719   3.239  0.00  0.00    +0.101 C 
ENDROOT
BRANCH   1   2
ATOM      2  N   LIG    1       25.084 -18.697   4.030  0.00  0.00    -0.281 NA
BRANCH   2   3
ATOM      3  C   LIG    1       23.717 -18.880   3.445  0.00  0.00    +0.206 C 
BRANCH   3   5
ATOM      4  O   LIG    1       22.332 -19.735   5.267  0.00  0.00    -0.250 OA
ATOM      5  C   LIG    1       22.648 -18.790   4.527  0.00  0.00    +0.319 C 
BRANCH   5   6
ATOM      6  O   LIG    1       22.106 -17.558   4.655  0.00  0.00    -0.480 OA
ATOM      7  H   LIG    1       21.152 -17.623   4.420  0.00  0.00    +0.295 HD
ENDBRANCH   5   6
ENDBRANCH   3   5
ENDBRANCH   2   3
BRANCH   2   8
ATOM      8  C   LIG    1       25.699 -20.044   4.284  0.00  0.00    +0.206 C 
BRANCH   8   9
ATOM      9  C   LIG    1       26.622 -20.155   5.499  0.00  0.00    +0.319 C 
ATOM     10  O   LIG    1       26.278 -20.386   6.643  0.00  0.00    -0.250 OA
BRANCH   9  11
ATOM     11  O   LIG    1       27.921 -20.094   5.154  0.00  0.00    -0.480 OA
ATOM     12  H   LIG    1       28.246 -19.225   5.460  0.00  0.00    +0.295 HD
ENDBRANCH   9  11
ENDBRANCH   8   9
ENDBRANCH   2   8
ENDBRANCH   1   2
BRANCH   1  13
ATOM     13  C   LIG    1       25.492 -16.208   3.311  0.00  0.00    +0.101 C 
BRANCH  13  14
ATOM     14  N   LIG    1       26.528 -15.181   2.930  0.00  0.00    -0.281 NA
BRANCH  14  15
ATOM     15  C   LIG    1       27.553 -15.027   4.021  0.00  0.00    +0.206 C 
BRANCH  15  16
ATOM     16  C   LIG    1       28.053 -13.597   4.301  0.00  0.00    +0.319 C 
ATOM     17  O   LIG    1       28.962 -13.063   3.682  0.00  0.00    -0.250 OA
BRANCH  16  18
ATOM     18  O   LIG    1       27.498 -12.982   5.372  0.00  0.00    -0.480 OA
ATOM     19  H   LIG    1       26.550 -12.780   5.303  0.00  0.00    +0.295 HD
ENDBRANCH  16  18
ENDBRANCH  15  16
ENDBRANCH  14  15
BRANCH  14  20
ATOM     20  C   LIG    1       25.917 -13.890   2.540  0.00  0.00    +0.206 C 
BRANCH  20  21
ATOM     21  C   LIG    1       24.645 -13.560   3.312  0.00  0.00    +0.319 C 
ATOM     22  O   LIG    1       24.645 -13.378   4.527  0.00  0.00    -0.250 OA
BRANCH  21  23
ATOM     23  O   LIG    1       23.575 -13.371   2.524  0.00  0.00    -0.480 OA
ATOM     24  H   LIG    1       23.162 -14.238   2.319  0.00  0.00    +0.295 HD
ENDBRANCH  21  23
ENDBRANCH  20  21
ENDBRANCH  14  20
ENDBRANCH  13  14
ENDBRANCH   1  13
TORSDOF 15
ENDMDL
MODEL 2
REMARK VINA RESULT:      -4.7      0.528      6.038
REMARK  Name = *****
REMARK                            x       y       z     vdW  Elec       q    Type
REMARK                         _______ _______ _______ _____ _____    ______ ____
ROOT
ATOM      1  C   LIG    1       25.525 -16.224   3.285  0.00  0.00    +0.101 C 
ENDROOT
BRANCH   1   2
ATOM      2  N   LIG    1       26.583 -15.220   2.982  0.00  0.00    -0.281 NA
BRANCH   2   3
ATOM      3  C   LIG    1       25.984 -13.921   2.535  0.00  0.00    +0.206 C 
BRANCH   3   5
ATOM      4  O   LIG    1       24.731 -13.485   4.586  0.00  0.00    -0.250 OA
ATOM      5  C   LIG    1       24.741 -13.587   3.349  0.00  0.00    +0.319 C 
BRANCH   5   6
ATOM      6  O   LIG    1       23.645 -13.348   2.594  0.00  0.00    -0.480 OA
ATOM      7  H   LIG    1       23.900 -13.460   1.649  0.00  0.00    +0.295 HD
ENDBRANCH   5   6
ENDBRANCH   3   5
ENDBRANCH   2   3
BRANCH   2   8
ATOM      8  C   LIG    1       27.606 -14.953   4.049  0.00  0.00    +0.206 C 
BRANCH   8   9
ATOM      9  C   LIG    1       28.218 -13.551   4.072  0.00  0.00    +0.319 C 
ATOM     10  O   LIG    1       27.981 -12.678   4.886  0.00  0.00    -0.250 OA
BRANCH   9  11
ATOM     11  O   LIG    1       29.179 -13.404   3.144  0.00  0.00    -0.480 OA
ATOM     12  H   LIG    1       29.192 -14.234   2.627  0.00  0.00    +0.295 HD
ENDBRANCH   9  11
ENDBRANCH   8   9
ENDBRANCH   2   8
ENDBRANCH   1   2
BRANCH   1  13
ATOM     13  C   LIG    1       25.902 -17.740   3.236  0.00  0.00    +0.101 C 
BRANCH  13  14
ATOM     14  N   LIG    1       25.093 -18.707   4.063  0.00  0.00    -0.281 NA
BRANCH  14  15
ATOM     15  C   LIG    1       25.844 -19.995   4.265  0.00  0.00    +0.206 C 
BRANCH  15  16
ATOM     16  C   LIG    1       25.902 -20.542   5.704  0.00  0.00    +0.319 C 
ATOM     17  O   LIG    1       24.952 -20.526   6.474  0.00  0.00    -0.250 OA
BRANCH  16  18
ATOM     18  O   LIG    1       27.122 -20.949   6.127  0.00  0.00    -0.480 OA
ATOM     19  H   LIG    1       27.690 -21.360   5.455  0.00  0.00    +0.295 HD
ENDBRANCH  16  18
ENDBRANCH  15  16
ENDBRANCH  14  15
BRANCH  14  20
ATOM     20  C   LIG    1       23.739 -18.922   3.503  0.00  0.00    +0.206 C 
BRANCH  20  21
ATOM     21  C   LIG    1       22.623 -18.749   4.526  0.00  0.00    +0.319 C 
ATOM     22  O   LIG    1       21.981 -17.707   4.624  0.00  0.00    -0.250 OA
BRANCH  21  23
ATOM     23  O   LIG    1       22.340 -19.873   5.203  0.00  0.00    -0.480 OA
ATOM     24  H   LIG    1       22.851 -19.887   6.042  0.00  0.00    +0.295 HD
ENDBRANCH  21  23
ENDBRANCH  20  21
ENDBRANCH  14  20
ENDBRANCH  13  14
ENDBRANCH   1  13
TORSDOF 15
ENDMDL
MODEL 3
REMARK VINA RESULT:      -4.6      0.712      6.437
REMARK  Name = *****
REMARK                            x       y       z     vdW  Elec       q    Type
REMARK                         _______ _______ _______ _____ _____    ______ ____
ROOT
ATOM      1  C   LIG    1       25.508 -16.009   3.292  0.00  0.00    +0.101 C 
ENDROOT
BRANCH   1   2
ATOM      2  N   LIG    1       26.612 -15.056   2.991  0.00  0.00    -0.281 NA
BRANCH   2   3
ATOM      3  C   LIG    1       26.077 -13.736   2.527  0.00  0.00    +0.206 C 
BRANCH   3   5
ATOM      4  O   LIG    1       24.820 -13.082   4.517  0.00  0.00    -0.250 OA
ATOM      5  C   LIG    1       24.825 -13.354   3.306  0.00  0.00    +0.319 C 
BRANCH   5   6
ATOM      6  O   LIG    1       23.712 -13.275   2.542  0.00  0.00    -0.480 OA
ATOM      7  H   LIG    1       23.231 -12.453   2.794  0.00  0.00    +0.295 HD
ENDBRANCH   5   6
ENDBRANCH   3   5
ENDBRANCH   2   3
BRANCH   2   8
ATOM      8  C   LIG    1       27.637 -14.825   4.065  0.00  0.00    +0.206 C 
BRANCH   8   9
ATOM      9  C   LIG    1       28.315 -13.455   4.079  0.00  0.00    +0.319 C 
ATOM     10  O   LIG    1       28.129 -12.571   4.894  0.00  0.00    -0.250 OA
BRANCH   9  11
ATOM     11  O   LIG    1       29.272 -13.354   3.139  0.00  0.00    -0.480 OA
ATOM     12  H   LIG    1       28.951 -12.695   2.491  0.00  0.00    +0.295 HD
ENDBRANCH   9  11
ENDBRANCH   8   9
ENDBRANCH   2   8
ENDBRANCH   1   2
BRANCH   1  13
ATOM     13  C   LIG    1       25.824 -17.539   3.286  0.00  0.00    +0.101 C 
BRANCH  13  14
ATOM     14  N   LIG    1       24.671 -18.509   3.344  0.00  0.00    -0.281 NA
BRANCH  14  15
ATOM     15  C   LIG    1       23.654 -18.069   4.364  0.00  0.00    +0.206 C 
BRANCH  15  16
ATOM     16  C   LIG    1       22.341 -18.873   4.421  0.00  0.00    +0.319 C 
ATOM     17  O   LIG    1       21.320 -18.544   3.834  0.00  0.00    -0.250 OA
BRANCH  16  18
ATOM     18  O   LIG    1       22.337 -19.929   5.268  0.00  0.00    -0.480 OA
ATOM     19  H   LIG    1       21.962 -20.753   4.916  0.00  0.00    +0.295 HD
ENDBRANCH  16  18
ENDBRANCH  15  16
ENDBRANCH  14  15
BRANCH  14  20
ATOM     20  C   LIG    1       25.124 -19.902   3.561  0.00  0.00    +0.206 C 
BRANCH  20  21
ATOM     21  C   LIG    1       25.831 -20.112   4.894  0.00  0.00    +0.319 C 
ATOM     22  O   LIG    1       25.224 -20.417   5.917  0.00  0.00    -0.250 OA
BRANCH  21  23
ATOM     23  O   LIG    1       27.170 -20.053   4.804  0.00  0.00    -0.480 OA
ATOM     24  H   LIG    1       27.487 -20.749   4.188  0.00  0.00    +0.295 HD
ENDBRANCH  21  23
ENDBRANCH  20  21
ENDBRANCH  14  20
ENDBRANCH  13  14
ENDBRANCH   1  13
TORSDOF 15
ENDMDL
MODEL 4
REMARK VINA RESULT:      -4.5      0.712      2.783
REMARK  Name = *****
REMARK                            x       y       z     vdW  Elec       q    Type
REMARK                         _______ _______ _______ _____ _____    ______ ____
ROOT
ATOM      1  C   LIG    1       25.707 -17.551   3.299  0.00  0.00    +0.101 C 
ENDROOT
BRANCH   1   2
ATOM      2  N   LIG    1       24.562 -18.497   3.420  0.00  0.00    -0.281 NA
BRANCH   2   3
ATOM      3  C   LIG    1       25.038 -19.915   3.502  0.00  0.00    +0.206 C 
BRANCH   3   5
ATOM      4  O   LIG    1       25.090 -20.531   5.865  0.00  0.00    -0.250 OA
ATOM      5  C   LIG    1       25.705 -20.187   4.844  0.00  0.00    +0.319 C 
BRANCH   5   6
ATOM      6  O   LIG    1       27.052 -20.078   4.814  0.00  0.00    -0.480 OA
ATOM      7  H   LIG    1       27.351 -19.775   5.702  0.00  0.00    +0.295 HD
ENDBRANCH   5   6
ENDBRANCH   3   5
ENDBRANCH   2   3
BRANCH   2   8
ATOM      8  C   LIG    1       23.570 -18.242   4.518  0.00  0.00    +0.206 C 
BRANCH   8   9
ATOM      9  C   LIG    1       22.208 -18.923   4.379  0.00  0.00    +0.319 C 
ATOM     10  O   LIG    1       21.267 -18.519   3.722  0.00  0.00    -0.250 OA
BRANCH   9  11
ATOM     11  O   LIG    1       22.182 -20.128   4.976  0.00  0.00    -0.480 OA
ATOM     12  H   LIG    1       23.090 -20.295   5.297  0.00  0.00    +0.295 HD
ENDBRANCH   9  11
ENDBRANCH   8   9
ENDBRANCH   2   8
ENDBRANCH   1   2
BRANCH   1  13
ATOM     13  C   LIG    1       25.411 -16.017   3.331  0.00  0.00    +0.101 C 
BRANCH  13  14
ATOM     14  N   LIG    1       26.503 -15.068   2.907  0.00  0.00    -0.281 NA
BRANCH  14  15
ATOM     15  C   LIG    1       27.562 -14.962   3.972  0.00  0.00    +0.206 C 
BRANCH  15  16
ATOM     16  C   LIG    1       28.102 -13.551   4.271  0.00  0.00    +0.319 C 
ATOM     17  O   LIG    1       29.038 -13.042   3.671  0.00  0.00    -0.250 OA
BRANCH  16  18
ATOM     18  O   LIG    1       27.549 -12.926   5.338  0.00  0.00    -0.480 OA
ATOM     19  H   LIG    1       27.921 -12.057   5.560  0.00  0.00    +0.295 HD
ENDBRANCH  16  18
ENDBRANCH  15  16
ENDBRANCH  14  15
BRANCH  14  20
ATOM     20  C   LIG    1       25.969 -13.746   2.507  0.00  0.00    +0.206 C 
BRANCH  20  21
ATOM     21  C   LIG    1       24.707 -13.345   3.261  0.00  0.00    +0.319 C 
ATOM     22  O   LIG    1       24.724 -13.034   4.448  0.00  0.00    -0.250 OA
BRANCH  21  23
ATOM     23  O   LIG    1       23.623 -13.250   2.474  0.00  0.00    -0.480 OA
ATOM     24  H   LIG    1       23.314 -14.149   2.230  0.00  0.00    +0.295 HD
ENDBRANCH  21  23
ENDBRANCH  20  21
ENDBRANCH  14  20
ENDBRANCH  13  14
ENDBRANCH   1  13
TORSDOF 15
ENDMDL
MODEL 5
REMARK VINA RESULT:      -4.5      0.638      2.552
REMARK  Name = *****
REMARK                            x       y       z     vdW  Elec       q    Type
REMARK                         _______ _______ _______ _____ _____    ______ ____
ROOT
ATOM      1  C   LIG    1       25.881 -17.576   3.425  0.00  0.00    +0.101 C 
ENDROOT
BRANCH   1   2
ATOM      2  N   LIG    1       25.193 -18.695   4.128  0.00  0.00    -0.281 NA
BRANCH   2   3
ATOM      3  C   LIG    1       23.872 -19.004   3.491  0.00  0.00    +0.206 C 
BRANCH   3   5
ATOM      4  O   LIG    1       22.480 -19.906   5.284  0.00  0.00    -0.250 OA
ATOM      5  C   LIG    1       22.751 -18.965   4.521  0.00  0.00    +0.319 C 
BRANCH   5   6
ATOM      6  O   LIG    1       22.104 -17.779   4.577  0.00  0.00    -0.480 OA
ATOM      7  H   LIG    1       21.356 -17.873   5.211  0.00  0.00    +0.295 HD
ENDBRANCH   5   6
ENDBRANCH   3   5
ENDBRANCH   2   3
BRANCH   2   8
ATOM      8  C   LIG    1       25.964 -19.970   4.314  0.00  0.00    +0.206 C 
BRANCH   8   9
ATOM      9  C   LIG    1       26.282 -20.372   5.755  0.00  0.00    +0.319 C 
ATOM     10  O   LIG    1       25.474 -20.524   6.652  0.00  0.00    -0.250 OA
BRANCH   9  11
ATOM     11  O   LIG    1       27.581 -20.678   5.920  0.00  0.00    -0.480 OA
ATOM     12  H   LIG    1       28.087 -19.892   5.634  0.00  0.00    +0.295 HD
ENDBRANCH   9  11
ENDBRANCH   8   9
ENDBRANCH   2   8
ENDBRANCH   1   2
BRANCH   1  13
ATOM     13  C   LIG    1       25.104 -16.236   3.220  0.00  0.00    +0.101 C 
BRANCH  13  14
ATOM     14  N   LIG    1       25.782 -14.948   3.612  0.00  0.00    -0.281 NA
BRANCH  14  15
ATOM     15  C   LIG    1       25.330 -13.816   2.728  0.00  0.00    +0.206 C 
BRANCH  15  16
ATOM     16  C   LIG    1       24.386 -12.778   3.364  0.00  0.00    +0.319 C 
ATOM     17  O   LIG    1       24.126 -12.740   4.558  0.00  0.00    -0.250 OA
BRANCH  16  18
ATOM     18  O   LIG    1       23.750 -11.955   2.497  0.00  0.00    -0.480 OA
ATOM     19  H   LIG    1       23.585 -12.318   1.611  0.00  0.00    +0.295 HD
ENDBRANCH  16  18
ENDBRANCH  15  16
ENDBRANCH  14  15
BRANCH  14  20
ATOM     20  C   LIG    1       27.256 -15.082   3.650  0.00  0.00    +0.206 C 
BRANCH  20  21
ATOM     21  C   LIG    1       27.973 -13.801   4.060  0.00  0.00    +0.319 C 
ATOM     22  O   LIG    1       27.658 -13.165   5.061  0.00  0.00    -0.250 OA
BRANCH  21  23
ATOM     23  O   LIG    1       29.041 -13.520   3.296  0.00  0.00    -0.480 OA
ATOM     24  H   LIG    1       29.057 -12.558   3.096  0.00  0.00    +0.295 HD
ENDBRANCH  21  23
ENDBRANCH  20  21
ENDBRANCH  14  20
ENDBRANCH  13  14
ENDBRANCH   1  13
TORSDOF 15
ENDMDL
MODEL 6
REMARK VINA RESULT:      -4.2      1.929      6.337
REMARK  Name = *****
REMARK                            x       y       z     vdW  Elec       q    Type
REMARK                         _______ _______ _______ _____ _____    ______ ____
ROOT
ATOM      1  C   LIG    1       23.326 -15.613   4.660  0.00  0.00    +0.101 C 
ENDROOT
BRANCH   1   2
ATOM      2  N   LIG    1       24.349 -14.945   3.808  0.00  0.00    -0.281 NA
BRANCH   2   3
ATOM      3  C   LIG    1       24.650 -13.564   4.304  0.00  0.00    +0.206 C 
BRANCH   3   5
ATOM      4  O   LIG    1       23.512 -11.451   3.847  0.00  0.00    -0.250 OA
ATOM      5  C   LIG    1       23.991 -12.513   3.419  0.00  0.00    +0.319 C 
BRANCH   5   6
ATOM      6  O   LIG    1       24.026 -12.813   2.102  0.00  0.00    -0.480 OA
ATOM      7  H   LIG    1       23.898 -11.975   1.599  0.00  0.00    +0.295 HD
ENDBRANCH   5   6
ENDBRANCH   3   5
ENDBRANCH   2   3
BRANCH   2   8
ATOM      8  C   LIG    1       25.638 -15.680   3.574  0.00  0.00    +0.206 C 
BRANCH   8   9
ATOM      9  C   LIG    1       26.794 -14.864   2.993  0.00  0.00    +0.319 C 
ATOM     10  O   LIG    1       26.772 -14.229   1.954  0.00  0.00    -0.250 OA
BRANCH   9  11
ATOM     11  O   LIG    1       27.844 -14.806   3.830  0.00  0.00    -0.480 OA
ATOM     12  H   LIG    1       27.757 -15.570   4.433  0.00  0.00    +0.295 HD
ENDBRANCH   9  11
ENDBRANCH   8   9
ENDBRANCH   2   8
ENDBRANCH   1   2
BRANCH   1  13
ATOM     13  C   LIG    1       22.606 -16.882   4.102  0.00  0.00    +0.101 C 
BRANCH  13  14
ATOM     14  N   LIG    1       23.160 -18.237   4.463  0.00  0.00    -0.281 NA
BRANCH  14  15
ATOM     15  C   LIG    1       24.058 -18.755   3.372  0.00  0.00    +0.206 C 
BRANCH  15  16
ATOM     16  C   LIG    1       25.207 -19.684   3.806  0.00  0.00    +0.319 C 
ATOM     17  O   LIG    1       25.090 -20.896   3.925  0.00  0.00    -0.250 OA
BRANCH  16  18
ATOM     18  O   LIG    1       26.355 -19.067   4.171  0.00  0.00    -0.480 OA
ATOM     19  H   LIG    1       26.575 -19.102   5.117  0.00  0.00    +0.295 HD
ENDBRANCH  16  18
ENDBRANCH  15  16
ENDBRANCH  14  15
BRANCH  14  20
ATOM     20  C   LIG    1       22.093 -19.199   4.821  0.00  0.00    +0.206 C 
BRANCH  20  21
ATOM     21  C   LIG    1       22.589 -20.377   5.650  0.00  0.00    +0.319 C 
ATOM     22  O   LIG    1       23.174 -20.227   6.718  0.00  0.00    -0.250 OA
BRANCH  21  23
ATOM     23  O   LIG    1       22.213 -21.570   5.161  0.00  0.00    -0.480 OA
ATOM     24  H   LIG    1       21.564 -21.438   4.436  0.00  0.00    +0.295 HD
ENDBRANCH  21  23
ENDBRANCH  20  21
ENDBRANCH  14  20
ENDBRANCH  13  14
ENDBRANCH   1  13
TORSDOF 15
ENDMDL
MODEL 7
REMARK VINA RESULT:      -4.1      0.726      6.705
REMARK  Name = *****
REMARK                            x       y       z     vdW  Elec       q    Type
REMARK                         _______ _______ _______ _____ _____    ______ ____
ROOT
ATOM      1  C   LIG    1       26.015 -16.843   3.129  0.00  0.00    +0.101 C 
ENDROOT
BRANCH   1   2
ATOM      2  N   LIG    1       26.135 -15.432   3.590  0.00  0.00    -0.281 NA
BRANCH   2   3
ATOM      3  C   LIG    1       27.552 -15.094   3.938  0.00  0.00    +0.206 C 
BRANCH   3   5
ATOM      4  O   LIG    1       28.311 -12.775   4.056  0.00  0.00    -0.250 OA
ATOM      5  C   LIG    1       27.644 -13.700   4.546  0.00  0.00    +0.319 C 
BRANCH   5   6
ATOM      6  O   LIG    1       26.879 -13.536   5.648  0.00  0.00    -0.480 OA
ATOM      7  H   LIG    1       27.136 -12.683   6.070  0.00  0.00    +0.295 HD
ENDBRANCH   5   6
ENDBRANCH   3   5
ENDBRANCH   2   3
BRANCH   2   8
ATOM      8  C   LIG    1       25.576 -14.363   2.695  0.00  0.00    +0.206 C 
BRANCH   8   9
ATOM      9  C   LIG    1       24.387 -13.569   3.238  0.00  0.00    +0.319 C 
ATOM     10  O   LIG    1       24.064 -13.472   4.407  0.00  0.00    -0.250 OA
BRANCH   9  11
ATOM     11  O   LIG    1       23.774 -12.854   2.278  0.00  0.00    -0.480 OA
ATOM     12  H   LIG    1       23.487 -13.496   1.599  0.00  0.00    +0.295 HD
ENDBRANCH   9  11
ENDBRANCH   8   9
ENDBRANCH   2   8
ENDBRANCH   1   2
BRANCH   1  13
ATOM     13  C   LIG    1       25.038 -17.794   3.890  0.00  0.00    +0.101 C 
BRANCH  13  14
ATOM     14  N   LIG    1       24.546 -19.032   3.183  0.00  0.00    -0.281 NA
BRANCH  14  15
ATOM     15  C   LIG    1       23.060 -19.195   3.363  0.00  0.00    +0.206 C 
BRANCH  15  16
ATOM     16  C   LIG    1       22.464 -18.677   4.685  0.00  0.00    +0.319 C 
ATOM     17  O   LIG    1       22.039 -17.540   4.837  0.00  0.00    -0.250 OA
BRANCH  16  18
ATOM     18  O   LIG    1       22.538 -19.528   5.735  0.00  0.00    -0.480 OA
ATOM     19  H   LIG    1       21.696 -19.738   6.172  0.00  0.00    +0.295 HD
ENDBRANCH  16  18
ENDBRANCH  15  16
ENDBRANCH  14  15
BRANCH  14  20
ATOM     20  C   LIG    1       25.301 -20.241   3.584  0.00  0.00    +0.206 C 
BRANCH  20  21
ATOM     21  C   LIG    1       25.933 -20.134   4.966  0.00  0.00    +0.319 C 
ATOM     22  O   LIG    1       25.298 -20.348   5.995  0.00  0.00    -0.250 OA
BRANCH  21  23
ATOM     23  O   LIG    1       27.257 -19.911   4.932  0.00  0.00    -0.480 OA
ATOM     24  H   LIG    1       27.646 -20.114   5.811  0.00  0.00    +0.295 HD
ENDBRANCH  21  23
ENDBRANCH  20  21
ENDBRANCH  14  20
ENDBRANCH  13  14
ENDBRANCH   1  13
TORSDOF 15
ENDMDL
MODEL 8
REMARK VINA RESULT:      -3.9      0.990      3.729
REMARK  Name = *****
REMARK                            x       y       z     vdW  Elec       q    Type
REMARK                         _______ _______ _______ _____ _____    ______ ____
ROOT
ATOM      1  C   LIG    1       25.175 -17.932   3.312  0.00  0.00    +0.101 C 
ENDROOT
BRANCH   1   2
ATOM      2  N   LIG    1       25.390 -19.317   3.818  0.00  0.00    -0.281 NA
BRANCH   2   3
ATOM      3  C   LIG    1       25.704 -19.316   5.283  0.00  0.00    +0.206 C 
BRANCH   3   5
ATOM      4  O   LIG    1       26.423 -21.436   6.260  0.00  0.00    -0.250 OA
ATOM      5  C   LIG    1       26.708 -20.410   5.623  0.00  0.00    +0.319 C 
BRANCH   5   6
ATOM      6  O   LIG    1       27.941 -20.195   5.112  0.00  0.00    -0.480 OA
ATOM      7  H   LIG    1       27.846 -19.589   4.340  0.00  0.00    +0.295 HD
ENDBRANCH   5   6
ENDBRANCH   3   5
ENDBRANCH   2   3
BRANCH   2   8
ATOM      8  C   LIG    1       24.312 -20.326   3.543  0.00  0.00    +0.206 C 
BRANCH   8   9
ATOM      9  C   LIG    1       23.117 -20.327   4.498  0.00  0.00    +0.319 C 
ATOM     10  O   LIG    1       22.521 -19.346   4.901  0.00  0.00    -0.250 OA
BRANCH   9  11
ATOM     11  O   LIG    1       22.685 -21.572   4.767  0.00  0.00    -0.480 OA
ATOM     12  H   LIG    1       23.477 -22.145   4.755  0.00  0.00    +0.295 HD
ENDBRANCH   9  11
ENDBRANCH   8   9
ENDBRANCH   2   8
ENDBRANCH   1   2
BRANCH   1  13
ATOM     13  C   LIG    1       26.380 -16.938   3.332  0.00  0.00    +0.101 C 
BRANCH  13  14
ATOM     14  N   LIG    1       26.130 -15.519   3.778  0.00  0.00    -0.281 NA
BRANCH  14  15
ATOM     15  C   LIG    1       24.662 -15.191   3.720  0.00  0.00    +0.206 C 
BRANCH  15  16
ATOM     16  C   LIG    1       24.288 -13.697   3.719  0.00  0.00    +0.319 C 
ATOM     17  O   LIG    1       24.435 -12.961   4.684  0.00  0.00    -0.250 OA
BRANCH  16  18
ATOM     18  O   LIG    1       23.665 -13.250   2.603  0.00  0.00    -0.480 OA
ATOM     19  H   LIG    1       22.731 -13.006   2.707  0.00  0.00    +0.295 HD
ENDBRANCH  16  18
ENDBRANCH  15  16
ENDBRANCH  14  15
BRANCH  14  20
ATOM     20  C   LIG    1       26.958 -14.545   3.031  0.00  0.00    +0.206 C 
BRANCH  20  21
ATOM     21  C   LIG    1       27.918 -13.758   3.914  0.00  0.00    +0.319 C 
ATOM     22  O   LIG    1       29.002 -13.352   3.504  0.00  0.00    -0.250 OA
BRANCH  21  23
ATOM     23  O   LIG    1       27.409 -13.455   5.119  0.00  0.00    -0.480 OA
ATOM     24  H   LIG    1       26.767 -12.718   5.027  0.00  0.00    +0.295 HD
ENDBRANCH  21  23
ENDBRANCH  20  21
ENDBRANCH  14  20
ENDBRANCH  13  14
ENDBRANCH   1  13
TORSDOF 15
ENDMDL
MODEL 9
REMARK VINA RESULT:      -3.2      1.332      2.713
REMARK  Name = *****
REMARK                            x       y       z     vdW  Elec       q    Type
REMARK                         _______ _______ _______ _____ _____    ______ ____
ROOT
ATOM      1  C   LIG    1       25.817 -17.686   3.037  0.00  0.00    +0.101 C 
ENDROOT
BRANCH   1   2
ATOM      2  N   LIG    1       25.024 -18.515   3.987  0.00  0.00    -0.281 NA
BRANCH   2   3
ATOM      3  C   LIG    1       23.633 -18.740   3.480  0.00  0.00    +0.206 C 
BRANCH   3   5
ATOM      4  O   LIG    1       22.088 -19.316   5.283  0.00  0.00    -0.250 OA
ATOM      5  C   LIG    1       22.605 -18.445   4.566  0.00  0.00    +0.319 C 
BRANCH   5   6
ATOM      6  O   LIG    1       22.345 -17.128   4.725  0.00  0.00    -0.480 OA
ATOM      7  H   LIG    1       21.441 -17.043   5.107  0.00  0.00    +0.295 HD
ENDBRANCH   5   6
ENDBRANCH   3   5
ENDBRANCH   2   3
BRANCH   2   8
ATOM      8  C   LIG    1       25.614 -19.828   4.415  0.00  0.00    +0.206 C 
BRANCH   8   9
ATOM      9  C   LIG    1       24.680 -21.039   4.385  0.00  0.00    +0.319 C 
ATOM     10  O   LIG    1       24.226 -21.570   3.389  0.00  0.00    -0.250 OA
BRANCH   9  11
ATOM     11  O   LIG    1       24.493 -21.565   5.609  0.00  0.00    -0.480 OA
ATOM     12  H   LIG    1       24.729 -22.511   5.540  0.00  0.00    +0.295 HD
ENDBRANCH   9  11
ENDBRANCH   8   9
ENDBRANCH   2   8
ENDBRANCH   1   2
BRANCH   1  13
ATOM     13  C   LIG    1       26.839 -16.658   3.619  0.00  0.00    +0.101 C 
BRANCH  13  14
ATOM     14  N   LIG    1       26.441 -15.205   3.672  0.00  0.00    -0.281 NA
BRANCH  14  15
ATOM     15  C   LIG    1       24.944 -15.059   3.652  0.00  0.00    +0.206 C 
BRANCH  15  16
ATOM     16  C   LIG    1       24.389 -13.622   3.677  0.00  0.00    +0.319 C 
ATOM     17  O   LIG    1       24.592 -12.833   4.589  0.00  0.00    -0.250 OA
BRANCH  16  18
ATOM     18  O   LIG    1       23.546 -13.302   2.668  0.00  0.00    -0.480 OA
ATOM     19  H   LIG    1       23.659 -13.804   1.844  0.00  0.00    +0.295 HD
ENDBRANCH  16  18
ENDBRANCH  15  16
ENDBRANCH  14  15
BRANCH  14  20
ATOM     20  C   LIG    1       27.102 -14.407   2.613  0.00  0.00    +0.206 C 
BRANCH  20  21
ATOM     21  C   LIG    1       27.751 -13.128   3.130  0.00  0.00    +0.319 C 
ATOM     22  O   LIG    1       28.728 -13.144   3.872  0.00  0.00    -0.250 OA
BRANCH  21  23
ATOM     23  O   LIG    1       27.229 -12.011   2.597  0.00  0.00    -0.480 OA
ATOM     24  H   LIG    1       27.860 -11.268   2.711  0.00  0.00    +0.295 HD
ENDBRANCH  21  23
ENDBRANCH  20  21
ENDBRANCH  14  20
ENDBRANCH  13  14
ENDBRANCH   1  13
TORSDOF 15
ENDMDL
