MODEL 1
REMARK VINA RESULT:      -4.7      0.000      0.000
REMARK  Name = *****
REMARK                            x       y       z     vdW  Elec       q    Type
REMARK                         _______ _______ _______ _____ _____    ______ ____
ROOT
ATOM      1  C   LIG    1       22.075 -15.893   5.962  0.00  0.00    +0.033 C 
ATOM      2  C   LIG    1       22.298 -16.164   4.470  0.00  0.00    +0.106 C 
ENDROOT
BRANCH   2   3
ATOM      3  N   LIG    1       23.740 -15.994   4.197  0.00  0.00    -0.288 NA
ATOM      4  C   LIG    1       24.143 -14.772   4.108  0.00  0.00    +0.132 C 
BRANCH   4   5
ATOM      5  C   LIG    1       25.566 -14.347   3.780  0.00  0.00    +0.225 C 
ATOM      6 CL   LIG    1       25.483 -13.294   2.345  0.00  0.00    -0.077 Cl
ATOM      7 CL   LIG    1       26.479 -15.824   3.383  0.00  0.00    -0.077 Cl
ATOM      8 CL   LIG    1       26.341 -13.494   5.126  0.00  0.00    -0.077 Cl
ENDBRANCH   4   5
ENDBRANCH   2   3
BRANCH   2   9
ATOM      9  C   LIG    1       21.868 -17.600   4.089  0.00  0.00    +0.061 C 
BRANCH   9  10
ATOM     10  C   LIG    1       22.879 -18.674   4.453  0.00  0.00    -0.045 A 
ATOM     11  C   LIG    1       24.038 -18.870   3.689  0.00  0.00    +0.003 A 
ATOM     12  C   LIG    1       24.956 -19.870   4.033  0.00  0.00    +0.000 A 
ATOM     13  C   LIG    1       24.720 -20.691   5.135  0.00  0.00    +0.000 A 
ATOM     14  C   LIG    1       23.569 -20.510   5.897  0.00  0.00    +0.000 A 
ATOM     15  C   LIG    1       22.657 -19.506   5.561  0.00  0.00    +0.003 A 
ENDBRANCH   9  10
ENDBRANCH   2   9
TORSDOF 4
ENDMDL
MODEL 2
REMARK VINA RESULT:      -4.7      0.054      1.311
REMARK  Name = *****
REMARK                            x       y       z     vdW  Elec       q    Type
REMARK                         _______ _______ _______ _____ _____    ______ ____
ROOT
ATOM      1  C   LIG    1       22.101 -15.892   5.991  0.00  0.00    +0.033 C 
ATOM      2  C   LIG    1       22.287 -16.167   4.495  0.00  0.00    +0.106 C 
ENDROOT
BRANCH   2   3
ATOM      3  N   LIG    1       23.723 -15.999   4.187  0.00  0.00    -0.288 NA
ATOM      4  C   LIG    1       24.124 -14.778   4.080  0.00  0.00    +0.132 C 
BRANCH   4   5
ATOM      5  C   LIG    1       25.538 -14.354   3.716  0.00  0.00    +0.225 C 
ATOM      6 CL   LIG    1       26.471 -15.842   3.412  0.00  0.00    -0.077 Cl
ATOM      7 CL   LIG    1       26.214 -13.505   5.128  0.00  0.00    -0.077 Cl
ATOM      8 CL   LIG    1       25.579 -13.300   2.292  0.00  0.00    -0.077 Cl
ENDBRANCH   4   5
ENDBRANCH   2   3
BRANCH   2   9
ATOM      9  C   LIG    1       21.848 -17.604   4.128  0.00  0.00    +0.061 C 
BRANCH   9  10
ATOM     10  C   LIG    1       22.866 -18.677   4.470  0.00  0.00    -0.045 A 
ATOM     11  C   LIG    1       24.010 -18.872   3.684  0.00  0.00    +0.003 A 
ATOM     12  C   LIG    1       24.935 -19.872   4.009  0.00  0.00    +0.000 A 
ATOM     13  C   LIG    1       24.721 -20.694   5.114  0.00  0.00    +0.000 A 
ATOM     14  C   LIG    1       23.584 -20.515   5.898  0.00  0.00    +0.000 A 
ATOM     15  C   LIG    1       22.665 -19.510   5.582  0.00  0.00    +0.003 A 
ENDBRANCH   9  10
ENDBRANCH   2   9
TORSDOF 4
ENDMDL
MODEL 3
REMARK VINA RESULT:      -4.7      1.838      3.015
REMARK  Name = *****
REMARK                            x       y       z     vdW  Elec       q    Type
REMARK                         _______ _______ _______ _____ _____    ______ ____
ROOT
ATOM      1  C   LIG    1       27.616 -17.455   4.057  0.00  0.00    +0.033 C 
ATOM      2  C   LIG    1       26.137 -17.130   3.820  0.00  0.00    +0.106 C 
ENDROOT
BRANCH   2   3
ATOM      3  N   LIG    1       26.074 -15.838   3.105  0.00  0.00    -0.288 NA
ATOM      4  C   LIG    1       25.698 -14.831   3.818  0.00  0.00    +0.132 C 
BRANCH   4   5
ATOM      5  C   LIG    1       25.505 -13.417   3.294  0.00  0.00    +0.225 C 
ATOM      6 CL   LIG    1       27.125 -12.741   2.992  0.00  0.00    -0.077 Cl
ATOM      7 CL   LIG    1       24.700 -12.484   4.580  0.00  0.00    -0.077 Cl
ATOM      8 CL   LIG    1       24.534 -13.376   1.812  0.00  0.00    -0.077 Cl
ENDBRANCH   4   5
ENDBRANCH   2   3
BRANCH   2   9
ATOM      9  C   LIG    1       25.449 -18.223   2.969  0.00  0.00    +0.061 C 
BRANCH   9  10
ATOM     10  C   LIG    1       24.495 -19.112   3.745  0.00  0.00    -0.045 A 
ATOM     11  C   LIG    1       23.222 -18.660   4.121  0.00  0.00    +0.003 A 
ATOM     12  C   LIG    1       22.356 -19.490   4.844  0.00  0.00    +0.000 A 
ATOM     13  C   LIG    1       22.757 -20.774   5.209  0.00  0.00    +0.000 A 
ATOM     14  C   LIG    1       24.021 -21.232   4.848  0.00  0.00    +0.000 A 
ATOM     15  C   LIG    1       24.883 -20.409   4.117  0.00  0.00    +0.003 A 
ENDBRANCH   9  10
ENDBRANCH   2   9
TORSDOF 4
ENDMDL
MODEL 4
REMARK VINA RESULT:      -4.7      0.064      1.288
REMARK  Name = *****
REMARK                            x       y       z     vdW  Elec       q    Type
REMARK                         _______ _______ _______ _____ _____    ______ ____
ROOT
ATOM      1  C   LIG    1       22.110 -15.892   5.959  0.00  0.00    +0.033 C 
ATOM      2  C   LIG    1       22.311 -16.165   4.465  0.00  0.00    +0.106 C 
ENDROOT
BRANCH   2   3
ATOM      3  N   LIG    1       23.750 -15.999   4.172  0.00  0.00    -0.288 NA
ATOM      4  C   LIG    1       24.161 -14.779   4.104  0.00  0.00    +0.132 C 
BRANCH   4   5
ATOM      5  C   LIG    1       25.582 -14.356   3.762  0.00  0.00    +0.225 C 
ATOM      6 CL   LIG    1       26.203 -13.427   5.149  0.00  0.00    -0.077 Cl
ATOM      7 CL   LIG    1       25.487 -13.299   2.331  0.00  0.00    -0.077 Cl
ATOM      8 CL   LIG    1       26.633 -15.742   3.428  0.00  0.00    -0.077 Cl
ENDBRANCH   4   5
ENDBRANCH   2   3
BRANCH   2   9
ATOM      9  C   LIG    1       21.872 -17.600   4.090  0.00  0.00    +0.061 C 
BRANCH   9  10
ATOM     10  C   LIG    1       22.878 -18.678   4.455  0.00  0.00    -0.045 A 
ATOM     11  C   LIG    1       24.036 -18.880   3.690  0.00  0.00    +0.003 A 
ATOM     12  C   LIG    1       24.949 -19.884   4.034  0.00  0.00    +0.000 A 
ATOM     13  C   LIG    1       24.711 -20.702   5.137  0.00  0.00    +0.000 A 
ATOM     14  C   LIG    1       23.561 -20.515   5.900  0.00  0.00    +0.000 A 
ATOM     15  C   LIG    1       22.653 -19.507   5.564  0.00  0.00    +0.003 A 
ENDBRANCH   9  10
ENDBRANCH   2   9
TORSDOF 4
ENDMDL
MODEL 5
REMARK VINA RESULT:      -4.6      3.395      6.173
REMARK  Name = *****
REMARK                            x       y       z     vdW  Elec       q    Type
REMARK                         _______ _______ _______ _____ _____    ______ ____
ROOT
ATOM      1  C   LIG    1       27.229 -15.965   3.701  0.00  0.00    +0.033 C 
ATOM      2  C   LIG    1       25.829 -16.316   3.187  0.00  0.00    +0.106 C 
ENDROOT
BRANCH   2   3
ATOM      3  N   LIG    1       25.639 -17.771   3.371  0.00  0.00    -0.288 NA
ATOM      4  C   LIG    1       24.500 -18.119   3.864  0.00  0.00    +0.132 C 
BRANCH   4   5
ATOM      5  C   LIG    1       24.095 -19.547   4.195  0.00  0.00    +0.225 C 
ATOM      6 CL   LIG    1       25.382 -20.237   5.216  0.00  0.00    -0.077 Cl
ATOM      7 CL   LIG    1       24.011 -20.441   2.656  0.00  0.00    -0.077 Cl
ATOM      8 CL   LIG    1       22.535 -19.627   5.032  0.00  0.00    -0.077 Cl
ENDBRANCH   4   5
ENDBRANCH   2   3
BRANCH   2   9
ATOM      9  C   LIG    1       24.734 -15.552   3.967  0.00  0.00    +0.061 C 
BRANCH   9  10
ATOM     10  C   LIG    1       24.525 -14.119   3.511  0.00  0.00    -0.045 A 
ATOM     11  C   LIG    1       24.877 -13.708   2.218  0.00  0.00    +0.003 A 
ATOM     12  C   LIG    1       24.685 -12.381   1.815  0.00  0.00    +0.000 A 
ATOM     13  C   LIG    1       24.152 -11.448   2.703  0.00  0.00    +0.000 A 
ATOM     14  C   LIG    1       23.806 -11.842   3.993  0.00  0.00    +0.000 A 
ATOM     15  C   LIG    1       23.986 -13.170   4.393  0.00  0.00    +0.003 A 
ENDBRANCH   9  10
ENDBRANCH   2   9
TORSDOF 4
ENDMDL
MODEL 6
REMARK VINA RESULT:      -4.5      1.877      2.976
REMARK  Name = *****
REMARK                            x       y       z     vdW  Elec       q    Type
REMARK                         _______ _______ _______ _____ _____    ______ ____
ROOT
ATOM      1  C   LIG    1       27.744 -17.829   4.115  0.00  0.00    +0.033 C 
ATOM      2  C   LIG    1       26.271 -17.431   3.967  0.00  0.00    +0.106 C 
ENDROOT
BRANCH   2   3
ATOM      3  N   LIG    1       26.233 -16.085   3.359  0.00  0.00    -0.288 NA
ATOM      4  C   LIG    1       26.829 -15.160   4.031  0.00  0.00    +0.132 C 
BRANCH   4   5
ATOM      5  C   LIG    1       26.877 -13.692   3.637  0.00  0.00    +0.225 C 
ATOM      6 CL   LIG    1       25.900 -12.796   4.828  0.00  0.00    -0.077 Cl
ATOM      7 CL   LIG    1       26.127 -13.553   2.027  0.00  0.00    -0.077 Cl
ATOM      8 CL   LIG    1       28.531 -13.059   3.596  0.00  0.00    -0.077 Cl
ENDBRANCH   4   5
ENDBRANCH   2   3
BRANCH   2   9
ATOM      9  C   LIG    1       25.507 -18.427   3.063  0.00  0.00    +0.061 C 
BRANCH   9  10
ATOM     10  C   LIG    1       24.461 -19.255   3.788  0.00  0.00    -0.045 A 
ATOM     11  C   LIG    1       24.710 -20.587   4.149  0.00  0.00    +0.003 A 
ATOM     12  C   LIG    1       23.732 -21.340   4.809  0.00  0.00    +0.000 A 
ATOM     13  C   LIG    1       22.492 -20.776   5.105  0.00  0.00    +0.000 A 
ATOM     14  C   LIG    1       22.230 -19.457   4.745  0.00  0.00    +0.000 A 
ATOM     15  C   LIG    1       23.210 -18.700   4.095  0.00  0.00    +0.003 A 
ENDBRANCH   9  10
ENDBRANCH   2   9
TORSDOF 4
ENDMDL
MODEL 7
REMARK VINA RESULT:      -4.3      3.613      6.310
REMARK  Name = *****
REMARK                            x       y       z     vdW  Elec       q    Type
REMARK                         _______ _______ _______ _____ _____    ______ ____
ROOT
ATOM      1  C   LIG    1       27.158 -17.168   3.885  0.00  0.00    +0.033 C 
ATOM      2  C   LIG    1       25.854 -16.906   3.123  0.00  0.00    +0.106 C 
ENDROOT
BRANCH   2   3
ATOM      3  N   LIG    1       24.849 -17.870   3.616  0.00  0.00    -0.288 NA
ATOM      4  C   LIG    1       25.315 -19.020   3.967  0.00  0.00    +0.132 C 
BRANCH   4   5
ATOM      5  C   LIG    1       24.472 -20.190   4.452  0.00  0.00    +0.225 C 
ATOM      6 CL   LIG    1       22.945 -19.515   5.075  0.00  0.00    -0.077 Cl
ATOM      7 CL   LIG    1       25.365 -20.968   5.782  0.00  0.00    -0.077 Cl
ATOM      8 CL   LIG    1       24.148 -21.364   3.165  0.00  0.00    -0.077 Cl
ENDBRANCH   4   5
ENDBRANCH   2   3
BRANCH   2   9
ATOM      9  C   LIG    1       25.344 -15.465   3.358  0.00  0.00    +0.061 C 
BRANCH   9  10
ATOM     10  C   LIG    1       26.420 -14.482   3.786  0.00  0.00    -0.045 A 
ATOM     11  C   LIG    1       27.417 -14.062   2.895  0.00  0.00    +0.003 A 
ATOM     12  C   LIG    1       28.407 -13.162   3.307  0.00  0.00    +0.000 A 
ATOM     13  C   LIG    1       28.418 -12.682   4.616  0.00  0.00    +0.000 A 
ATOM     14  C   LIG    1       27.437 -13.098   5.513  0.00  0.00    +0.000 A 
ATOM     15  C   LIG    1       26.442 -13.988   5.100  0.00  0.00    +0.003 A 
ENDBRANCH   9  10
ENDBRANCH   2   9
TORSDOF 4
ENDMDL
MODEL 8
REMARK VINA RESULT:      -4.2      3.555      6.398
REMARK  Name = *****
REMARK                            x       y       z     vdW  Elec       q    Type
REMARK                         _______ _______ _______ _____ _____    ______ ____
ROOT
ATOM      1  C   LIG    1       27.077 -17.109   3.784  0.00  0.00    +0.033 C 
ATOM      2  C   LIG    1       25.736 -16.771   3.122  0.00  0.00    +0.106 C 
ENDROOT
BRANCH   2   3
ATOM      3  N   LIG    1       24.737 -17.738   3.622  0.00  0.00    -0.288 NA
ATOM      4  C   LIG    1       25.203 -18.897   3.939  0.00  0.00    +0.132 C 
BRANCH   4   5
ATOM      5  C   LIG    1       24.364 -20.070   4.422  0.00  0.00    +0.225 C 
ATOM      6 CL   LIG    1       24.101 -21.141   3.022  0.00  0.00    -0.077 Cl
ATOM      7 CL   LIG    1       22.802 -19.411   4.969  0.00  0.00    -0.077 Cl
ATOM      8 CL   LIG    1       25.147 -20.959   5.740  0.00  0.00    -0.077 Cl
ENDBRANCH   4   5
ENDBRANCH   2   3
BRANCH   2   9
ATOM      9  C   LIG    1       25.282 -15.334   3.472  0.00  0.00    +0.061 C 
BRANCH   9  10
ATOM     10  C   LIG    1       26.413 -14.397   3.858  0.00  0.00    -0.045 A 
ATOM     11  C   LIG    1       26.512 -13.872   5.155  0.00  0.00    +0.003 A 
ATOM     12  C   LIG    1       27.556 -13.002   5.492  0.00  0.00    +0.000 A 
ATOM     13  C   LIG    1       28.503 -12.638   4.537  0.00  0.00    +0.000 A 
ATOM     14  C   LIG    1       28.411 -13.147   3.244  0.00  0.00    +0.000 A 
ATOM     15  C   LIG    1       27.376 -14.024   2.908  0.00  0.00    +0.003 A 
ENDBRANCH   9  10
ENDBRANCH   2   9
TORSDOF 4
ENDMDL
MODEL 9
REMARK VINA RESULT:      -3.5      3.076      5.641
REMARK  Name = *****
REMARK                            x       y       z     vdW  Elec       q    Type
REMARK                         _______ _______ _______ _____ _____    ______ ____
ROOT
ATOM      1  C   LIG    1       22.098 -15.015   5.857  0.00  0.00    +0.033 C 
ATOM      2  C   LIG    1       23.290 -15.403   4.975  0.00  0.00    +0.106 C 
ENDROOT
BRANCH   2   3
ATOM      3  N   LIG    1       22.900 -16.599   4.200  0.00  0.00    -0.288 NA
ATOM      4  C   LIG    1       22.761 -17.680   4.890  0.00  0.00    +0.132 C 
BRANCH   4   5
ATOM      5  C   LIG    1       22.421 -19.045   4.310  0.00  0.00    +0.225 C 
ATOM      6 CL   LIG    1       23.680 -19.436   3.111  0.00  0.00    -0.077 Cl
ATOM      7 CL   LIG    1       20.846 -18.891   3.491  0.00  0.00    -0.077 Cl
ATOM      8 CL   LIG    1       22.342 -20.303   5.554  0.00  0.00    -0.077 Cl
ENDBRANCH   4   5
ENDBRANCH   2   3
BRANCH   2   9
ATOM      9  C   LIG    1       23.666 -14.260   4.003  0.00  0.00    +0.061 C 
BRANCH   9  10
ATOM     10  C   LIG    1       25.158 -14.001   3.888  0.00  0.00    -0.045 A 
ATOM     11  C   LIG    1       25.837 -14.185   2.675  0.00  0.00    +0.003 A 
ATOM     12  C   LIG    1       27.215 -13.950   2.588  0.00  0.00    +0.000 A 
ATOM     13  C   LIG    1       27.929 -13.541   3.713  0.00  0.00    +0.000 A 
ATOM     14  C   LIG    1       27.267 -13.362   4.925  0.00  0.00    +0.000 A 
ATOM     15  C   LIG    1       25.890 -13.586   5.011  0.00  0.00    +0.003 A 
ENDBRANCH   9  10
ENDBRANCH   2   9
TORSDOF 4
ENDMDL
