MODEL 1
REMARK VINA RESULT:       9.5      0.000      0.000
REMARK  Name = *****
REMARK                            x       y       z     vdW  Elec       q    Type
REMARK                         _______ _______ _______ _____ _____    ______ ____
ROOT
ATOM      1  N   LIG    1       25.743 -16.003   2.721  0.00  0.00    -0.297 N 
ATOM      2  C   LIG    1       26.586 -14.798   2.766  0.00  0.00    +0.123 C 
ATOM      3  C   LIG    1       25.911 -13.616   2.039  0.00  0.00    +0.104 C 
ATOM      4  N   LIG    1       24.512 -13.308   2.465  0.00  0.00    -0.289 NA
ATOM      5  C   LIG    1       23.756 -14.571   2.282  0.00  0.00    +0.104 C 
ATOM      6  C   LIG    1       24.321 -15.808   3.021  0.00  0.00    +0.123 C 
ENDROOT
BRANCH   1   9
ATOM      7  C   LIG    1       26.263 -19.238   4.096  0.00  0.00    +0.221 A 
ATOM      8  N   LIG    1       25.657 -18.255   3.439  0.00  0.00    -0.181 NA
ATOM      9  C   LIG    1       26.319 -17.101   3.382  0.00  0.00    +0.224 A 
ATOM     10  N   LIG    1       27.510 -16.932   3.923  0.00  0.00    -0.181 NA
ATOM     11  C   LIG    1       28.059 -17.968   4.537  0.00  0.00    +0.221 A 
ATOM     12  N   LIG    1       27.472 -19.150   4.620  0.00  0.00    -0.181 NA
BRANCH   7  13
ATOM     13  N   LIG    1       25.531 -20.414   4.251  0.00  0.00    -0.310 N 
ATOM     14  H   LIG    1       25.626 -20.721   5.207  0.00  0.00    +0.149 HD
BRANCH  13  15
ATOM     15  C   LIG    1       24.194 -20.349   3.705  0.00  0.00    +0.131 C 
BRANCH  15  17
ATOM     16  C   LIG    1       22.475 -19.652   5.392  0.00  0.00    +0.005 C 
ATOM     17  C   LIG    1       23.217 -20.607   4.814  0.00  0.00    -0.016 C 
ENDBRANCH  15  17
ENDBRANCH  13  15
ENDBRANCH   7  13
BRANCH  11  18
ATOM     18  N   LIG    1       29.285 -17.834   5.155  0.00  0.00    -0.310 N 
ATOM     19  H   LIG    1       29.691 -16.942   4.888  0.00  0.00    +0.149 HD
BRANCH  18  20
ATOM     20  C   LIG    1       29.362 -18.214   6.544  0.00  0.00    +0.131 C 
BRANCH  20  21
ATOM     21  C   LIG    1       29.079 -19.684   6.613  0.00  0.00    -0.016 C 
ATOM     22  C   LIG    1       27.924 -20.192   7.062  0.00  0.00    +0.005 C 
ENDBRANCH  20  21
ENDBRANCH  18  20
ENDBRANCH  11  18
ENDBRANCH   1   9
BRANCH   4  23
ATOM     23  C   LIG    1       24.452 -12.733   3.848  0.00  0.00    +0.117 C 
BRANCH  23  24
ATOM     24  C   LIG    1       25.818 -12.614   4.561  0.00  0.00    -0.026 A 
ATOM     25  C   LIG    1       26.973 -12.161   3.894  0.00  0.00    +0.008 A 
ATOM     26  C   LIG    1       28.208 -12.094   4.555  0.00  0.00    +0.039 A 
ATOM     27  C   LIG    1       28.296 -12.453   5.894  0.00  0.00    +0.123 A 
ATOM     28  F   LIG    1       29.473 -12.370   6.528  0.00  0.00    -0.205 F 
ATOM     29  C   LIG    1       27.177 -12.904   6.579  0.00  0.00    +0.039 A 
ATOM     30  C   LIG    1       25.949 -13.004   5.911  0.00  0.00    +0.008 A 
ENDBRANCH  23  24
BRANCH  23  31
ATOM     31  C   LIG    1       23.455 -13.503   4.744  0.00  0.00    -0.026 A 
ATOM     32  C   LIG    1       23.172 -14.869   4.526  0.00  0.00    +0.008 A 
ATOM     33  C   LIG    1       22.221 -15.541   5.295  0.00  0.00    +0.039 A 
ATOM     34  C   LIG    1       21.573 -14.865   6.318  0.00  0.00    +0.123 A 
ATOM     35  F   LIG    1       20.663 -15.509   7.059  0.00  0.00    -0.205 F 
ATOM     36  C   LIG    1       21.859 -13.531   6.585  0.00  0.00    +0.039 A 
ATOM     37  C   LIG    1       22.796 -12.848   5.801  0.00  0.00    +0.008 A 
ENDBRANCH  23  31
ENDBRANCH   4  23
TORSDOF 10
ENDMDL
