MODEL 1
REMARK VINA RESULT:      -8.5      0.000      0.000
REMARK  Name = *****
REMARK                            x       y       z     vdW  Elec       q    Type
REMARK                         _______ _______ _______ _____ _____    ______ ____
ROOT
ATOM      1  C   LIG    1       25.449 -21.111   6.700  0.00  0.00    +0.148 C 
ATOM      2  C   LIG    1       25.979 -20.354   5.474  0.00  0.00    +0.240 C 
ATOM      3  O   LIG    1       25.267 -19.920   4.567  0.00  0.00    -0.274 OA
ATOM      4  N   LIG    1       27.338 -20.218   5.383  0.00  0.00    -0.239 N 
ATOM      5  H   LIG    1       27.675 -19.735   4.561  0.00  0.00    +0.159 HD
ATOM      6  C   LIG    1       28.176 -20.185   6.450  0.00  0.00    +0.312 C 
ATOM      7  O   LIG    1       29.284 -19.665   6.375  0.00  0.00    -0.252 OA
ATOM      8  N   LIG    1       27.690 -20.646   7.630  0.00  0.00    -0.239 N 
ATOM      9  H   LIG    1       28.282 -20.475   8.431  0.00  0.00    +0.159 HD
ATOM     10  C   LIG    1       26.361 -20.822   7.901  0.00  0.00    +0.240 C 
ATOM     11  O   LIG    1       25.976 -20.795   9.071  0.00  0.00    -0.274 OA
ENDROOT
BRANCH   1  12
ATOM     12  C   LIG    1       25.395 -22.638   6.411  0.00  0.00    -0.024 A 
ATOM     13  C   LIG    1       24.899 -23.136   5.190  0.00  0.00    +0.005 A 
ATOM     14  C   LIG    1       24.885 -24.507   4.919  0.00  0.00    +0.000 A 
ATOM     15  C   LIG    1       25.380 -25.411   5.854  0.00  0.00    +0.000 A 
ATOM     16  C   LIG    1       25.901 -24.942   7.055  0.00  0.00    +0.000 A 
ATOM     17  C   LIG    1       25.917 -23.572   7.328  0.00  0.00    +0.005 A 
ENDBRANCH   1  12
BRANCH   1  19
ATOM     18  C   LIG    1       23.059 -21.786   7.472  0.00  0.00    +0.005 C 
ATOM     19  C   LIG    1       23.992 -20.665   7.016  0.00  0.00    +0.027 C 
ENDBRANCH   1  19
TORSDOF 2
ENDMDL
MODEL 2
REMARK VINA RESULT:      -8.3      2.540      4.657
REMARK  Name = *****
REMARK                            x       y       z     vdW  Elec       q    Type
REMARK                         _______ _______ _______ _____ _____    ______ ____
ROOT
ATOM      1  C   LIG    1       24.408 -21.196   5.955  0.00  0.00    +0.148 C 
ATOM      2  C   LIG    1       23.796 -22.024   7.096  0.00  0.00    +0.240 C 
ATOM      3  O   LIG    1       23.111 -21.551   8.003  0.00  0.00    -0.274 OA
ATOM      4  N   LIG    1       24.096 -23.359   7.107  0.00  0.00    -0.239 N 
ATOM      5  H   LIG    1       23.703 -23.889   7.874  0.00  0.00    +0.159 HD
ATOM      6  C   LIG    1       24.388 -24.087   6.000  0.00  0.00    +0.312 C 
ATOM      7  O   LIG    1       24.245 -25.305   5.981  0.00  0.00    -0.252 OA
ATOM      8  N   LIG    1       24.731 -23.398   4.882  0.00  0.00    -0.239 N 
ATOM      9  H   LIG    1       24.799 -23.955   4.041  0.00  0.00    +0.159 HD
ATOM     10  C   LIG    1       24.488 -22.065   4.692  0.00  0.00    +0.240 C 
ATOM     11  O   LIG    1       24.401 -21.626   3.544  0.00  0.00    -0.274 OA
ENDROOT
BRANCH   1  12
ATOM     12  C   LIG    1       25.820 -20.685   6.356  0.00  0.00    -0.024 A 
ATOM     13  C   LIG    1       26.272 -20.751   7.689  0.00  0.00    +0.005 A 
ATOM     14  C   LIG    1       27.556 -20.322   8.040  0.00  0.00    +0.000 A 
ATOM     15  C   LIG    1       28.423 -19.835   7.067  0.00  0.00    +0.000 A 
ATOM     16  C   LIG    1       28.010 -19.787   5.740  0.00  0.00    +0.000 A 
ATOM     17  C   LIG    1       26.727 -20.215   5.385  0.00  0.00    +0.005 A 
ENDBRANCH   1  12
BRANCH   1  19
ATOM     18  C   LIG    1       22.191 -20.214   5.015  0.00  0.00    +0.005 C 
ATOM     19  C   LIG    1       23.537 -19.936   5.683  0.00  0.00    +0.027 C 
ENDBRANCH   1  19
TORSDOF 2
ENDMDL
MODEL 3
REMARK VINA RESULT:      -8.2      1.448      1.854
REMARK  Name = *****
REMARK                            x       y       z     vdW  Elec       q    Type
REMARK                         _______ _______ _______ _____ _____    ______ ____
ROOT
ATOM      1  C   LIG    1       24.575 -21.709   6.167  0.00  0.00    +0.148 C 
ATOM      2  C   LIG    1       25.770 -20.829   5.769  0.00  0.00    +0.240 C 
ATOM      3  O   LIG    1       25.960 -20.395   4.632  0.00  0.00    -0.274 OA
ATOM      4  N   LIG    1       26.693 -20.577   6.747  0.00  0.00    -0.239 N 
ATOM      5  H   LIG    1       27.484 -20.013   6.466  0.00  0.00    +0.159 HD
ATOM      6  C   LIG    1       26.411 -20.548   8.074  0.00  0.00    +0.312 C 
ATOM      7  O   LIG    1       27.123 -19.935   8.864  0.00  0.00    -0.252 OA
ATOM      8  N   LIG    1       25.249 -21.126   8.471  0.00  0.00    -0.239 N 
ATOM      9  H   LIG    1       24.999 -20.961   9.436  0.00  0.00    +0.159 HD
ATOM     10  C   LIG    1       24.212 -21.428   7.632  0.00  0.00    +0.240 C 
ATOM     11  O   LIG    1       23.071 -21.512   8.090  0.00  0.00    -0.274 OA
ENDROOT
BRANCH   1  12
ATOM     12  C   LIG    1       24.921 -23.212   5.969  0.00  0.00    -0.024 A 
ATOM     13  C   LIG    1       24.700 -23.858   4.737  0.00  0.00    +0.005 A 
ATOM     14  C   LIG    1       25.044 -25.201   4.552  0.00  0.00    +0.000 A 
ATOM     15  C   LIG    1       25.631 -25.923   5.586  0.00  0.00    +0.000 A 
ATOM     16  C   LIG    1       25.884 -25.299   6.803  0.00  0.00    +0.000 A 
ATOM     17  C   LIG    1       25.542 -23.957   6.991  0.00  0.00    +0.005 A 
ENDBRANCH   1  12
BRANCH   1  19
ATOM     18  C   LIG    1       22.784 -19.995   5.381  0.00  0.00    +0.005 C 
ATOM     19  C   LIG    1       23.357 -21.406   5.248  0.00  0.00    +0.027 C 
ENDBRANCH   1  19
TORSDOF 2
ENDMDL
MODEL 4
REMARK VINA RESULT:      -8.1      1.825      3.113
REMARK  Name = *****
REMARK                            x       y       z     vdW  Elec       q    Type
REMARK                         _______ _______ _______ _____ _____    ______ ____
ROOT
ATOM      1  C   LIG    1       25.160 -21.889   7.093  0.00  0.00    +0.148 C 
ATOM      2  C   LIG    1       23.785 -21.208   7.029  0.00  0.00    +0.240 C 
ATOM      3  O   LIG    1       23.014 -21.116   7.986  0.00  0.00    -0.274 OA
ATOM      4  N   LIG    1       23.396 -20.735   5.806  0.00  0.00    -0.239 N 
ATOM      5  H   LIG    1       22.480 -20.307   5.773  0.00  0.00    +0.159 HD
ATOM      6  C   LIG    1       24.253 -20.326   4.837  0.00  0.00    +0.312 C 
ATOM      7  O   LIG    1       23.897 -19.550   3.956  0.00  0.00    -0.252 OA
ATOM      8  N   LIG    1       25.547 -20.719   4.952  0.00  0.00    -0.239 N 
ATOM      9  H   LIG    1       26.185 -20.281   4.302  0.00  0.00    +0.159 HD
ATOM     10  C   LIG    1       26.109 -21.196   6.104  0.00  0.00    +0.240 C 
ATOM     11  O   LIG    1       27.326 -21.099   6.267  0.00  0.00    -0.274 OA
ENDROOT
BRANCH   1  12
ATOM     12  C   LIG    1       25.031 -23.401   6.757  0.00  0.00    -0.024 A 
ATOM     13  C   LIG    1       26.151 -24.255   6.780  0.00  0.00    +0.005 A 
ATOM     14  C   LIG    1       26.026 -25.621   6.511  0.00  0.00    +0.000 A 
ATOM     15  C   LIG    1       24.778 -26.169   6.229  0.00  0.00    +0.000 A 
ATOM     16  C   LIG    1       23.653 -25.351   6.228  0.00  0.00    +0.000 A 
ATOM     17  C   LIG    1       23.775 -23.985   6.498  0.00  0.00    +0.005 A 
ENDBRANCH   1  12
BRANCH   1  19
ATOM     18  C   LIG    1       26.116 -20.391   8.993  0.00  0.00    +0.005 C 
ATOM     19  C   LIG    1       25.735 -21.800   8.536  0.00  0.00    +0.027 C 
ENDBRANCH   1  19
TORSDOF 2
ENDMDL
MODEL 5
REMARK VINA RESULT:      -7.9      3.044      4.617
REMARK  Name = *****
REMARK                            x       y       z     vdW  Elec       q    Type
REMARK                         _______ _______ _______ _____ _____    ______ ____
ROOT
ATOM      1  C   LIG    1       24.412 -22.457   6.740  0.00  0.00    +0.148 C 
ATOM      2  C   LIG    1       25.829 -23.033   6.597  0.00  0.00    +0.240 C 
ATOM      3  O   LIG    1       26.821 -22.580   7.170  0.00  0.00    -0.274 OA
ATOM      4  N   LIG    1       25.976 -24.080   5.727  0.00  0.00    -0.239 N 
ATOM      5  H   LIG    1       26.917 -24.436   5.628  0.00  0.00    +0.159 HD
ATOM      6  C   LIG    1       24.993 -24.965   5.424  0.00  0.00    +0.312 C 
ATOM      7  O   LIG    1       25.253 -26.084   4.993  0.00  0.00    -0.252 OA
ATOM      8  N   LIG    1       23.721 -24.602   5.727  0.00  0.00    -0.239 N 
ATOM      9  H   LIG    1       23.033 -25.335   5.625  0.00  0.00    +0.159 HD
ATOM     10  C   LIG    1       23.391 -23.595   6.591  0.00  0.00    +0.240 C 
ATOM     11  O   LIG    1       22.296 -23.618   7.154  0.00  0.00    -0.274 OA
ENDROOT
BRANCH   1  12
ATOM     12  C   LIG    1       24.164 -21.359   5.667  0.00  0.00    -0.024 A 
ATOM     13  C   LIG    1       22.958 -20.633   5.627  0.00  0.00    +0.005 A 
ATOM     14  C   LIG    1       22.752 -19.622   4.684  0.00  0.00    +0.000 A 
ATOM     15  C   LIG    1       23.751 -19.302   3.771  0.00  0.00    +0.000 A 
ATOM     16  C   LIG    1       24.962 -19.985   3.808  0.00  0.00    +0.000 A 
ATOM     17  C   LIG    1       25.171 -20.996   4.751  0.00  0.00    +0.005 A 
ENDBRANCH   1  12
BRANCH   1  19
ATOM     18  C   LIG    1       25.273 -20.677   8.429  0.00  0.00    +0.005 C 
ATOM     19  C   LIG    1       24.250 -21.772   8.127  0.00  0.00    +0.027 C 
ENDBRANCH   1  19
TORSDOF 2
ENDMDL
MODEL 6
REMARK VINA RESULT:      -7.6      2.291      4.141
REMARK  Name = *****
REMARK                            x       y       z     vdW  Elec       q    Type
REMARK                         _______ _______ _______ _____ _____    ______ ____
ROOT
ATOM      1  C   LIG    1       24.053 -21.859   6.358  0.00  0.00    +0.148 C 
ATOM      2  C   LIG    1       24.072 -21.305   7.790  0.00  0.00    +0.240 C 
ATOM      3  O   LIG    1       23.063 -21.096   8.464  0.00  0.00    -0.274 OA
ATOM      4  N   LIG    1       25.299 -20.980   8.301  0.00  0.00    -0.239 N 
ATOM      5  H   LIG    1       25.296 -20.598   9.238  0.00  0.00    +0.159 HD
ATOM      6  C   LIG    1       26.463 -21.570   7.928  0.00  0.00    +0.312 C 
ATOM      7  O   LIG    1       27.446 -21.563   8.662  0.00  0.00    -0.252 OA
ATOM      8  N   LIG    1       26.456 -22.266   6.763  0.00  0.00    -0.239 N 
ATOM      9  H   LIG    1       27.289 -22.811   6.587  0.00  0.00    +0.159 HD
ATOM     10  C   LIG    1       25.323 -22.690   6.124  0.00  0.00    +0.240 C 
ATOM     11  O   LIG    1       25.385 -23.662   5.369  0.00  0.00    -0.274 OA
ENDROOT
BRANCH   1  12
ATOM     12  C   LIG    1       23.966 -20.696   5.330  0.00  0.00    -0.024 A 
ATOM     13  C   LIG    1       22.802 -19.912   5.207  0.00  0.00    +0.005 A 
ATOM     14  C   LIG    1       22.740 -18.845   4.306  0.00  0.00    +0.000 A 
ATOM     15  C   LIG    1       23.842 -18.526   3.520  0.00  0.00    +0.000 A 
ATOM     16  C   LIG    1       25.012 -19.268   3.642  0.00  0.00    +0.000 A 
ATOM     17  C   LIG    1       25.078 -20.335   4.543  0.00  0.00    +0.005 A 
ENDBRANCH   1  12
BRANCH   1  19
ATOM     18  C   LIG    1       22.858 -24.130   6.778  0.00  0.00    +0.005 C 
ATOM     19  C   LIG    1       22.791 -22.742   6.142  0.00  0.00    +0.027 C 
ENDBRANCH   1  19
TORSDOF 2
ENDMDL
MODEL 7
REMARK VINA RESULT:      -7.6      2.634      4.191
REMARK  Name = *****
REMARK                            x       y       z     vdW  Elec       q    Type
REMARK                         _______ _______ _______ _____ _____    ______ ____
ROOT
ATOM      1  C   LIG    1       24.606 -21.891   6.215  0.00  0.00    +0.148 C 
ATOM      2  C   LIG    1       24.254 -21.837   4.721  0.00  0.00    +0.240 C 
ATOM      3  O   LIG    1       24.519 -22.730   3.915  0.00  0.00    -0.274 OA
ATOM      4  N   LIG    1       23.660 -20.687   4.277  0.00  0.00    -0.239 N 
ATOM      5  H   LIG    1       23.451 -20.656   3.288  0.00  0.00    +0.159 HD
ATOM      6  C   LIG    1       22.893 -19.876   5.049  0.00  0.00    +0.312 C 
ATOM      7  O   LIG    1       22.066 -19.118   4.552  0.00  0.00    -0.252 OA
ATOM      8  N   LIG    1       22.998 -20.024   6.394  0.00  0.00    -0.239 N 
ATOM      9  H   LIG    1       22.314 -19.512   6.934  0.00  0.00    +0.159 HD
ATOM     10  C   LIG    1       23.544 -21.117   7.010  0.00  0.00    +0.240 C 
ATOM     11  O   LIG    1       23.207 -21.390   8.162  0.00  0.00    -0.274 OA
ENDROOT
BRANCH   1  12
ATOM     12  C   LIG    1       26.018 -21.288   6.460  0.00  0.00    -0.024 A 
ATOM     13  C   LIG    1       26.834 -21.740   7.516  0.00  0.00    +0.005 A 
ATOM     14  C   LIG    1       28.117 -21.219   7.712  0.00  0.00    +0.000 A 
ATOM     15  C   LIG    1       28.619 -20.250   6.851  0.00  0.00    +0.000 A 
ATOM     16  C   LIG    1       27.843 -19.807   5.785  0.00  0.00    +0.000 A 
ATOM     17  C   LIG    1       26.561 -20.326   5.585  0.00  0.00    +0.005 A 
ENDBRANCH   1  12
BRANCH   1  19
ATOM     18  C   LIG    1       23.325 -24.110   6.663  0.00  0.00    +0.005 C 
ATOM     19  C   LIG    1       24.661 -23.369   6.699  0.00  0.00    +0.027 C 
ENDBRANCH   1  19
TORSDOF 2
ENDMDL
MODEL 8
REMARK VINA RESULT:      -6.6      2.332      4.490
REMARK  Name = *****
REMARK                            x       y       z     vdW  Elec       q    Type
REMARK                         _______ _______ _______ _____ _____    ______ ____
ROOT
ATOM      1  C   LIG    1       25.450 -21.810   6.809  0.00  0.00    +0.148 C 
ATOM      2  C   LIG    1       25.727 -23.231   7.322  0.00  0.00    +0.240 C 
ATOM      3  O   LIG    1       25.912 -23.515   8.506  0.00  0.00    -0.274 OA
ATOM      4  N   LIG    1       25.824 -24.213   6.374  0.00  0.00    -0.239 N 
ATOM      5  H   LIG    1       26.026 -25.140   6.723  0.00  0.00    +0.159 HD
ATOM      6  C   LIG    1       25.196 -24.179   5.172  0.00  0.00    +0.312 C 
ATOM      7  O   LIG    1       24.966 -25.207   4.542  0.00  0.00    -0.252 OA
ATOM      8  N   LIG    1       24.729 -22.975   4.753  0.00  0.00    -0.239 N 
ATOM      9  H   LIG    1       24.143 -23.008   3.930  0.00  0.00    +0.159 HD
ATOM     10  C   LIG    1       24.549 -21.892   5.568  0.00  0.00    +0.240 C 
ATOM     11  O   LIG    1       23.732 -21.027   5.249  0.00  0.00    -0.274 OA
ENDROOT
BRANCH   1  12
ATOM     12  C   LIG    1       26.785 -21.090   6.467  0.00  0.00    -0.024 A 
ATOM     13  C   LIG    1       26.829 -20.030   5.539  0.00  0.00    +0.005 A 
ATOM     14  C   LIG    1       28.024 -19.362   5.260  0.00  0.00    +0.000 A 
ATOM     15  C   LIG    1       29.198 -19.724   5.912  0.00  0.00    +0.000 A 
ATOM     16  C   LIG    1       29.175 -20.748   6.853  0.00  0.00    +0.000 A 
ATOM     17  C   LIG    1       27.982 -21.418   7.135  0.00  0.00    +0.005 A 
ENDBRANCH   1  12
BRANCH   1  19
ATOM     18  C   LIG    1       25.698 -20.411   8.986  0.00  0.00    +0.005 C 
ATOM     19  C   LIG    1       24.758 -20.966   7.917  0.00  0.00    +0.027 C 
ENDBRANCH   1  19
TORSDOF 2
ENDMDL
MODEL 9
REMARK VINA RESULT:      -6.1      4.944      7.438
REMARK  Name = *****
REMARK                            x       y       z     vdW  Elec       q    Type
REMARK                         _______ _______ _______ _____ _____    ______ ____
ROOT
ATOM      1  C   LIG    1       30.316 -18.940   8.002  0.00  0.00    +0.148 C 
ATOM      2  C   LIG    1       29.302 -19.938   8.580  0.00  0.00    +0.240 C 
ATOM      3  O   LIG    1       28.083 -19.761   8.586  0.00  0.00    -0.274 OA
ATOM      4  N   LIG    1       29.820 -21.059   9.170  0.00  0.00    -0.239 N 
ATOM      5  H   LIG    1       29.143 -21.699   9.564  0.00  0.00    +0.159 HD
ATOM      6  C   LIG    1       31.008 -21.621   8.832  0.00  0.00    +0.312 C 
ATOM      7  O   LIG    1       31.245 -22.802   9.064  0.00  0.00    -0.252 OA
ATOM      8  N   LIG    1       31.874 -20.853   8.123  0.00  0.00    -0.239 N 
ATOM      9  H   LIG    1       32.682 -21.342   7.763  0.00  0.00    +0.159 HD
ATOM     10  C   LIG    1       31.525 -19.712   7.454  0.00  0.00    +0.240 C 
ATOM     11  O   LIG    1       32.210 -19.339   6.501  0.00  0.00    -0.274 OA
ENDROOT
BRANCH   1  12
ATOM     12  C   LIG    1       30.765 -17.930   9.096  0.00  0.00    -0.024 A 
ATOM     13  C   LIG    1       30.062 -17.805  10.310  0.00  0.00    +0.005 A 
ATOM     14  C   LIG    1       30.489 -16.922  11.306  0.00  0.00    +0.000 A 
ATOM     15  C   LIG    1       31.635 -16.156  11.120  0.00  0.00    +0.000 A 
ATOM     16  C   LIG    1       32.362 -16.282   9.941  0.00  0.00    +0.000 A 
ATOM     17  C   LIG    1       31.939 -17.165   8.944  0.00  0.00    +0.005 A 
ENDBRANCH   1  12
BRANCH   1  19
ATOM     18  C   LIG    1       29.157 -18.919   5.674  0.00  0.00    +0.005 C 
ATOM     19  C   LIG    1       29.657 -18.104   6.867  0.00  0.00    +0.027 C 
ENDBRANCH   1  19
TORSDOF 2
ENDMDL
