MODEL 1
REMARK VINA RESULT:      -7.6      0.000      0.000
REMARK  Name = *****
REMARK                            x       y       z     vdW  Elec       q    Type
REMARK                         _______ _______ _______ _____ _____    ______ ____
ROOT
ATOM      1  C   LIG    1       25.638 -22.122   6.503  0.00  0.00    +0.065 C 
ENDROOT
BRANCH   1   5
ATOM      2  C   LIG    1       29.464 -19.982   6.738  0.00  0.00    +0.120 A 
ATOM      3  C   LIG    1       29.162 -21.019   7.627  0.00  0.00    +0.046 A 
ATOM      4  C   LIG    1       27.937 -21.671   7.567  0.00  0.00    +0.007 A 
ATOM      5  C   LIG    1       26.974 -21.333   6.617  0.00  0.00    -0.040 A 
ATOM      6  C   LIG    1       27.258 -20.252   5.755  0.00  0.00    +0.007 A 
ATOM      7  C   LIG    1       28.489 -19.580   5.828  0.00  0.00    +0.046 A 
BRANCH   2   9
ATOM      8  C   LIG    1       31.257 -19.145   8.020  0.00  0.00    +0.277 C 
ATOM      9  O   LIG    1       30.663 -19.326   6.734  0.00  0.00    -0.495 OA
ENDBRANCH   2   9
ENDBRANCH   1   5
BRANCH   1  10
ATOM     10  C   LIG    1       24.435 -21.279   7.100  0.00  0.00    +0.074 C 
ATOM     11  C   LIG    1       23.937 -20.194   6.100  0.00  0.00    +0.035 C 
ATOM     12  C   LIG    1       23.197 -20.776   4.893  0.00  0.00    +0.003 C 
ATOM     13  C   LIG    1       22.019 -21.652   5.312  0.00  0.00    +0.000 C 
ATOM     14  C   LIG    1       22.425 -22.700   6.340  0.00  0.00    +0.003 C 
ATOM     15  C   LIG    1       23.181 -22.085   7.510  0.00  0.00    +0.035 C 
BRANCH  10  16
ATOM     16  O   LIG    1       24.862 -20.590   8.289  0.00  0.00    -0.388 OA
ATOM     17  H   LIG    1       24.264 -19.833   8.415  0.00  0.00    +0.210 HD
ENDBRANCH  10  16
ENDBRANCH   1  10
BRANCH   1  18
ATOM     18  C   LIG    1       25.934 -23.546   7.104  0.00  0.00    +0.094 C 
BRANCH  18  19
ATOM     19  N   LIG    1       26.075 -24.723   6.224  0.00  0.00    -0.308 NA
ATOM     20  C   LIG    1       25.088 -24.628   5.131  0.00  0.00    +0.104 C 
ATOM     21  C   LIG    1       25.864 -25.994   6.917  0.00  0.00    +0.104 C 
ENDBRANCH  18  19
ENDBRANCH   1  18
TORSDOF 6
ENDMDL
MODEL 2
REMARK VINA RESULT:      -7.5      1.626      3.157
REMARK  Name = *****
REMARK                            x       y       z     vdW  Elec       q    Type
REMARK                         _______ _______ _______ _____ _____    ______ ____
ROOT
ATOM      1  C   LIG    1       25.235 -20.795   6.685  0.00  0.00    +0.065 C 
ENDROOT
BRANCH   1   5
ATOM      2  C   LIG    1       29.366 -19.310   6.611  0.00  0.00    +0.120 A 
ATOM      3  C   LIG    1       28.607 -19.389   5.439  0.00  0.00    +0.046 A 
ATOM      4  C   LIG    1       27.312 -19.889   5.465  0.00  0.00    +0.007 A 
ATOM      5  C   LIG    1       26.715 -20.313   6.651  0.00  0.00    -0.040 A 
ATOM      6  C   LIG    1       27.498 -20.281   7.824  0.00  0.00    +0.007 A 
ATOM      7  C   LIG    1       28.815 -19.794   7.795  0.00  0.00    +0.046 A 
BRANCH   2   9
ATOM      8  C   LIG    1       31.316 -18.973   7.892  0.00  0.00    +0.277 C 
ATOM      9  O   LIG    1       30.634 -18.800   6.649  0.00  0.00    -0.495 OA
ENDBRANCH   2   9
ENDBRANCH   1   5
BRANCH   1  10
ATOM     10  C   LIG    1       25.039 -21.928   7.777  0.00  0.00    +0.074 C 
ATOM     11  C   LIG    1       23.567 -22.436   7.822  0.00  0.00    +0.035 C 
ATOM     12  C   LIG    1       23.173 -23.265   6.596  0.00  0.00    +0.003 C 
ATOM     13  C   LIG    1       24.109 -24.451   6.383  0.00  0.00    +0.000 C 
ATOM     14  C   LIG    1       25.573 -24.032   6.389  0.00  0.00    +0.003 C 
ATOM     15  C   LIG    1       25.918 -23.189   7.610  0.00  0.00    +0.035 C 
BRANCH  10  16
ATOM     16  O   LIG    1       25.345 -21.408   9.083  0.00  0.00    -0.388 OA
ATOM     17  H   LIG    1       24.658 -20.754   9.302  0.00  0.00    +0.210 HD
ENDBRANCH  10  16
ENDBRANCH   1  10
BRANCH   1  18
ATOM     18  C   LIG    1       24.858 -21.112   5.191  0.00  0.00    +0.094 C 
BRANCH  18  19
ATOM     19  N   LIG    1       23.720 -20.436   4.539  0.00  0.00    -0.308 NA
ATOM     20  C   LIG    1       24.235 -19.387   3.638  0.00  0.00    +0.104 C 
ATOM     21  C   LIG    1       22.796 -19.809   5.485  0.00  0.00    +0.104 C 
ENDBRANCH  18  19
ENDBRANCH   1  18
TORSDOF 6
ENDMDL
MODEL 3
REMARK VINA RESULT:      -6.9      2.782      5.473
REMARK  Name = *****
REMARK                            x       y       z     vdW  Elec       q    Type
REMARK                         _______ _______ _______ _____ _____    ______ ____
ROOT
ATOM      1  C   LIG    1       24.720 -21.310   5.747  0.00  0.00    +0.065 C 
ENDROOT
BRANCH   1   5
ATOM      2  C   LIG    1       24.739 -25.622   6.571  0.00  0.00    +0.120 A 
ATOM      3  C   LIG    1       23.548 -24.889   6.591  0.00  0.00    +0.046 A 
ATOM      4  C   LIG    1       23.553 -23.520   6.360  0.00  0.00    +0.007 A 
ATOM      5  C   LIG    1       24.733 -22.829   6.085  0.00  0.00    -0.040 A 
ATOM      6  C   LIG    1       25.940 -23.559   6.117  0.00  0.00    +0.007 A 
ATOM      7  C   LIG    1       25.937 -24.940   6.370  0.00  0.00    +0.046 A 
BRANCH   2   9
ATOM      8  C   LIG    1       24.480 -27.759   5.610  0.00  0.00    +0.277 C 
ATOM      9  O   LIG    1       24.789 -26.975   6.763  0.00  0.00    -0.495 OA
ENDBRANCH   2   9
ENDBRANCH   1   5
BRANCH   1  10
ATOM     10  C   LIG    1       24.033 -21.054   4.341  0.00  0.00    +0.074 C 
ATOM     11  C   LIG    1       22.533 -20.664   4.495  0.00  0.00    +0.035 C 
ATOM     12  C   LIG    1       22.327 -19.263   5.079  0.00  0.00    +0.003 C 
ATOM     13  C   LIG    1       23.046 -18.192   4.263  0.00  0.00    +0.000 C 
ATOM     14  C   LIG    1       24.508 -18.541   4.022  0.00  0.00    +0.003 C 
ATOM     15  C   LIG    1       24.671 -19.950   3.466  0.00  0.00    +0.035 C 
BRANCH  10  16
ATOM     16  O   LIG    1       24.076 -22.254   3.549  0.00  0.00    -0.388 OA
ATOM     17  H   LIG    1       24.535 -22.036   2.718  0.00  0.00    +0.210 HD
ENDBRANCH  10  16
ENDBRANCH   1  10
BRANCH   1  18
ATOM     18  C   LIG    1       26.197 -20.814   5.967  0.00  0.00    +0.094 C 
BRANCH  18  19
ATOM     19  N   LIG    1       26.623 -20.259   7.266  0.00  0.00    -0.308 NA
ATOM     20  C   LIG    1       27.959 -20.788   7.601  0.00  0.00    +0.104 C 
ATOM     21  C   LIG    1       25.716 -20.591   8.365  0.00  0.00    +0.104 C 
ENDBRANCH  18  19
ENDBRANCH   1  18
TORSDOF 6
ENDMDL
MODEL 4
REMARK VINA RESULT:      -6.7      2.153      3.348
REMARK  Name = *****
REMARK                            x       y       z     vdW  Elec       q    Type
REMARK                         _______ _______ _______ _____ _____    ______ ____
ROOT
ATOM      1  C   LIG    1       26.348 -20.381   6.189  0.00  0.00    +0.065 C 
ENDROOT
BRANCH   1   5
ATOM      2  C   LIG    1       30.435 -19.138   7.203  0.00  0.00    +0.120 A 
ATOM      3  C   LIG    1       29.563 -19.620   8.185  0.00  0.00    +0.046 A 
ATOM      4  C   LIG    1       28.262 -19.981   7.863  0.00  0.00    +0.007 A 
ATOM      5  C   LIG    1       27.781 -19.897   6.556  0.00  0.00    -0.040 A 
ATOM      6  C   LIG    1       28.644 -19.362   5.576  0.00  0.00    +0.007 A 
ATOM      7  C   LIG    1       29.954 -18.978   5.906  0.00  0.00    +0.046 A 
BRANCH   2   9
ATOM      8  C   LIG    1       31.936 -18.058   8.665  0.00  0.00    +0.277 C 
ATOM      9  O   LIG    1       31.733 -18.795   7.458  0.00  0.00    -0.495 OA
ENDBRANCH   2   9
ENDBRANCH   1   5
BRANCH   1  10
ATOM     10  C   LIG    1       26.081 -21.834   6.767  0.00  0.00    +0.074 C 
ATOM     11  C   LIG    1       25.442 -21.781   8.186  0.00  0.00    +0.035 C 
ATOM     12  C   LIG    1       23.990 -21.295   8.179  0.00  0.00    +0.003 C 
ATOM     13  C   LIG    1       23.109 -22.138   7.261  0.00  0.00    +0.000 C 
ATOM     14  C   LIG    1       23.708 -22.282   5.869  0.00  0.00    +0.003 C 
ATOM     15  C   LIG    1       25.160 -22.741   5.920  0.00  0.00    +0.035 C 
BRANCH  10  16
ATOM     16  O   LIG    1       27.325 -22.547   6.892  0.00  0.00    -0.388 OA
ATOM     17  H   LIG    1       27.991 -21.913   7.210  0.00  0.00    +0.210 HD
ENDBRANCH  10  16
ENDBRANCH   1  10
BRANCH   1  18
ATOM     18  C   LIG    1       26.207 -20.148   4.639  0.00  0.00    +0.094 C 
BRANCH  18  19
ATOM     19  N   LIG    1       25.115 -19.317   4.096  0.00  0.00    -0.308 NA
ATOM     20  C   LIG    1       24.293 -20.137   3.185  0.00  0.00    +0.104 C 
ATOM     21  C   LIG    1       25.587 -18.148   3.354  0.00  0.00    +0.104 C 
ENDBRANCH  18  19
ENDBRANCH   1  18
TORSDOF 6
ENDMDL
MODEL 5
REMARK VINA RESULT:      -6.5      1.169      1.499
REMARK  Name = *****
REMARK                            x       y       z     vdW  Elec       q    Type
REMARK                         _______ _______ _______ _____ _____    ______ ____
ROOT
ATOM      1  C   LIG    1       24.822 -22.000   5.644  0.00  0.00    +0.065 C 
ENDROOT
BRANCH   1   5
ATOM      2  C   LIG    1       28.563 -20.360   7.253  0.00  0.00    +0.120 A 
ATOM      3  C   LIG    1       27.864 -21.363   7.933  0.00  0.00    +0.046 A 
ATOM      4  C   LIG    1       26.665 -21.855   7.434  0.00  0.00    +0.007 A 
ATOM      5  C   LIG    1       26.123 -21.386   6.238  0.00  0.00    -0.040 A 
ATOM      6  C   LIG    1       26.801 -20.339   5.580  0.00  0.00    +0.007 A 
ATOM      7  C   LIG    1       28.004 -19.827   6.094  0.00  0.00    +0.046 A 
BRANCH   2   9
ATOM      8  C   LIG    1       30.534 -19.202   6.678  0.00  0.00    +0.277 C 
ATOM      9  O   LIG    1       29.760 -19.859   7.683  0.00  0.00    -0.495 OA
ENDBRANCH   2   9
ENDBRANCH   1   5
BRANCH   1  10
ATOM     10  C   LIG    1       23.556 -21.565   6.494  0.00  0.00    +0.074 C 
ATOM     11  C   LIG    1       23.398 -20.016   6.541  0.00  0.00    +0.035 C 
ATOM     12  C   LIG    1       22.962 -19.410   5.204  0.00  0.00    +0.003 C 
ATOM     13  C   LIG    1       21.668 -20.033   4.689  0.00  0.00    +0.000 C 
ATOM     14  C   LIG    1       21.733 -21.554   4.674  0.00  0.00    +0.003 C 
ATOM     15  C   LIG    1       22.194 -22.116   6.012  0.00  0.00    +0.035 C 
BRANCH  10  16
ATOM     16  O   LIG    1       23.701 -22.015   7.853  0.00  0.00    -0.388 OA
ATOM     17  H   LIG    1       22.886 -21.770   8.327  0.00  0.00    +0.210 HD
ENDBRANCH  10  16
ENDBRANCH   1  10
BRANCH   1  18
ATOM     18  C   LIG    1       25.121 -23.535   5.466  0.00  0.00    +0.094 C 
BRANCH  18  19
ATOM     19  N   LIG    1       24.820 -24.493   6.548  0.00  0.00    -0.308 NA
ATOM     20  C   LIG    1       26.019 -25.314   6.809  0.00  0.00    +0.104 C 
ATOM     21  C   LIG    1       23.712 -25.395   6.234  0.00  0.00    +0.104 C 
ENDBRANCH  18  19
ENDBRANCH   1  18
TORSDOF 6
ENDMDL
MODEL 6
REMARK VINA RESULT:      -6.4      2.222      5.402
REMARK  Name = *****
REMARK                            x       y       z     vdW  Elec       q    Type
REMARK                         _______ _______ _______ _____ _____    ______ ____
ROOT
ATOM      1  C   LIG    1       25.716 -21.395   6.273  0.00  0.00    +0.065 C 
ENDROOT
BRANCH   1   5
ATOM      2  C   LIG    1       22.615 -18.932   4.377  0.00  0.00    +0.120 A 
ATOM      3  C   LIG    1       22.425 -19.477   5.651  0.00  0.00    +0.046 A 
ATOM      4  C   LIG    1       23.396 -20.281   6.231  0.00  0.00    +0.007 A 
ATOM      5  C   LIG    1       24.598 -20.562   5.582  0.00  0.00    -0.040 A 
ATOM      6  C   LIG    1       24.768 -20.055   4.276  0.00  0.00    +0.007 A 
ATOM      7  C   LIG    1       23.777 -19.257   3.681  0.00  0.00    +0.046 A 
BRANCH   2   9
ATOM      8  C   LIG    1       20.481 -18.742   3.394  0.00  0.00    +0.277 C 
ATOM      9  O   LIG    1       21.707 -18.111   3.769  0.00  0.00    -0.495 OA
ENDBRANCH   2   9
ENDBRANCH   1   5
BRANCH   1  10
ATOM     10  C   LIG    1       25.109 -22.302   7.425  0.00  0.00    +0.074 C 
ATOM     11  C   LIG    1       23.674 -22.794   7.075  0.00  0.00    +0.035 C 
ATOM     12  C   LIG    1       23.647 -23.841   5.958  0.00  0.00    +0.003 C 
ATOM     13  C   LIG    1       24.528 -25.045   6.281  0.00  0.00    +0.000 C 
ATOM     14  C   LIG    1       25.934 -24.630   6.691  0.00  0.00    +0.003 C 
ATOM     15  C   LIG    1       25.917 -23.570   7.785  0.00  0.00    +0.035 C 
BRANCH  10  16
ATOM     16  O   LIG    1       25.009 -21.543   8.643  0.00  0.00    -0.388 OA
ATOM     17  H   LIG    1       25.881 -21.573   9.075  0.00  0.00    +0.210 HD
ENDBRANCH  10  16
ENDBRANCH   1  10
BRANCH   1  18
ATOM     18  C   LIG    1       26.847 -20.365   6.640  0.00  0.00    +0.094 C 
BRANCH  18  19
ATOM     19  N   LIG    1       28.268 -20.689   6.407  0.00  0.00    -0.308 NA
ATOM     20  C   LIG    1       28.838 -21.269   7.639  0.00  0.00    +0.104 C 
ATOM     21  C   LIG    1       29.076 -19.527   6.037  0.00  0.00    +0.104 C 
ENDBRANCH  18  19
ENDBRANCH   1  18
TORSDOF 6
ENDMDL
MODEL 7
REMARK VINA RESULT:      -6.4      1.603      2.200
REMARK  Name = *****
REMARK                            x       y       z     vdW  Elec       q    Type
REMARK                         _______ _______ _______ _____ _____    ______ ____
ROOT
ATOM      1  C   LIG    1       24.568 -23.211   6.026  0.00  0.00    +0.065 C 
ENDROOT
BRANCH   1   5
ATOM      2  C   LIG    1       27.572 -20.490   7.713  0.00  0.00    +0.120 A 
ATOM      3  C   LIG    1       26.971 -21.478   8.500  0.00  0.00    +0.046 A 
ATOM      4  C   LIG    1       25.999 -22.314   7.968  0.00  0.00    +0.007 A 
ATOM      5  C   LIG    1       25.597 -22.217   6.636  0.00  0.00    -0.040 A 
ATOM      6  C   LIG    1       26.166 -21.187   5.857  0.00  0.00    +0.007 A 
ATOM      7  C   LIG    1       27.136 -20.328   6.400  0.00  0.00    +0.046 A 
BRANCH   2   9
ATOM      8  C   LIG    1       29.856 -19.912   7.647  0.00  0.00    +0.277 C 
ATOM      9  O   LIG    1       28.553 -19.659   8.175  0.00  0.00    -0.495 OA
ENDBRANCH   2   9
ENDBRANCH   1   5
BRANCH   1  10
ATOM     10  C   LIG    1       23.086 -22.776   6.384  0.00  0.00    +0.074 C 
ATOM     11  C   LIG    1       23.055 -21.732   7.540  0.00  0.00    +0.035 C 
ATOM     12  C   LIG    1       23.577 -20.353   7.126  0.00  0.00    +0.003 C 
ATOM     13  C   LIG    1       22.824 -19.794   5.923  0.00  0.00    +0.000 C 
ATOM     14  C   LIG    1       22.763 -20.791   4.774  0.00  0.00    +0.003 C 
ATOM     15  C   LIG    1       22.264 -22.156   5.231  0.00  0.00    +0.035 C 
BRANCH  10  16
ATOM     16  O   LIG    1       22.333 -23.919   6.830  0.00  0.00    -0.388 OA
ATOM     17  H   LIG    1       22.276 -24.537   6.080  0.00  0.00    +0.210 HD
ENDBRANCH  10  16
ENDBRANCH   1  10
BRANCH   1  18
ATOM     18  C   LIG    1       25.058 -24.644   6.453  0.00  0.00    +0.094 C 
BRANCH  18  19
ATOM     19  N   LIG    1       25.376 -25.668   5.439  0.00  0.00    -0.308 NA
ATOM     20  C   LIG    1       24.245 -26.610   5.335  0.00  0.00    +0.104 C 
ATOM     21  C   LIG    1       26.581 -26.439   5.748  0.00  0.00    +0.104 C 
ENDBRANCH  18  19
ENDBRANCH   1  18
TORSDOF 6
ENDMDL
MODEL 8
REMARK VINA RESULT:      -6.2      2.807      5.534
REMARK  Name = *****
REMARK                            x       y       z     vdW  Elec       q    Type
REMARK                         _______ _______ _______ _____ _____    ______ ____
ROOT
ATOM      1  C   LIG    1       24.946 -23.160   6.765  0.00  0.00    +0.065 C 
ENDROOT
BRANCH   1   5
ATOM      2  C   LIG    1       25.776 -27.282   5.501  0.00  0.00    +0.120 A 
ATOM      3  C   LIG    1       25.950 -26.886   6.832  0.00  0.00    +0.046 A 
ATOM      4  C   LIG    1       25.716 -25.573   7.218  0.00  0.00    +0.007 A 
ATOM      5  C   LIG    1       25.285 -24.608   6.308  0.00  0.00    -0.040 A 
ATOM      6  C   LIG    1       25.160 -24.995   4.957  0.00  0.00    +0.007 A 
ATOM      7  C   LIG    1       25.415 -26.318   4.562  0.00  0.00    +0.046 A 
BRANCH   2   9
ATOM      8  C   LIG    1       25.086 -29.531   5.652  0.00  0.00    +0.277 C 
ATOM      9  O   LIG    1       25.964 -28.565   5.071  0.00  0.00    -0.495 OA
ENDBRANCH   2   9
ENDBRANCH   1   5
BRANCH   1  10
ATOM     10  C   LIG    1       23.404 -22.851   6.556  0.00  0.00    +0.074 C 
ATOM     11  C   LIG    1       22.871 -21.834   7.608  0.00  0.00    +0.035 C 
ATOM     12  C   LIG    1       23.394 -20.410   7.393  0.00  0.00    +0.003 C 
ATOM     13  C   LIG    1       23.085 -19.894   5.990  0.00  0.00    +0.000 C 
ATOM     14  C   LIG    1       23.527 -20.872   4.911  0.00  0.00    +0.003 C 
ATOM     15  C   LIG    1       23.009 -22.280   5.175  0.00  0.00    +0.035 C 
BRANCH  10  16
ATOM     16  O   LIG    1       22.637 -24.059   6.713  0.00  0.00    -0.388 OA
ATOM     17  H   LIG    1       23.245 -24.747   7.038  0.00  0.00    +0.210 HD
ENDBRANCH  10  16
ENDBRANCH   1  10
BRANCH   1  18
ATOM     18  C   LIG    1       26.004 -22.233   6.059  0.00  0.00    +0.094 C 
BRANCH  18  19
ATOM     19  N   LIG    1       26.672 -21.147   6.801  0.00  0.00    -0.308 NA
ATOM     20  C   LIG    1       27.179 -20.149   5.839  0.00  0.00    +0.104 C 
ATOM     21  C   LIG    1       27.798 -21.605   7.615  0.00  0.00    +0.104 C 
ENDBRANCH  18  19
ENDBRANCH   1  18
TORSDOF 6
ENDMDL
MODEL 9
REMARK VINA RESULT:      -6.1      2.501      6.080
REMARK  Name = *****
REMARK                            x       y       z     vdW  Elec       q    Type
REMARK                         _______ _______ _______ _____ _____    ______ ____
ROOT
ATOM      1  C   LIG    1       25.476 -22.476   5.893  0.00  0.00    +0.065 C 
ENDROOT
BRANCH   1   5
ATOM      2  C   LIG    1       24.777 -26.781   6.392  0.00  0.00    +0.120 A 
ATOM      3  C   LIG    1       23.709 -25.886   6.270  0.00  0.00    +0.046 A 
ATOM      4  C   LIG    1       23.937 -24.523   6.144  0.00  0.00    +0.007 A 
ATOM      5  C   LIG    1       25.228 -23.995   6.117  0.00  0.00    -0.040 A 
ATOM      6  C   LIG    1       26.303 -24.892   6.293  0.00  0.00    +0.007 A 
ATOM      7  C   LIG    1       26.072 -26.270   6.440  0.00  0.00    +0.046 A 
BRANCH   2   9
ATOM      8  C   LIG    1       24.959 -28.871   5.316  0.00  0.00    +0.277 C 
ATOM      9  O   LIG    1       24.613 -28.135   6.490  0.00  0.00    -0.495 OA
ENDBRANCH   2   9
ENDBRANCH   1   5
BRANCH   1  10
ATOM     10  C   LIG    1       25.560 -21.710   7.279  0.00  0.00    +0.074 C 
ATOM     11  C   LIG    1       26.620 -22.345   8.226  0.00  0.00    +0.035 C 
ATOM     12  C   LIG    1       28.062 -22.101   7.773  0.00  0.00    +0.003 C 
ATOM     13  C   LIG    1       28.365 -20.615   7.603  0.00  0.00    +0.000 C 
ATOM     14  C   LIG    1       27.328 -19.917   6.734  0.00  0.00    +0.003 C 
ATOM     15  C   LIG    1       25.907 -20.205   7.202  0.00  0.00    +0.035 C 
BRANCH  10  16
ATOM     16  O   LIG    1       24.292 -21.784   7.956  0.00  0.00    -0.388 OA
ATOM     17  H   LIG    1       24.402 -21.351   8.822  0.00  0.00    +0.210 HD
ENDBRANCH  10  16
ENDBRANCH   1  10
BRANCH   1  18
ATOM     18  C   LIG    1       24.397 -22.020   4.842  0.00  0.00    +0.094 C 
BRANCH  18  19
ATOM     19  N   LIG    1       23.766 -20.690   4.936  0.00  0.00    -0.308 NA
ATOM     20  C   LIG    1       22.306 -20.858   5.070  0.00  0.00    +0.104 C 
ATOM     21  C   LIG    1       24.020 -19.842   3.771  0.00  0.00    +0.104 C 
ENDBRANCH  18  19
ENDBRANCH   1  18
TORSDOF 6
ENDMDL
