MODEL 1
REMARK VINA RESULT:      -8.3      0.000      0.000
REMARK  Name = *****
REMARK                            x       y       z     vdW  Elec       q    Type
REMARK                         _______ _______ _______ _____ _____    ______ ____
ROOT
ATOM      1  C   LIG    1       25.568 -21.641   6.457  0.00  0.00    +0.098 C 
ENDROOT
BRANCH   1   2
ATOM      2  C   LIG    1       25.354 -22.812   7.460  0.00  0.00    +0.192 C 
BRANCH   2   3
ATOM      3  O   LIG    1       25.569 -24.123   6.958  0.00  0.00    -0.285 OA
BRANCH   3   4
ATOM      4  P   LIG    1       24.622 -24.944   5.962  0.00  0.00    +0.475 P 
ATOM      5  O   LIG    1       24.888 -24.761   4.503  0.00  0.00    -0.227 OA
BRANCH   4   6
ATOM      6  O   LIG    1       23.135 -24.394   6.203  0.00  0.00    -0.302 OA
ATOM      7  H   LIG    1       22.758 -25.042   6.841  0.00  0.00    +0.222 HD
ENDBRANCH   4   6
BRANCH   4   8
ATOM      8  O   LIG    1       24.449 -26.457   6.405  0.00  0.00    -0.283 OA
BRANCH   8   9
ATOM      9  C   LIG    1       24.685 -27.604   5.637  0.00  0.00    +0.130 C 
ATOM     10  C   LIG    1       26.142 -27.928   5.809  0.00  0.00    +0.033 C 
ATOM     11  C   LIG    1       26.427 -28.235   7.288  0.00  0.00    +0.019 C 
ATOM     12  C   LIG    1       25.545 -29.339   8.011  0.00  0.00    +0.021 C 
ATOM     13  C   LIG    1       24.075 -29.208   7.532  0.00  0.00    +0.019 C 
ATOM     14  C   LIG    1       23.872 -28.822   6.072  0.00  0.00    +0.033 C 
BRANCH  12  15
ATOM     15  C   LIG    1       25.558 -29.108   9.587  0.00  0.00    -0.037 A 
ATOM     16  C   LIG    1       26.562 -28.392  10.285  0.00  0.00    +0.004 A 
ATOM     17  C   LIG    1       26.476 -28.121  11.664  0.00  0.00    +0.000 A 
ATOM     18  C   LIG    1       25.430 -28.639  12.413  0.00  0.00    +0.000 A 
ATOM     19  C   LIG    1       24.488 -29.433  11.785  0.00  0.00    +0.000 A 
ATOM     20  C   LIG    1       24.557 -29.661  10.407  0.00  0.00    +0.004 A 
ENDBRANCH  12  15
BRANCH  12  21
ATOM     21  C   LIG    1       26.075 -30.741   7.581  0.00  0.00    -0.037 A 
ATOM     22  C   LIG    1       26.734 -31.605   8.472  0.00  0.00    +0.004 A 
ATOM     23  C   LIG    1       27.225 -32.853   8.111  0.00  0.00    +0.000 A 
ATOM     24  C   LIG    1       27.110 -33.271   6.803  0.00  0.00    +0.000 A 
ATOM     25  C   LIG    1       26.555 -32.416   5.866  0.00  0.00    +0.000 A 
ATOM     26  C   LIG    1       25.992 -31.206   6.266  0.00  0.00    +0.004 A 
ENDBRANCH  12  21
ENDBRANCH   8   9
ENDBRANCH   4   8
ENDBRANCH   3   4
ENDBRANCH   2   3
ENDBRANCH   1   2
BRANCH   1  27
ATOM     27  N   LIG    1       24.391 -21.482   5.509  0.00  0.00    -0.276 NA
BRANCH  27  28
ATOM     28  C   LIG    1       23.202 -20.771   6.055  0.00  0.00    +0.206 C 
BRANCH  28  29
ATOM     29  C   LIG    1       21.959 -20.997   5.204  0.00  0.00    +0.319 C 
ATOM     30  O   LIG    1       21.399 -20.238   4.493  0.00  0.00    -0.250 OA
BRANCH  29  31
ATOM     31  O   LIG    1       21.531 -22.281   5.382  0.00  0.00    -0.480 OA
ATOM     32  H   LIG    1       20.629 -22.179   5.738  0.00  0.00    +0.295 HD
ENDBRANCH  29  31
ENDBRANCH  28  29
ENDBRANCH  27  28
BRANCH  27  33
ATOM     33  C   LIG    1       24.597 -21.185   4.085  0.00  0.00    +0.206 C 
BRANCH  33  34
ATOM     34  C   LIG    1       24.833 -19.646   3.758  0.00  0.00    +0.319 C 
ATOM     35  O   LIG    1       24.016 -18.787   3.460  0.00  0.00    -0.250 OA
BRANCH  34  36
ATOM     36  O   LIG    1       26.131 -19.278   3.839  0.00  0.00    -0.480 OA
ATOM     37  H   LIG    1       26.258 -18.390   4.203  0.00  0.00    +0.295 HD
ENDBRANCH  34  36
ENDBRANCH  33  34
ENDBRANCH  27  33
ENDBRANCH   1  27
BRANCH   1  38
ATOM     38  C   LIG    1       26.240 -20.331   7.277  0.00  0.00    +0.106 C 
BRANCH  38  39
ATOM     39  N   LIG    1       27.691 -19.951   7.173  0.00  0.00    -0.290 NA
BRANCH  39  40
ATOM     40  C   LIG    1       28.441 -20.033   5.887  0.00  0.00    +0.205 C 
BRANCH  40  41
ATOM     41  C   LIG    1       29.142 -18.765   5.381  0.00  0.00    +0.319 C 
ATOM     42  O   LIG    1       30.296 -18.467   5.663  0.00  0.00    -0.250 OA
BRANCH  41  43
ATOM     43  O   LIG    1       28.438 -17.951   4.578  0.00  0.00    -0.480 OA
ATOM     44  H   LIG    1       29.114 -17.553   3.989  0.00  0.00    +0.295 HD
ENDBRANCH  41  43
ENDBRANCH  40  41
ENDBRANCH  39  40
BRANCH  39  45
ATOM     45  C   LIG    1       28.626 -19.966   8.337  0.00  0.00    +0.100 C 
BRANCH  45  46
ATOM     46  C   LIG    1       29.676 -18.878   8.844  0.00  0.00    +0.101 C 
BRANCH  46  47
ATOM     47  N   LIG    1       31.139 -19.216   8.979  0.00  0.00    -0.281 NA
BRANCH  47  48
ATOM     48  C   LIG    1       31.984 -18.059   8.413  0.00  0.00    +0.206 C 
BRANCH  48  49
ATOM     49  C   LIG    1       32.496 -17.069   9.519  0.00  0.00    +0.319 C 
ATOM     50  O   LIG    1       32.671 -17.301  10.673  0.00  0.00    -0.250 OA
BRANCH  49  51
ATOM     51  O   LIG    1       32.772 -15.844   8.977  0.00  0.00    -0.480 OA
ATOM     52  H   LIG    1       32.057 -15.701   8.327  0.00  0.00    +0.295 HD
ENDBRANCH  49  51
ENDBRANCH  48  49
ENDBRANCH  47  48
BRANCH  47  53
ATOM     53  C   LIG    1       31.403 -20.550   8.291  0.00  0.00    +0.206 C 
BRANCH  53  55
ATOM     54  O   LIG    1       30.805 -22.070  10.174  0.00  0.00    -0.250 OA
ATOM     55  C   LIG    1       31.457 -21.802   9.178  0.00  0.00    +0.319 C 
BRANCH  55  56
ATOM     56  O   LIG    1       32.213 -22.772   8.640  0.00  0.00    -0.480 OA
ATOM     57  H   LIG    1       32.988 -22.262   8.309  0.00  0.00    +0.295 HD
ENDBRANCH  55  56
ENDBRANCH  53  55
ENDBRANCH  47  53
ENDBRANCH  46  47
ENDBRANCH  45  46
ENDBRANCH  39  45
ENDBRANCH  38  39
ENDBRANCH   1  38
TORSDOF 29
ENDMDL
MODEL 2
REMARK VINA RESULT:      -8.0      1.767      3.412
REMARK  Name = *****
REMARK                            x       y       z     vdW  Elec       q    Type
REMARK                         _______ _______ _______ _____ _____    ______ ____
ROOT
ATOM      1  C   LIG    1       26.233 -22.790   6.540  0.00  0.00    +0.098 C 
ENDROOT
BRANCH   1   2
ATOM      2  C   LIG    1       25.899 -24.233   7.019  0.00  0.00    +0.192 C 
BRANCH   2   3
ATOM      3  O   LIG    1       26.514 -25.295   6.305  0.00  0.00    -0.285 OA
BRANCH   3   4
ATOM      4  P   LIG    1       25.783 -26.483   5.519  0.00  0.00    +0.475 P 
ATOM      5  O   LIG    1       26.151 -26.642   4.079  0.00  0.00    -0.227 OA
BRANCH   4   6
ATOM      6  O   LIG    1       24.219 -26.130   5.529  0.00  0.00    -0.302 OA
ATOM      7  H   LIG    1       23.881 -26.631   6.306  0.00  0.00    +0.222 HD
ENDBRANCH   4   6
BRANCH   4   8
ATOM      8  O   LIG    1       25.782 -27.839   6.341  0.00  0.00    -0.283 OA
BRANCH   8   9
ATOM      9  C   LIG    1       24.950 -28.189   7.411  0.00  0.00    +0.130 C 
ATOM     10  C   LIG    1       23.838 -29.010   6.824  0.00  0.00    +0.033 C 
ATOM     11  C   LIG    1       24.421 -30.283   6.191  0.00  0.00    +0.019 C 
ATOM     12  C   LIG    1       25.353 -31.208   7.084  0.00  0.00    +0.021 C 
ATOM     13  C   LIG    1       26.264 -30.312   7.963  0.00  0.00    +0.019 C 
ATOM     14  C   LIG    1       25.641 -29.024   8.488  0.00  0.00    +0.033 C 
BRANCH  12  15
ATOM     15  C   LIG    1       26.301 -32.091   6.157  0.00  0.00    -0.037 A 
ATOM     16  C   LIG    1       27.481 -32.737   6.602  0.00  0.00    +0.004 A 
ATOM     17  C   LIG    1       28.230 -33.595   5.773  0.00  0.00    +0.000 A 
ATOM     18  C   LIG    1       27.879 -33.763   4.442  0.00  0.00    +0.000 A 
ATOM     19  C   LIG    1       26.794 -33.063   3.944  0.00  0.00    +0.000 A 
ATOM     20  C   LIG    1       26.030 -32.248   4.785  0.00  0.00    +0.004 A 
ENDBRANCH  12  15
BRANCH  12  21
ATOM     21  C   LIG    1       24.441 -32.050   8.027  0.00  0.00    -0.037 A 
ATOM     22  C   LIG    1       23.304 -32.736   7.563  0.00  0.00    +0.004 A 
ATOM     23  C   LIG    1       22.470 -33.483   8.385  0.00  0.00    +0.000 A 
ATOM     24  C   LIG    1       22.725 -33.535   9.738  0.00  0.00    +0.000 A 
ATOM     25  C   LIG    1       23.777 -32.799  10.257  0.00  0.00    +0.000 A 
ATOM     26  C   LIG    1       24.650 -32.127   9.406  0.00  0.00    +0.004 A 
ENDBRANCH  12  21
ENDBRANCH   8   9
ENDBRANCH   4   8
ENDBRANCH   3   4
ENDBRANCH   2   3
ENDBRANCH   1   2
BRANCH   1  27
ATOM     27  N   LIG    1       24.980 -21.991   6.222  0.00  0.00    -0.276 NA
BRANCH  27  28
ATOM     28  C   LIG    1       23.837 -22.167   7.159  0.00  0.00    +0.206 C 
BRANCH  28  29
ATOM     29  C   LIG    1       22.737 -23.037   6.564  0.00  0.00    +0.319 C 
ATOM     30  O   LIG    1       22.459 -24.157   6.816  0.00  0.00    -0.250 OA
BRANCH  29  31
ATOM     31  O   LIG    1       22.062 -22.312   5.624  0.00  0.00    -0.480 OA
ATOM     32  H   LIG    1       21.760 -21.524   6.110  0.00  0.00    +0.295 HD
ENDBRANCH  29  31
ENDBRANCH  28  29
ENDBRANCH  27  28
BRANCH  27  33
ATOM     33  C   LIG    1       25.064 -20.614   5.717  0.00  0.00    +0.206 C 
BRANCH  33  34
ATOM     34  C   LIG    1       24.556 -20.427   4.220  0.00  0.00    +0.319 C 
ATOM     35  O   LIG    1       23.937 -21.209   3.513  0.00  0.00    -0.250 OA
BRANCH  34  36
ATOM     36  O   LIG    1       24.868 -19.220   3.699  0.00  0.00    -0.480 OA
ATOM     37  H   LIG    1       24.726 -19.164   2.743  0.00  0.00    +0.295 HD
ENDBRANCH  34  36
ENDBRANCH  33  34
ENDBRANCH  27  33
ENDBRANCH   1  27
BRANCH   1  38
ATOM     38  C   LIG    1       27.473 -22.167   7.497  0.00  0.00    +0.106 C 
BRANCH  38  39
ATOM     39  N   LIG    1       28.067 -20.802   7.287  0.00  0.00    -0.290 NA
BRANCH  39  40
ATOM     40  C   LIG    1       28.967 -20.497   6.139  0.00  0.00    +0.205 C 
BRANCH  40  41
ATOM     41  C   LIG    1       28.838 -19.123   5.468  0.00  0.00    +0.319 C 
ATOM     42  O   LIG    1       29.678 -18.236   5.566  0.00  0.00    -0.250 OA
BRANCH  41  43
ATOM     43  O   LIG    1       27.739 -18.899   4.730  0.00  0.00    -0.480 OA
ATOM     44  H   LIG    1       27.976 -19.239   3.840  0.00  0.00    +0.295 HD
ENDBRANCH  41  43
ENDBRANCH  40  41
ENDBRANCH  39  40
BRANCH  39  45
ATOM     45  C   LIG    1       28.262 -19.816   8.392  0.00  0.00    +0.100 C 
BRANCH  45  46
ATOM     46  C   LIG    1       29.481 -18.840   8.716  0.00  0.00    +0.101 C 
BRANCH  46  47
ATOM     47  N   LIG    1       30.679 -19.327   9.491  0.00  0.00    -0.281 NA
BRANCH  47  48
ATOM     48  C   LIG    1       31.592 -18.130   9.823  0.00  0.00    +0.206 C 
BRANCH  48  49
ATOM     49  C   LIG    1       31.067 -17.267  11.025  0.00  0.00    +0.319 C 
ATOM     50  O   LIG    1       30.108 -16.562  11.044  0.00  0.00    -0.250 OA
BRANCH  49  51
ATOM     51  O   LIG    1       31.856 -17.446  12.127  0.00  0.00    -0.480 OA
ATOM     52  H   LIG    1       32.262 -16.571  12.279  0.00  0.00    +0.295 HD
ENDBRANCH  49  51
ENDBRANCH  48  49
ENDBRANCH  47  48
BRANCH  47  53
ATOM     53  C   LIG    1       31.379 -20.416   8.687  0.00  0.00    +0.206 C 
BRANCH  53  55
ATOM     54  O   LIG    1       30.683 -22.302  10.160  0.00  0.00    -0.250 OA
ATOM     55  C   LIG    1       31.378 -21.834   9.273  0.00  0.00    +0.319 C 
BRANCH  55  56
ATOM     56  O   LIG    1       32.139 -22.678   8.558  0.00  0.00    -0.480 OA
ATOM     57  H   LIG    1       32.441 -22.100   7.820  0.00  0.00    +0.295 HD
ENDBRANCH  55  56
ENDBRANCH  53  55
ENDBRANCH  47  53
ENDBRANCH  46  47
ENDBRANCH  45  46
ENDBRANCH  39  45
ENDBRANCH  38  39
ENDBRANCH   1  38
TORSDOF 29
ENDMDL
MODEL 3
REMARK VINA RESULT:      -7.7      1.261      2.469
REMARK  Name = *****
REMARK                            x       y       z     vdW  Elec       q    Type
REMARK                         _______ _______ _______ _____ _____    ______ ____
ROOT
ATOM      1  C   LIG    1       26.336 -21.851   7.214  0.00  0.00    +0.098 C 
ENDROOT
BRANCH   1   2
ATOM      2  C   LIG    1       25.590 -22.998   7.957  0.00  0.00    +0.192 C 
BRANCH   2   3
ATOM      3  O   LIG    1       25.594 -24.269   7.324  0.00  0.00    -0.285 OA
BRANCH   3   4
ATOM      4  P   LIG    1       24.565 -24.803   6.221  0.00  0.00    +0.475 P 
ATOM      5  O   LIG    1       24.741 -24.258   4.840  0.00  0.00    -0.227 OA
BRANCH   4   6
ATOM      6  O   LIG    1       23.111 -24.321   6.694  0.00  0.00    -0.302 OA
ATOM      7  H   LIG    1       23.161 -24.390   7.674  0.00  0.00    +0.222 HD
ENDBRANCH   4   6
BRANCH   4   8
ATOM      8  O   LIG    1       24.384 -26.377   6.276  0.00  0.00    -0.283 OA
BRANCH   8   9
ATOM      9  C   LIG    1       24.924 -27.331   5.405  0.00  0.00    +0.130 C 
ATOM     10  C   LIG    1       26.277 -27.680   5.957  0.00  0.00    +0.033 C 
ATOM     11  C   LIG    1       26.116 -28.298   7.355  0.00  0.00    +0.019 C 
ATOM     12  C   LIG    1       25.136 -29.534   7.523  0.00  0.00    +0.021 C 
ATOM     13  C   LIG    1       23.878 -29.308   6.644  0.00  0.00    +0.019 C 
ATOM     14  C   LIG    1       24.105 -28.617   5.305  0.00  0.00    +0.033 C 
BRANCH  12  15
ATOM     15  C   LIG    1       24.648 -29.649   9.035  0.00  0.00    -0.037 A 
ATOM     16  C   LIG    1       25.403 -29.223  10.155  0.00  0.00    +0.004 A 
ATOM     17  C   LIG    1       24.888 -29.245  11.466  0.00  0.00    +0.000 A 
ATOM     18  C   LIG    1       23.634 -29.782  11.715  0.00  0.00    +0.000 A 
ATOM     19  C   LIG    1       22.911 -30.307  10.658  0.00  0.00    +0.000 A 
ATOM     20  C   LIG    1       23.412 -30.242   9.354  0.00  0.00    +0.004 A 
ENDBRANCH  12  15
BRANCH  12  21
ATOM     21  C   LIG    1       25.870 -30.809   7.005  0.00  0.00    -0.037 A 
ATOM     22  C   LIG    1       25.765 -31.253   5.676  0.00  0.00    +0.004 A 
ATOM     23  C   LIG    1       26.399 -32.391   5.194  0.00  0.00    +0.000 A 
ATOM     24  C   LIG    1       27.142 -33.167   6.057  0.00  0.00    +0.000 A 
ATOM     25  C   LIG    1       27.197 -32.824   7.397  0.00  0.00    +0.000 A 
ATOM     26  C   LIG    1       26.626 -31.635   7.842  0.00  0.00    +0.004 A 
ENDBRANCH  12  21
ENDBRANCH   8   9
ENDBRANCH   4   8
ENDBRANCH   3   4
ENDBRANCH   2   3
ENDBRANCH   1   2
BRANCH   1  27
ATOM     27  N   LIG    1       25.397 -21.031   6.345  0.00  0.00    -0.276 NA
BRANCH  27  28
ATOM     28  C   LIG    1       24.096 -20.654   6.961  0.00  0.00    +0.206 C 
BRANCH  28  29
ATOM     29  C   LIG    1       22.978 -20.567   5.931  0.00  0.00    +0.319 C 
ATOM     30  O   LIG    1       22.387 -19.616   5.556  0.00  0.00    -0.250 OA
BRANCH  29  31
ATOM     31  O   LIG    1       22.713 -21.822   5.462  0.00  0.00    -0.480 OA
ATOM     32  H   LIG    1       23.102 -22.410   6.135  0.00  0.00    +0.295 HD
ENDBRANCH  29  31
ENDBRANCH  28  29
ENDBRANCH  27  28
BRANCH  27  33
ATOM     33  C   LIG    1       25.908 -19.973   5.462  0.00  0.00    +0.206 C 
BRANCH  33  34
ATOM     34  C   LIG    1       25.356 -20.034   3.970  0.00  0.00    +0.319 C 
ATOM     35  O   LIG    1       24.757 -20.938   3.406  0.00  0.00    -0.250 OA
BRANCH  34  36
ATOM     36  O   LIG    1       25.599 -18.906   3.266  0.00  0.00    -0.480 OA
ATOM     37  H   LIG    1       25.814 -19.070   2.337  0.00  0.00    +0.295 HD
ENDBRANCH  34  36
ENDBRANCH  33  34
ENDBRANCH  27  33
ENDBRANCH   1  27
BRANCH   1  38
ATOM     38  C   LIG    1       27.432 -21.132   8.273  0.00  0.00    +0.106 C 
BRANCH  38  39
ATOM     39  N   LIG    1       28.888 -20.945   7.949  0.00  0.00    -0.290 NA
BRANCH  39  40
ATOM     40  C   LIG    1       29.866 -22.068   8.016  0.00  0.00    +0.205 C 
BRANCH  40  41
ATOM     41  C   LIG    1       30.935 -22.028   9.117  0.00  0.00    +0.319 C 
ATOM     42  O   LIG    1       30.677 -21.996  10.314  0.00  0.00    -0.250 OA
BRANCH  41  43
ATOM     43  O   LIG    1       32.219 -22.036   8.729  0.00  0.00    -0.480 OA
ATOM     44  H   LIG    1       32.310 -21.222   8.187  0.00  0.00    +0.295 HD
ENDBRANCH  41  43
ENDBRANCH  40  41
ENDBRANCH  39  40
BRANCH  39  45
ATOM     45  C   LIG    1       29.585 -19.627   8.043  0.00  0.00    +0.100 C 
BRANCH  45  46
ATOM     46  C   LIG    1       29.493 -18.476   9.142  0.00  0.00    +0.101 C 
BRANCH  46  47
ATOM     47  N   LIG    1       30.495 -18.394  10.266  0.00  0.00    -0.281 NA
BRANCH  47  48
ATOM     48  C   LIG    1       30.368 -17.026  10.963  0.00  0.00    +0.206 C 
BRANCH  48  49
ATOM     49  C   LIG    1       31.619 -16.661  11.840  0.00  0.00    +0.319 C 
ATOM     50  O   LIG    1       31.969 -17.180  12.852  0.00  0.00    -0.250 OA
BRANCH  49  51
ATOM     51  O   LIG    1       32.327 -15.642  11.266  0.00  0.00    -0.480 OA
ATOM     52  H   LIG    1       32.617 -15.093  12.020  0.00  0.00    +0.295 HD
ENDBRANCH  49  51
ENDBRANCH  48  49
ENDBRANCH  47  48
BRANCH  47  53
ATOM     53  C   LIG    1       31.887 -18.660   9.706  0.00  0.00    +0.206 C 
BRANCH  53  55
ATOM     54  O   LIG    1       32.198 -18.488   7.239  0.00  0.00    -0.250 OA
ATOM     55  C   LIG    1       32.241 -18.010   8.361  0.00  0.00    +0.319 C 
BRANCH  55  56
ATOM     56  O   LIG    1       32.452 -16.690   8.476  0.00  0.00    -0.480 OA
ATOM     57  H   LIG    1       32.293 -16.544   9.437  0.00  0.00    +0.295 HD
ENDBRANCH  55  56
ENDBRANCH  53  55
ENDBRANCH  47  53
ENDBRANCH  46  47
ENDBRANCH  45  46
ENDBRANCH  39  45
ENDBRANCH  38  39
ENDBRANCH   1  38
TORSDOF 29
ENDMDL
MODEL 4
REMARK VINA RESULT:      -7.7      1.707      3.915
REMARK  Name = *****
REMARK                            x       y       z     vdW  Elec       q    Type
REMARK                         _______ _______ _______ _____ _____    ______ ____
ROOT
ATOM      1  C   LIG    1       26.223 -22.755   6.564  0.00  0.00    +0.098 C 
ENDROOT
BRANCH   1   2
ATOM      2  C   LIG    1       25.976 -24.236   6.976  0.00  0.00    +0.192 C 
BRANCH   2   3
ATOM      3  O   LIG    1       26.583 -25.228   6.161  0.00  0.00    -0.285 OA
BRANCH   3   4
ATOM      4  P   LIG    1       25.858 -26.450   5.424  0.00  0.00    +0.475 P 
ATOM      5  O   LIG    1       26.261 -26.694   4.006  0.00  0.00    -0.227 OA
BRANCH   4   6
ATOM      6  O   LIG    1       24.299 -26.081   5.373  0.00  0.00    -0.302 OA
ATOM      7  H   LIG    1       23.994 -26.272   6.290  0.00  0.00    +0.222 HD
ENDBRANCH   4   6
BRANCH   4   8
ATOM      8  O   LIG    1       25.820 -27.758   6.320  0.00  0.00    -0.283 OA
BRANCH   8   9
ATOM      9  C   LIG    1       24.913 -28.068   7.341  0.00  0.00    +0.130 C 
ATOM     10  C   LIG    1       23.785 -28.812   6.685  0.00  0.00    +0.033 C 
ATOM     11  C   LIG    1       24.321 -30.112   6.065  0.00  0.00    +0.019 C 
ATOM     12  C   LIG    1       25.147 -31.102   6.990  0.00  0.00    +0.021 C 
ATOM     13  C   LIG    1       26.064 -30.274   7.929  0.00  0.00    +0.019 C 
ATOM     14  C   LIG    1       25.494 -28.957   8.440  0.00  0.00    +0.033 C 
BRANCH  12  15
ATOM     15  C   LIG    1       26.087 -32.032   6.101  0.00  0.00    -0.037 A 
ATOM     16  C   LIG    1       25.867 -32.318   4.731  0.00  0.00    +0.004 A 
ATOM     17  C   LIG    1       26.783 -33.058   3.957  0.00  0.00    +0.000 A 
ATOM     18  C   LIG    1       27.904 -33.618   4.549  0.00  0.00    +0.000 A 
ATOM     19  C   LIG    1       28.096 -33.450   5.909  0.00  0.00    +0.000 A 
ATOM     20  C   LIG    1       27.206 -32.677   6.661  0.00  0.00    +0.004 A 
ENDBRANCH  12  15
BRANCH  12  21
ATOM     21  C   LIG    1       24.137 -31.898   7.873  0.00  0.00    -0.037 A 
ATOM     22  C   LIG    1       23.397 -32.986   7.378  0.00  0.00    +0.004 A 
ATOM     23  C   LIG    1       22.483 -33.702   8.141  0.00  0.00    +0.000 A 
ATOM     24  C   LIG    1       22.241 -33.319   9.442  0.00  0.00    +0.000 A 
ATOM     25  C   LIG    1       22.874 -32.194   9.944  0.00  0.00    +0.000 A 
ATOM     26  C   LIG    1       23.848 -31.542   9.193  0.00  0.00    +0.004 A 
ENDBRANCH  12  21
ENDBRANCH   8   9
ENDBRANCH   4   8
ENDBRANCH   3   4
ENDBRANCH   2   3
ENDBRANCH   1   2
BRANCH   1  27
ATOM     27  N   LIG    1       24.927 -22.028   6.247  0.00  0.00    -0.276 NA
BRANCH  27  28
ATOM     28  C   LIG    1       23.806 -22.242   7.202  0.00  0.00    +0.206 C 
BRANCH  28  29
ATOM     29  C   LIG    1       22.716 -23.130   6.617  0.00  0.00    +0.319 C 
ATOM     30  O   LIG    1       22.495 -24.271   6.828  0.00  0.00    -0.250 OA
BRANCH  29  31
ATOM     31  O   LIG    1       21.969 -22.392   5.744  0.00  0.00    -0.480 OA
ATOM     32  H   LIG    1       22.410 -21.523   5.736  0.00  0.00    +0.295 HD
ENDBRANCH  29  31
ENDBRANCH  28  29
ENDBRANCH  27  28
BRANCH  27  33
ATOM     33  C   LIG    1       24.934 -20.660   5.712  0.00  0.00    +0.206 C 
BRANCH  33  34
ATOM     34  C   LIG    1       24.701 -20.564   4.140  0.00  0.00    +0.319 C 
ATOM     35  O   LIG    1       25.221 -19.813   3.328  0.00  0.00    -0.250 OA
BRANCH  34  36
ATOM     36  O   LIG    1       23.800 -21.460   3.679  0.00  0.00    -0.480 OA
ATOM     37  H   LIG    1       22.991 -21.500   4.209  0.00  0.00    +0.295 HD
ENDBRANCH  34  36
ENDBRANCH  33  34
ENDBRANCH  27  33
ENDBRANCH   1  27
BRANCH   1  38
ATOM     38  C   LIG    1       27.396 -22.091   7.577  0.00  0.00    +0.106 C 
BRANCH  38  39
ATOM     39  N   LIG    1       28.036 -20.754   7.329  0.00  0.00    -0.290 NA
BRANCH  39  40
ATOM     40  C   LIG    1       28.934 -20.509   6.165  0.00  0.00    +0.205 C 
BRANCH  40  41
ATOM     41  C   LIG    1       28.823 -19.159   5.442  0.00  0.00    +0.319 C 
ATOM     42  O   LIG    1       29.698 -18.302   5.463  0.00  0.00    -0.250 OA
BRANCH  41  43
ATOM     43  O   LIG    1       27.700 -18.924   4.746  0.00  0.00    -0.480 OA
ATOM     44  H   LIG    1       26.990 -19.322   5.296  0.00  0.00    +0.295 HD
ENDBRANCH  41  43
ENDBRANCH  40  41
ENDBRANCH  39  40
BRANCH  39  45
ATOM     45  C   LIG    1       28.278 -19.750   8.408  0.00  0.00    +0.100 C 
BRANCH  45  46
ATOM     46  C   LIG    1       29.613 -19.005   8.859  0.00  0.00    +0.101 C 
BRANCH  46  47
ATOM     47  N   LIG    1       30.968 -19.531   8.458  0.00  0.00    -0.281 NA
BRANCH  47  48
ATOM     48  C   LIG    1       31.536 -20.400   9.596  0.00  0.00    +0.206 C 
BRANCH  48  49
ATOM     49  C   LIG    1       31.252 -21.932   9.405  0.00  0.00    +0.319 C 
ATOM     50  O   LIG    1       30.404 -22.582   9.930  0.00  0.00    -0.250 OA
BRANCH  49  51
ATOM     51  O   LIG    1       32.113 -22.469   8.488  0.00  0.00    -0.480 OA
ATOM     52  H   LIG    1       32.124 -21.821   7.757  0.00  0.00    +0.295 HD
ENDBRANCH  49  51
ENDBRANCH  48  49
ENDBRANCH  47  48
BRANCH  47  53
ATOM     53  C   LIG    1       31.865 -18.355   8.091  0.00  0.00    +0.206 C 
BRANCH  53  55
ATOM     54  O   LIG    1       32.573 -17.628  10.367  0.00  0.00    -0.250 OA
ATOM     55  C   LIG    1       32.250 -17.384   9.216  0.00  0.00    +0.319 C 
BRANCH  55  56
ATOM     56  O   LIG    1       32.405 -16.128   8.771  0.00  0.00    -0.480 OA
ATOM     57  H   LIG    1       31.570 -15.988   8.269  0.00  0.00    +0.295 HD
ENDBRANCH  55  56
ENDBRANCH  53  55
ENDBRANCH  47  53
ENDBRANCH  46  47
ENDBRANCH  45  46
ENDBRANCH  39  45
ENDBRANCH  38  39
ENDBRANCH   1  38
TORSDOF 29
ENDMDL
MODEL 5
REMARK VINA RESULT:      -7.6      4.856     11.958
REMARK  Name = *****
REMARK                            x       y       z     vdW  Elec       q    Type
REMARK                         _______ _______ _______ _____ _____    ______ ____
ROOT
ATOM      1  C   LIG    1       25.647 -29.497   9.600  0.00  0.00    +0.098 C 
ENDROOT
BRANCH   1   2
ATOM      2  C   LIG    1       26.440 -28.796   8.457  0.00  0.00    +0.192 C 
BRANCH   2   3
ATOM      3  O   LIG    1       26.054 -27.465   8.145  0.00  0.00    -0.285 OA
BRANCH   3   4
ATOM      4  P   LIG    1       25.593 -26.902   6.719  0.00  0.00    +0.475 P 
ATOM      5  O   LIG    1       24.781 -27.833   5.877  0.00  0.00    -0.227 OA
BRANCH   4   6
ATOM      6  O   LIG    1       26.937 -26.629   5.890  0.00  0.00    -0.302 OA
ATOM      7  H   LIG    1       27.090 -25.666   6.023  0.00  0.00    +0.222 HD
ENDBRANCH   4   6
BRANCH   4   8
ATOM      8  O   LIG    1       25.003 -25.433   6.813  0.00  0.00    -0.283 OA
BRANCH   8   9
ATOM      9  C   LIG    1       23.997 -24.864   6.023  0.00  0.00    +0.130 C 
ATOM     10  C   LIG    1       23.333 -23.824   6.880  0.00  0.00    +0.033 C 
ATOM     11  C   LIG    1       24.357 -22.743   7.260  0.00  0.00    +0.019 C 
ATOM     12  C   LIG    1       25.171 -22.035   6.097  0.00  0.00    +0.021 C 
ATOM     13  C   LIG    1       25.546 -23.092   5.023  0.00  0.00    +0.019 C 
ATOM     14  C   LIG    1       24.512 -24.180   4.758  0.00  0.00    +0.033 C 
BRANCH  12  15
ATOM     15  C   LIG    1       26.530 -21.429   6.666  0.00  0.00    -0.037 A 
ATOM     16  C   LIG    1       27.197 -21.903   7.822  0.00  0.00    +0.004 A 
ATOM     17  C   LIG    1       28.452 -21.407   8.227  0.00  0.00    +0.000 A 
ATOM     18  C   LIG    1       29.040 -20.353   7.544  0.00  0.00    +0.000 A 
ATOM     19  C   LIG    1       28.366 -19.793   6.473  0.00  0.00    +0.000 A 
ATOM     20  C   LIG    1       27.142 -20.320   6.051  0.00  0.00    +0.004 A 
ENDBRANCH  12  15
BRANCH  12  21
ATOM     21  C   LIG    1       24.244 -20.973   5.432  0.00  0.00    -0.037 A 
ATOM     22  C   LIG    1       24.454 -20.498   4.126  0.00  0.00    +0.004 A 
ATOM     23  C   LIG    1       23.649 -19.544   3.517  0.00  0.00    +0.000 A 
ATOM     24  C   LIG    1       22.608 -18.987   4.225  0.00  0.00    +0.000 A 
ATOM     25  C   LIG    1       22.418 -19.351   5.547  0.00  0.00    +0.000 A 
ATOM     26  C   LIG    1       23.181 -20.370   6.111  0.00  0.00    +0.004 A 
ENDBRANCH  12  21
ENDBRANCH   8   9
ENDBRANCH   4   8
ENDBRANCH   3   4
ENDBRANCH   2   3
ENDBRANCH   1   2
BRANCH   1  27
ATOM     27  N   LIG    1       25.787 -28.764  10.923  0.00  0.00    -0.276 NA
BRANCH  27  28
ATOM     28  C   LIG    1       25.179 -29.429  12.108  0.00  0.00    +0.206 C 
BRANCH  28  29
ATOM     29  C   LIG    1       24.518 -28.431  13.049  0.00  0.00    +0.319 C 
ATOM     30  O   LIG    1       23.477 -27.884  12.938  0.00  0.00    -0.250 OA
BRANCH  29  31
ATOM     31  O   LIG    1       25.342 -28.220  14.117  0.00  0.00    -0.480 OA
ATOM     32  H   LIG    1       25.338 -27.251  14.227  0.00  0.00    +0.295 HD
ENDBRANCH  29  31
ENDBRANCH  28  29
ENDBRANCH  27  28
BRANCH  27  33
ATOM     33  C   LIG    1       27.026 -28.055  11.272  0.00  0.00    +0.206 C 
BRANCH  33  34
ATOM     34  C   LIG    1       28.145 -28.970  11.939  0.00  0.00    +0.319 C 
ATOM     35  O   LIG    1       28.832 -29.842  11.428  0.00  0.00    -0.250 OA
BRANCH  34  36
ATOM     36  O   LIG    1       28.333 -28.709  13.252  0.00  0.00    -0.480 OA
ATOM     37  H   LIG    1       27.793 -29.260  13.835  0.00  0.00    +0.295 HD
ENDBRANCH  34  36
ENDBRANCH  33  34
ENDBRANCH  27  33
ENDBRANCH   1  27
BRANCH   1  38
ATOM     38  C   LIG    1       24.150 -29.994   9.005  0.00  0.00    +0.106 C 
BRANCH  38  39
ATOM     39  N   LIG    1       23.788 -31.436   8.788  0.00  0.00    -0.290 NA
BRANCH  39  40
ATOM     40  C   LIG    1       23.789 -32.059   7.434  0.00  0.00    +0.205 C 
BRANCH  40  41
ATOM     41  C   LIG    1       24.221 -31.191   6.243  0.00  0.00    +0.319 C 
ATOM     42  O   LIG    1       25.354 -31.193   5.776  0.00  0.00    -0.250 OA
BRANCH  41  43
ATOM     43  O   LIG    1       23.291 -30.397   5.691  0.00  0.00    -0.480 OA
ATOM     44  H   LIG    1       22.950 -30.920   4.934  0.00  0.00    +0.295 HD
ENDBRANCH  41  43
ENDBRANCH  40  41
ENDBRANCH  39  40
BRANCH  39  45
ATOM     45  C   LIG    1       22.931 -32.215   9.732  0.00  0.00    +0.100 C 
BRANCH  45  46
ATOM     46  C   LIG    1       21.421 -32.710   9.602  0.00  0.00    +0.101 C 
BRANCH  46  47
ATOM     47  N   LIG    1       20.342 -32.149  10.493  0.00  0.00    -0.281 NA
BRANCH  47  48
ATOM     48  C   LIG    1       18.965 -32.406   9.850  0.00  0.00    +0.206 C 
BRANCH  48  49
ATOM     49  C   LIG    1       17.874 -31.365  10.288  0.00  0.00    +0.319 C 
ATOM     50  O   LIG    1       17.316 -31.301  11.338  0.00  0.00    -0.250 OA
BRANCH  49  51
ATOM     51  O   LIG    1       17.642 -30.462   9.289  0.00  0.00    -0.480 OA
ATOM     52  H   LIG    1       18.253 -30.729   8.575  0.00  0.00    +0.295 HD
ENDBRANCH  49  51
ENDBRANCH  48  49
ENDBRANCH  47  48
BRANCH  47  53
ATOM     53  C   LIG    1       20.625 -30.673  10.743  0.00  0.00    +0.206 C 
BRANCH  53  55
ATOM     54  O   LIG    1       19.965 -29.707  12.944  0.00  0.00    -0.250 OA
ATOM     55  C   LIG    1       20.785 -30.223  12.202  0.00  0.00    +0.319 C 
BRANCH  55  56
ATOM     56  O   LIG    1       21.945 -30.637  12.736  0.00  0.00    -0.480 OA
ATOM     57  H   LIG    1       22.433 -30.948  11.939  0.00  0.00    +0.295 HD
ENDBRANCH  55  56
ENDBRANCH  53  55
ENDBRANCH  47  53
ENDBRANCH  46  47
ENDBRANCH  45  46
ENDBRANCH  39  45
ENDBRANCH  38  39
ENDBRANCH   1  38
TORSDOF 29
ENDMDL
MODEL 6
REMARK VINA RESULT:      -7.5      1.375      2.354
REMARK  Name = *****
REMARK                            x       y       z     vdW  Elec       q    Type
REMARK                         _______ _______ _______ _____ _____    ______ ____
ROOT
ATOM      1  C   LIG    1       25.861 -21.522   7.001  0.00  0.00    +0.098 C 
ENDROOT
BRANCH   1   2
ATOM      2  C   LIG    1       25.267 -22.721   7.799  0.00  0.00    +0.192 C 
BRANCH   2   3
ATOM      3  O   LIG    1       25.473 -24.013   7.246  0.00  0.00    -0.285 OA
BRANCH   3   4
ATOM      4  P   LIG    1       24.578 -24.744   6.139  0.00  0.00    +0.475 P 
ATOM      5  O   LIG    1       24.798 -24.310   4.726  0.00  0.00    -0.227 OA
BRANCH   4   6
ATOM      6  O   LIG    1       23.056 -24.370   6.475  0.00  0.00    -0.302 OA
ATOM      7  H   LIG    1       22.853 -24.938   7.253  0.00  0.00    +0.222 HD
ENDBRANCH   4   6
BRANCH   4   8
ATOM      8  O   LIG    1       24.543 -26.317   6.335  0.00  0.00    -0.283 OA
BRANCH   8   9
ATOM      9  C   LIG    1       25.016 -27.299   5.455  0.00  0.00    +0.130 C 
ATOM     10  C   LIG    1       26.358 -27.719   5.983  0.00  0.00    +0.033 C 
ATOM     11  C   LIG    1       26.190 -28.327   7.384  0.00  0.00    +0.019 C 
ATOM     12  C   LIG    1       25.148 -29.510   7.571  0.00  0.00    +0.021 C 
ATOM     13  C   LIG    1       23.888 -29.217   6.714  0.00  0.00    +0.019 C 
ATOM     14  C   LIG    1       24.128 -28.539   5.371  0.00  0.00    +0.033 C 
BRANCH  12  15
ATOM     15  C   LIG    1       24.682 -29.598   9.092  0.00  0.00    -0.037 A 
ATOM     16  C   LIG    1       23.437 -30.120   9.520  0.00  0.00    +0.004 A 
ATOM     17  C   LIG    1       23.112 -30.278  10.882  0.00  0.00    +0.000 A 
ATOM     18  C   LIG    1       23.982 -29.830  11.863  0.00  0.00    +0.000 A 
ATOM     19  C   LIG    1       25.162 -29.216  11.481  0.00  0.00    +0.000 A 
ATOM     20  C   LIG    1       25.496 -29.104  10.128  0.00  0.00    +0.004 A 
ENDBRANCH  12  15
BRANCH  12  21
ATOM     21  C   LIG    1       25.803 -30.822   7.041  0.00  0.00    -0.037 A 
ATOM     22  C   LIG    1       26.576 -31.664   7.860  0.00  0.00    +0.004 A 
ATOM     23  C   LIG    1       27.179 -32.831   7.409  0.00  0.00    +0.000 A 
ATOM     24  C   LIG    1       27.064 -33.182   6.082  0.00  0.00    +0.000 A 
ATOM     25  C   LIG    1       26.393 -32.336   5.215  0.00  0.00    +0.000 A 
ATOM     26  C   LIG    1       25.724 -31.216   5.703  0.00  0.00    +0.004 A 
ENDBRANCH  12  21
ENDBRANCH   8   9
ENDBRANCH   4   8
ENDBRANCH   3   4
ENDBRANCH   2   3
ENDBRANCH   1   2
BRANCH   1  27
ATOM     27  N   LIG    1       24.820 -20.854   6.120  0.00  0.00    -0.276 NA
BRANCH  27  28
ATOM     28  C   LIG    1       24.928 -21.121   4.660  0.00  0.00    +0.206 C 
BRANCH  28  29
ATOM     29  C   LIG    1       25.444 -19.911   3.892  0.00  0.00    +0.319 C 
ATOM     30  O   LIG    1       25.750 -18.847   4.303  0.00  0.00    -0.250 OA
BRANCH  29  31
ATOM     31  O   LIG    1       25.507 -20.226   2.565  0.00  0.00    -0.480 OA
ATOM     32  H   LIG    1       25.528 -21.201   2.557  0.00  0.00    +0.295 HD
ENDBRANCH  29  31
ENDBRANCH  28  29
ENDBRANCH  27  28
BRANCH  27  33
ATOM     33  C   LIG    1       23.420 -20.740   6.550  0.00  0.00    +0.206 C 
BRANCH  33  34
ATOM     34  C   LIG    1       22.395 -20.396   5.382  0.00  0.00    +0.319 C 
ATOM     35  O   LIG    1       22.140 -19.315   4.874  0.00  0.00    -0.250 OA
BRANCH  34  36
ATOM     36  O   LIG    1       21.741 -21.482   4.911  0.00  0.00    -0.480 OA
ATOM     37  H   LIG    1       21.691 -21.513   3.945  0.00  0.00    +0.295 HD
ENDBRANCH  34  36
ENDBRANCH  33  34
ENDBRANCH  27  33
ENDBRANCH   1  27
BRANCH   1  38
ATOM     38  C   LIG    1       26.878 -20.639   8.013  0.00  0.00    +0.106 C 
BRANCH  38  39
ATOM     39  N   LIG    1       28.113 -19.932   7.527  0.00  0.00    -0.290 NA
BRANCH  39  40
ATOM     40  C   LIG    1       28.555 -19.998   6.105  0.00  0.00    +0.205 C 
BRANCH  40  41
ATOM     41  C   LIG    1       29.181 -18.740   5.487  0.00  0.00    +0.319 C 
ATOM     42  O   LIG    1       30.317 -18.352   5.736  0.00  0.00    -0.250 OA
BRANCH  41  43
ATOM     43  O   LIG    1       28.431 -18.040   4.621  0.00  0.00    -0.480 OA
ATOM     44  H   LIG    1       28.917 -17.194   4.513  0.00  0.00    +0.295 HD
ENDBRANCH  41  43
ENDBRANCH  40  41
ENDBRANCH  39  40
BRANCH  39  45
ATOM     45  C   LIG    1       29.250 -19.563   8.421  0.00  0.00    +0.100 C 
BRANCH  45  46
ATOM     46  C   LIG    1       29.480 -18.278   9.338  0.00  0.00    +0.101 C 
BRANCH  46  47
ATOM     47  N   LIG    1       30.517 -18.283  10.433  0.00  0.00    -0.281 NA
BRANCH  47  48
ATOM     48  C   LIG    1       30.395 -16.985  11.255  0.00  0.00    +0.206 C 
BRANCH  48  49
ATOM     49  C   LIG    1       31.696 -16.642  12.065  0.00  0.00    +0.319 C 
ATOM     50  O   LIG    1       32.115 -17.197  13.031  0.00  0.00    -0.250 OA
BRANCH  49  51
ATOM     51  O   LIG    1       32.359 -15.595  11.487  0.00  0.00    -0.480 OA
ATOM     52  H   LIG    1       33.005 -16.018  10.888  0.00  0.00    +0.295 HD
ENDBRANCH  49  51
ENDBRANCH  48  49
ENDBRANCH  47  48
BRANCH  47  53
ATOM     53  C   LIG    1       31.894 -18.476   9.809  0.00  0.00    +0.206 C 
BRANCH  53  55
ATOM     54  O   LIG    1       32.547 -16.400   8.593  0.00  0.00    -0.250 OA
ATOM     55  C   LIG    1       32.256 -17.585   8.612  0.00  0.00    +0.319 C 
BRANCH  55  56
ATOM     56  O   LIG    1       32.431 -18.295   7.487  0.00  0.00    -0.480 OA
ATOM     57  H   LIG    1       31.687 -18.938   7.537  0.00  0.00    +0.295 HD
ENDBRANCH  55  56
ENDBRANCH  53  55
ENDBRANCH  47  53
ENDBRANCH  46  47
ENDBRANCH  45  46
ENDBRANCH  39  45
ENDBRANCH  38  39
ENDBRANCH   1  38
TORSDOF 29
ENDMDL
MODEL 7
REMARK VINA RESULT:      -7.5      4.790     11.456
REMARK  Name = *****
REMARK                            x       y       z     vdW  Elec       q    Type
REMARK                         _______ _______ _______ _____ _____    ______ ____
ROOT
ATOM      1  C   LIG    1       25.307 -29.472   9.128  0.00  0.00    +0.098 C 
ENDROOT
BRANCH   1   2
ATOM      2  C   LIG    1       26.362 -28.765   8.226  0.00  0.00    +0.192 C 
BRANCH   2   3
ATOM      3  O   LIG    1       26.139 -27.390   7.952  0.00  0.00    -0.285 OA
BRANCH   3   4
ATOM      4  P   LIG    1       25.606 -26.751   6.585  0.00  0.00    +0.475 P 
ATOM      5  O   LIG    1       24.870 -27.676   5.670  0.00  0.00    -0.227 OA
BRANCH   4   6
ATOM      6  O   LIG    1       26.907 -26.284   5.772  0.00  0.00    -0.302 OA
ATOM      7  H   LIG    1       27.581 -26.163   6.479  0.00  0.00    +0.222 HD
ENDBRANCH   4   6
BRANCH   4   8
ATOM      8  O   LIG    1       24.886 -25.356   6.811  0.00  0.00    -0.283 OA
BRANCH   8   9
ATOM      9  C   LIG    1       23.895 -24.768   6.016  0.00  0.00    +0.130 C 
ATOM     10  C   LIG    1       23.250 -23.712   6.869  0.00  0.00    +0.033 C 
ATOM     11  C   LIG    1       24.297 -22.652   7.250  0.00  0.00    +0.019 C 
ATOM     12  C   LIG    1       25.129 -21.965   6.086  0.00  0.00    +0.021 C 
ATOM     13  C   LIG    1       25.483 -23.032   5.017  0.00  0.00    +0.019 C 
ATOM     14  C   LIG    1       24.428 -24.098   4.751  0.00  0.00    +0.033 C 
BRANCH  12  15
ATOM     15  C   LIG    1       26.499 -21.387   6.658  0.00  0.00    -0.037 A 
ATOM     16  C   LIG    1       27.150 -21.869   7.819  0.00  0.00    +0.004 A 
ATOM     17  C   LIG    1       28.415 -21.399   8.227  0.00  0.00    +0.000 A 
ATOM     18  C   LIG    1       29.029 -20.363   7.540  0.00  0.00    +0.000 A 
ATOM     19  C   LIG    1       28.373 -19.794   6.463  0.00  0.00    +0.000 A 
ATOM     20  C   LIG    1       27.138 -20.296   6.039  0.00  0.00    +0.004 A 
ENDBRANCH  12  15
BRANCH  12  21
ATOM     21  C   LIG    1       24.226 -20.884   5.417  0.00  0.00    -0.037 A 
ATOM     22  C   LIG    1       24.491 -20.367   4.137  0.00  0.00    +0.004 A 
ATOM     23  C   LIG    1       23.708 -19.396   3.524  0.00  0.00    +0.000 A 
ATOM     24  C   LIG    1       22.635 -18.865   4.205  0.00  0.00    +0.000 A 
ATOM     25  C   LIG    1       22.390 -19.273   5.505  0.00  0.00    +0.000 A 
ATOM     26  C   LIG    1       23.133 -20.307   6.069  0.00  0.00    +0.004 A 
ENDBRANCH  12  21
ENDBRANCH   8   9
ENDBRANCH   4   8
ENDBRANCH   3   4
ENDBRANCH   2   3
ENDBRANCH   1   2
BRANCH   1  27
ATOM     27  N   LIG    1       24.700 -30.688   8.448  0.00  0.00    -0.276 NA
BRANCH  27  28
ATOM     28  C   LIG    1       25.054 -30.881   7.015  0.00  0.00    +0.206 C 
BRANCH  28  29
ATOM     29  C   LIG    1       23.832 -31.188   6.159  0.00  0.00    +0.319 C 
ATOM     30  O   LIG    1       23.383 -32.238   5.858  0.00  0.00    -0.250 OA
BRANCH  29  31
ATOM     31  O   LIG    1       23.280 -30.011   5.742  0.00  0.00    -0.480 OA
ATOM     32  H   LIG    1       23.780 -29.792   4.934  0.00  0.00    +0.295 HD
ENDBRANCH  29  31
ENDBRANCH  28  29
ENDBRANCH  27  28
BRANCH  27  33
ATOM     33  C   LIG    1       24.571 -31.969   9.155  0.00  0.00    +0.206 C 
BRANCH  33  34
ATOM     34  C   LIG    1       23.251 -32.109  10.033  0.00  0.00    +0.319 C 
ATOM     35  O   LIG    1       23.104 -32.641  11.123  0.00  0.00    -0.250 OA
BRANCH  34  36
ATOM     36  O   LIG    1       22.167 -31.540   9.460  0.00  0.00    -0.480 OA
ATOM     37  H   LIG    1       22.388 -30.899   8.770  0.00  0.00    +0.295 HD
ENDBRANCH  34  36
ENDBRANCH  33  34
ENDBRANCH  27  33
ENDBRANCH   1  27
BRANCH   1  38
ATOM     38  C   LIG    1       25.886 -29.528  10.710  0.00  0.00    +0.106 C 
BRANCH  38  39
ATOM     39  N   LIG    1       25.187 -28.869  11.866  0.00  0.00    -0.290 NA
BRANCH  39  40
ATOM     40  C   LIG    1       25.920 -28.420  13.084  0.00  0.00    +0.205 C 
BRANCH  40  41
ATOM     41  C   LIG    1       26.186 -26.917  13.251  0.00  0.00    +0.319 C 
ATOM     42  O   LIG    1       25.381 -26.135  13.742  0.00  0.00    -0.250 OA
BRANCH  41  43
ATOM     43  O   LIG    1       27.374 -26.452  12.836  0.00  0.00    -0.480 OA
ATOM     44  H   LIG    1       27.755 -27.195  12.319  0.00  0.00    +0.295 HD
ENDBRANCH  41  43
ENDBRANCH  40  41
ENDBRANCH  39  40
BRANCH  39  45
ATOM     45  C   LIG    1       23.735 -29.057  12.158  0.00  0.00    +0.100 C 
BRANCH  45  46
ATOM     46  C   LIG    1       22.999 -29.704  13.416  0.00  0.00    +0.101 C 
BRANCH  46  47
ATOM     47  N   LIG    1       21.499 -29.641  13.554  0.00  0.00    -0.281 NA
BRANCH  47  48
ATOM     48  C   LIG    1       20.854 -29.715  12.157  0.00  0.00    +0.206 C 
BRANCH  48  49
ATOM     49  C   LIG    1       19.784 -30.857  12.029  0.00  0.00    +0.319 C 
ATOM     50  O   LIG    1       19.938 -31.943  11.569  0.00  0.00    -0.250 OA
BRANCH  49  51
ATOM     51  O   LIG    1       18.591 -30.460  12.566  0.00  0.00    -0.480 OA
ATOM     52  H   LIG    1       18.014 -30.312  11.792  0.00  0.00    +0.295 HD
ENDBRANCH  49  51
ENDBRANCH  48  49
ENDBRANCH  47  48
BRANCH  47  53
ATOM     53  C   LIG    1       21.127 -28.381  14.326  0.00  0.00    +0.206 C 
BRANCH  53  55
ATOM     54  O   LIG    1       20.301 -26.519  12.889  0.00  0.00    -0.250 OA
ATOM     55  C   LIG    1       20.110 -27.432  13.677  0.00  0.00    +0.319 C 
BRANCH  55  56
ATOM     56  O   LIG    1       18.844 -27.813  13.904  0.00  0.00    -0.480 OA
ATOM     57  H   LIG    1       18.542 -28.056  12.998  0.00  0.00    +0.295 HD
ENDBRANCH  55  56
ENDBRANCH  53  55
ENDBRANCH  47  53
ENDBRANCH  46  47
ENDBRANCH  45  46
ENDBRANCH  39  45
ENDBRANCH  38  39
ENDBRANCH   1  38
TORSDOF 29
ENDMDL
MODEL 8
REMARK VINA RESULT:      -7.4      4.850     12.013
REMARK  Name = *****
REMARK                            x       y       z     vdW  Elec       q    Type
REMARK                         _______ _______ _______ _____ _____    ______ ____
ROOT
ATOM      1  C   LIG    1       26.294 -29.720   9.363  0.00  0.00    +0.098 C 
ENDROOT
BRANCH   1   2
ATOM      2  C   LIG    1       25.428 -28.685   8.585  0.00  0.00    +0.192 C 
BRANCH   2   3
ATOM      3  O   LIG    1       26.128 -27.631   7.940  0.00  0.00    -0.285 OA
BRANCH   3   4
ATOM      4  P   LIG    1       25.745 -26.919   6.559  0.00  0.00    +0.475 P 
ATOM      5  O   LIG    1       25.106 -27.791   5.527  0.00  0.00    -0.227 OA
BRANCH   4   6
ATOM      6  O   LIG    1       27.126 -26.424   5.912  0.00  0.00    -0.302 OA
ATOM      7  H   LIG    1       27.791 -26.662   6.597  0.00  0.00    +0.222 HD
ENDBRANCH   4   6
BRANCH   4   8
ATOM      8  O   LIG    1       25.010 -25.531   6.780  0.00  0.00    -0.283 OA
BRANCH   8   9
ATOM      9  C   LIG    1       24.008 -24.960   5.987  0.00  0.00    +0.130 C 
ATOM     10  C   LIG    1       23.326 -23.938   6.850  0.00  0.00    +0.033 C 
ATOM     11  C   LIG    1       24.337 -22.854   7.257  0.00  0.00    +0.019 C 
ATOM     12  C   LIG    1       25.157 -22.123   6.112  0.00  0.00    +0.021 C 
ATOM     13  C   LIG    1       25.552 -23.161   5.028  0.00  0.00    +0.019 C 
ATOM     14  C   LIG    1       24.531 -24.254   4.737  0.00  0.00    +0.033 C 
BRANCH  12  15
ATOM     15  C   LIG    1       26.505 -21.513   6.704  0.00  0.00    -0.037 A 
ATOM     16  C   LIG    1       27.139 -21.968   7.887  0.00  0.00    +0.004 A 
ATOM     17  C   LIG    1       28.386 -21.471   8.314  0.00  0.00    +0.000 A 
ATOM     18  C   LIG    1       28.998 -20.435   7.625  0.00  0.00    +0.000 A 
ATOM     19  C   LIG    1       28.356 -19.893   6.526  0.00  0.00    +0.000 A 
ATOM     20  C   LIG    1       27.140 -20.421   6.083  0.00  0.00    +0.004 A 
ENDBRANCH  12  15
BRANCH  12  21
ATOM     21  C   LIG    1       24.228 -21.059   5.452  0.00  0.00    -0.037 A 
ATOM     22  C   LIG    1       24.399 -20.625   4.126  0.00  0.00    +0.004 A 
ATOM     23  C   LIG    1       23.591 -19.671   3.520  0.00  0.00    +0.000 A 
ATOM     24  C   LIG    1       22.590 -19.071   4.252  0.00  0.00    +0.000 A 
ATOM     25  C   LIG    1       22.443 -19.394   5.590  0.00  0.00    +0.000 A 
ATOM     26  C   LIG    1       23.206 -20.414   6.154  0.00  0.00    +0.004 A 
ENDBRANCH  12  21
ENDBRANCH   8   9
ENDBRANCH   4   8
ENDBRANCH   3   4
ENDBRANCH   2   3
ENDBRANCH   1   2
BRANCH   1  27
ATOM     27  N   LIG    1       26.408 -29.373  10.838  0.00  0.00    -0.276 NA
BRANCH  27  28
ATOM     28  C   LIG    1       27.606 -28.584  11.234  0.00  0.00    +0.206 C 
BRANCH  28  29
ATOM     29  C   LIG    1       28.547 -29.381  12.127  0.00  0.00    +0.319 C 
ATOM     30  O   LIG    1       28.288 -30.071  13.051  0.00  0.00    -0.250 OA
BRANCH  29  31
ATOM     31  O   LIG    1       29.830 -29.180  11.705  0.00  0.00    -0.480 OA
ATOM     32  H   LIG    1       30.234 -30.066  11.758  0.00  0.00    +0.295 HD
ENDBRANCH  29  31
ENDBRANCH  28  29
ENDBRANCH  27  28
BRANCH  27  33
ATOM     33  C   LIG    1       25.224 -29.000  11.624  0.00  0.00    +0.206 C 
BRANCH  33  34
ATOM     34  C   LIG    1       24.775 -30.086  12.697  0.00  0.00    +0.319 C 
ATOM     35  O   LIG    1       25.059 -31.273  12.758  0.00  0.00    -0.250 OA
BRANCH  34  36
ATOM     36  O   LIG    1       23.973 -29.582  13.661  0.00  0.00    -0.480 OA
ATOM     37  H   LIG    1       23.954 -28.615  13.680  0.00  0.00    +0.295 HD
ENDBRANCH  34  36
ENDBRANCH  33  34
ENDBRANCH  27  33
ENDBRANCH   1  27
BRANCH   1  38
ATOM     38  C   LIG    1       25.901 -31.271   8.835  0.00  0.00    +0.106 C 
BRANCH  38  39
ATOM     39  N   LIG    1       24.489 -31.723   8.587  0.00  0.00    -0.290 NA
BRANCH  39  40
ATOM     40  C   LIG    1       24.017 -32.141   7.236  0.00  0.00    +0.205 C 
BRANCH  40  41
ATOM     41  C   LIG    1       24.313 -31.211   6.051  0.00  0.00    +0.319 C 
ATOM     42  O   LIG    1       25.333 -31.274   5.375  0.00  0.00    -0.250 OA
BRANCH  41  43
ATOM     43  O   LIG    1       23.388 -30.287   5.746  0.00  0.00    -0.480 OA
ATOM     44  H   LIG    1       23.572 -29.550   6.368  0.00  0.00    +0.295 HD
ENDBRANCH  41  43
ENDBRANCH  40  41
ENDBRANCH  39  40
BRANCH  39  45
ATOM     45  C   LIG    1       23.340 -31.329   9.455  0.00  0.00    +0.100 C 
BRANCH  45  46
ATOM     46  C   LIG    1       22.491 -32.174  10.507  0.00  0.00    +0.101 C 
BRANCH  46  47
ATOM     47  N   LIG    1       21.145 -31.690  10.986  0.00  0.00    -0.281 NA
BRANCH  47  48
ATOM     48  C   LIG    1       21.132 -31.660  12.526  0.00  0.00    +0.206 C 
BRANCH  48  49
ATOM     49  C   LIG    1       20.783 -30.246  13.114  0.00  0.00    +0.319 C 
ATOM     50  O   LIG    1       21.056 -29.824  14.193  0.00  0.00    -0.250 OA
BRANCH  49  51
ATOM     51  O   LIG    1       20.123 -29.489  12.186  0.00  0.00    -0.480 OA
ATOM     52  H   LIG    1       20.665 -29.571  11.377  0.00  0.00    +0.295 HD
ENDBRANCH  49  51
ENDBRANCH  48  49
ENDBRANCH  47  48
BRANCH  47  53
ATOM     53  C   LIG    1       20.060 -32.580  10.390  0.00  0.00    +0.206 C 
BRANCH  53  55
ATOM     54  O   LIG    1       17.667 -32.367   9.729  0.00  0.00    -0.250 OA
ATOM     55  C   LIG    1       18.779 -31.893   9.896  0.00  0.00    +0.319 C 
BRANCH  55  56
ATOM     56  O   LIG    1       18.914 -30.560   9.822  0.00  0.00    -0.480 OA
ATOM     57  H   LIG    1       17.976 -30.267   9.759  0.00  0.00    +0.295 HD
ENDBRANCH  55  56
ENDBRANCH  53  55
ENDBRANCH  47  53
ENDBRANCH  46  47
ENDBRANCH  45  46
ENDBRANCH  39  45
ENDBRANCH  38  39
ENDBRANCH   1  38
TORSDOF 29
ENDMDL
MODEL 9
REMARK VINA RESULT:      -7.4      2.008      3.841
REMARK  Name = *****
REMARK                            x       y       z     vdW  Elec       q    Type
REMARK                         _______ _______ _______ _____ _____    ______ ____
ROOT
ATOM      1  C   LIG    1       25.554 -23.326   6.073  0.00  0.00    +0.098 C 
ENDROOT
BRANCH   1   2
ATOM      2  C   LIG    1       24.843 -24.614   6.584  0.00  0.00    +0.192 C 
BRANCH   2   3
ATOM      3  O   LIG    1       25.677 -25.730   6.859  0.00  0.00    -0.285 OA
BRANCH   3   4
ATOM      4  P   LIG    1       25.373 -27.268   6.533  0.00  0.00    +0.475 P 
ATOM      5  O   LIG    1       26.099 -27.846   5.362  0.00  0.00    -0.227 OA
BRANCH   4   6
ATOM      6  O   LIG    1       23.816 -27.347   6.159  0.00  0.00    -0.302 OA
ATOM      7  H   LIG    1       23.729 -28.240   5.754  0.00  0.00    +0.222 HD
ENDBRANCH   4   6
BRANCH   4   8
ATOM      8  O   LIG    1       25.408 -28.178   7.831  0.00  0.00    -0.283 OA
BRANCH   8   9
ATOM      9  C   LIG    1       25.552 -29.569   7.896  0.00  0.00    +0.130 C 
ATOM     10  C   LIG    1       26.616 -29.831   8.922  0.00  0.00    +0.033 C 
ATOM     11  C   LIG    1       26.152 -29.301  10.288  0.00  0.00    +0.019 C 
ATOM     12  C   LIG    1       24.745 -29.782  10.843  0.00  0.00    +0.021 C 
ATOM     13  C   LIG    1       23.732 -29.847   9.670  0.00  0.00    +0.019 C 
ATOM     14  C   LIG    1       24.284 -30.306   8.326  0.00  0.00    +0.033 C 
BRANCH  12  15
ATOM     15  C   LIG    1       24.184 -28.733  11.902  0.00  0.00    -0.037 A 
ATOM     16  C   LIG    1       22.816 -28.592  12.244  0.00  0.00    +0.004 A 
ATOM     17  C   LIG    1       22.378 -27.726  13.265  0.00  0.00    +0.000 A 
ATOM     18  C   LIG    1       23.281 -26.899  13.914  0.00  0.00    +0.000 A 
ATOM     19  C   LIG    1       24.610 -26.931  13.532  0.00  0.00    +0.000 A 
ATOM     20  C   LIG    1       25.044 -27.825  12.548  0.00  0.00    +0.004 A 
ENDBRANCH  12  15
BRANCH  12  21
ATOM     21  C   LIG    1       24.917 -31.220  11.420  0.00  0.00    -0.037 A 
ATOM     22  C   LIG    1       24.989 -31.477  12.800  0.00  0.00    +0.004 A 
ATOM     23  C   LIG    1       25.153 -32.747  13.337  0.00  0.00    +0.000 A 
ATOM     24  C   LIG    1       25.299 -33.825  12.492  0.00  0.00    +0.000 A 
ATOM     25  C   LIG    1       25.331 -33.611  11.124  0.00  0.00    +0.000 A 
ATOM     26  C   LIG    1       25.079 -32.344  10.605  0.00  0.00    +0.004 A 
ENDBRANCH  12  21
ENDBRANCH   8   9
ENDBRANCH   4   8
ENDBRANCH   3   4
ENDBRANCH   2   3
ENDBRANCH   1   2
BRANCH   1  27
ATOM     27  N   LIG    1       24.561 -22.261   5.642  0.00  0.00    -0.276 NA
BRANCH  27  28
ATOM     28  C   LIG    1       24.686 -21.779   4.239  0.00  0.00    +0.206 C 
BRANCH  28  29
ATOM     29  C   LIG    1       25.187 -20.342   4.170  0.00  0.00    +0.319 C 
ATOM     30  O   LIG    1       24.569 -19.346   4.032  0.00  0.00    -0.250 OA
BRANCH  29  31
ATOM     31  O   LIG    1       26.548 -20.345   4.286  0.00  0.00    -0.480 OA
ATOM     32  H   LIG    1       26.728 -19.635   4.929  0.00  0.00    +0.295 HD
ENDBRANCH  29  31
ENDBRANCH  28  29
ENDBRANCH  27  28
BRANCH  27  33
ATOM     33  C   LIG    1       23.159 -22.307   6.079  0.00  0.00    +0.206 C 
BRANCH  33  34
ATOM     34  C   LIG    1       22.246 -21.141   5.496  0.00  0.00    +0.319 C 
ATOM     35  O   LIG    1       21.343 -21.206   4.676  0.00  0.00    -0.250 OA
BRANCH  34  36
ATOM     36  O   LIG    1       22.540 -19.926   6.012  0.00  0.00    -0.480 OA
ATOM     37  H   LIG    1       23.194 -19.958   6.724  0.00  0.00    +0.295 HD
ENDBRANCH  34  36
ENDBRANCH  33  34
ENDBRANCH  27  33
ENDBRANCH   1  27
BRANCH   1  38
ATOM     38  C   LIG    1       26.856 -22.979   7.086  0.00  0.00    +0.106 C 
BRANCH  38  39
ATOM     39  N   LIG    1       27.469 -21.611   7.199  0.00  0.00    -0.290 NA
BRANCH  39  40
ATOM     40  C   LIG    1       26.681 -20.424   7.636  0.00  0.00    +0.205 C 
BRANCH  40  41
ATOM     41  C   LIG    1       25.523 -20.650   8.618  0.00  0.00    +0.319 C 
ATOM     42  O   LIG    1       25.662 -21.136   9.734  0.00  0.00    -0.250 OA
BRANCH  41  43
ATOM     43  O   LIG    1       24.296 -20.280   8.218  0.00  0.00    -0.480 OA
ATOM     44  H   LIG    1       23.881 -19.914   9.029  0.00  0.00    +0.295 HD
ENDBRANCH  41  43
ENDBRANCH  40  41
ENDBRANCH  39  40
BRANCH  39  45
ATOM     45  C   LIG    1       28.684 -21.194   6.438  0.00  0.00    +0.100 C 
BRANCH  45  46
ATOM     46  C   LIG    1       29.593 -19.890   6.560  0.00  0.00    +0.101 C 
BRANCH  46  47
ATOM     47  N   LIG    1       30.491 -19.679   7.753  0.00  0.00    -0.281 NA
BRANCH  47  48
ATOM     48  C   LIG    1       30.162 -20.730   8.831  0.00  0.00    +0.206 C 
BRANCH  48  49
ATOM     49  C   LIG    1       31.354 -21.708   9.126  0.00  0.00    +0.319 C 
ATOM     50  O   LIG    1       31.334 -22.898   9.111  0.00  0.00    -0.250 OA
BRANCH  49  51
ATOM     51  O   LIG    1       32.499 -21.007   9.385  0.00  0.00    -0.480 OA
ATOM     52  H   LIG    1       32.949 -21.526  10.079  0.00  0.00    +0.295 HD
ENDBRANCH  49  51
ENDBRANCH  48  49
ENDBRANCH  47  48
BRANCH  47  53
ATOM     53  C   LIG    1       30.336 -18.244   8.241  0.00  0.00    +0.206 C 
BRANCH  53  55
ATOM     54  O   LIG    1       32.030 -18.185  10.068  0.00  0.00    -0.250 OA
ATOM     55  C   LIG    1       30.936 -17.897   9.610  0.00  0.00    +0.319 C 
BRANCH  55  56
ATOM     56  O   LIG    1       30.186 -17.009  10.282  0.00  0.00    -0.480 OA
ATOM     57  H   LIG    1       30.848 -16.314  10.503  0.00  0.00    +0.295 HD
ENDBRANCH  55  56
ENDBRANCH  53  55
ENDBRANCH  47  53
ENDBRANCH  46  47
ENDBRANCH  45  46
ENDBRANCH  39  45
ENDBRANCH  38  39
ENDBRANCH   1  38
TORSDOF 29
ENDMDL
