MODEL 1
REMARK VINA RESULT:      -8.8      0.000      0.000
REMARK  Name = *****
REMARK                            x       y       z     vdW  Elec       q    Type
REMARK                         _______ _______ _______ _____ _____    ______ ____
ROOT
ATOM      1  C   LIG    1       28.162 -20.452   7.536  0.00  0.00    +0.122 A 
ATOM      2  C   LIG    1       27.968 -20.265   6.178  0.00  0.00    +0.046 A 
ATOM      3  C   LIG    1       26.669 -20.249   5.649  0.00  0.00    +0.007 A 
ATOM      4  C   LIG    1       25.528 -20.433   6.448  0.00  0.00    -0.041 A 
ATOM      5  C   LIG    1       25.742 -20.569   7.826  0.00  0.00    +0.007 A 
ATOM      6  C   LIG    1       27.039 -20.574   8.360  0.00  0.00    +0.046 A 
ENDROOT
BRANCH   4   7
ATOM      7  C   LIG    1       24.159 -20.623   5.828  0.00  0.00    +0.058 C 
ATOM      8  C   LIG    1       23.661 -19.938   4.576  0.00  0.00    +0.126 C 
ATOM      9 CL   LIG    1       24.670 -18.801   3.703  0.00  0.00    -0.100 Cl
ATOM     10 CL   LIG    1       21.936 -19.575   4.463  0.00  0.00    -0.100 Cl
ATOM     11  C   LIG    1       24.039 -21.389   4.528  0.00  0.00    +0.050 C 
ENDBRANCH   4   7
BRANCH   1  12
ATOM     12  O   LIG    1       29.351 -20.590   8.182  0.00  0.00    -0.475 OA
BRANCH  12  14
ATOM     13  C   LIG    1       30.900 -19.312   6.735  0.00  0.00    +0.067 C 
ATOM     14  C   LIG    1       30.407 -19.621   8.152  0.00  0.00    +0.200 C 
ATOM     15  C   LIG    1       29.727 -18.346   8.691  0.00  0.00    +0.067 C 
BRANCH  14  16
ATOM     16  C   LIG    1       31.599 -19.875   9.112  0.00  0.00    +0.348 C 
ATOM     17  O   LIG    1       32.168 -20.944   9.241  0.00  0.00    -0.246 OA
BRANCH  16  18
ATOM     18  O   LIG    1       32.003 -18.758   9.772  0.00  0.00    -0.478 OA
ATOM     19  H   LIG    1       32.862 -18.429   9.448  0.00  0.00    +0.295 HD
ENDBRANCH  16  18
ENDBRANCH  14  16
ENDBRANCH  12  14
ENDBRANCH   1  12
TORSDOF 5
ENDMDL
MODEL 2
REMARK VINA RESULT:      -8.7      0.820      1.407
REMARK  Name = *****
REMARK                            x       y       z     vdW  Elec       q    Type
REMARK                         _______ _______ _______ _____ _____    ______ ____
ROOT
ATOM      1  C   LIG    1       28.212 -21.093   7.497  0.00  0.00    +0.122 A 
ATOM      2  C   LIG    1       27.192 -21.510   8.336  0.00  0.00    +0.046 A 
ATOM      3  C   LIG    1       25.854 -21.332   7.959  0.00  0.00    +0.007 A 
ATOM      4  C   LIG    1       25.487 -20.721   6.748  0.00  0.00    -0.041 A 
ATOM      5  C   LIG    1       26.532 -20.351   5.890  0.00  0.00    +0.007 A 
ATOM      6  C   LIG    1       27.872 -20.539   6.259  0.00  0.00    +0.046 A 
ENDROOT
BRANCH   4   7
ATOM      7  C   LIG    1       24.047 -20.349   6.461  0.00  0.00    +0.058 C 
ATOM      8  C   LIG    1       23.366 -20.452   5.116  0.00  0.00    +0.126 C 
ATOM      9 CL   LIG    1       24.234 -21.023   3.703  0.00  0.00    -0.100 Cl
ATOM     10 CL   LIG    1       22.105 -19.275   4.735  0.00  0.00    -0.100 Cl
ATOM     11  C   LIG    1       23.042 -21.449   6.189  0.00  0.00    +0.050 C 
ENDBRANCH   4   7
BRANCH   1  12
ATOM     12  O   LIG    1       29.546 -21.105   7.760  0.00  0.00    -0.475 OA
BRANCH  12  14
ATOM     13  C   LIG    1       30.824 -19.282   6.677  0.00  0.00    +0.067 C 
ATOM     14  C   LIG    1       30.339 -19.931   7.977  0.00  0.00    +0.200 C 
ATOM     15  C   LIG    1       29.345 -18.953   8.636  0.00  0.00    +0.067 C 
BRANCH  14  16
ATOM     16  C   LIG    1       31.501 -20.067   8.997  0.00  0.00    +0.348 C 
ATOM     17  O   LIG    1       32.080 -21.107   9.252  0.00  0.00    -0.246 OA
BRANCH  16  18
ATOM     18  O   LIG    1       31.867 -18.882   9.554  0.00  0.00    -0.478 OA
ATOM     19  H   LIG    1       31.097 -18.338   9.803  0.00  0.00    +0.295 HD
ENDBRANCH  16  18
ENDBRANCH  14  16
ENDBRANCH  12  14
ENDBRANCH   1  12
TORSDOF 5
ENDMDL
MODEL 3
REMARK VINA RESULT:      -8.0      4.462      7.034
REMARK  Name = *****
REMARK                            x       y       z     vdW  Elec       q    Type
REMARK                         _______ _______ _______ _____ _____    ______ ____
ROOT
ATOM      1  C   LIG    1       26.059 -21.737   6.432  0.00  0.00    +0.122 A 
ATOM      2  C   LIG    1       26.435 -20.651   5.661  0.00  0.00    +0.046 A 
ATOM      3  C   LIG    1       27.573 -19.906   6.003  0.00  0.00    +0.007 A 
ATOM      4  C   LIG    1       28.360 -20.206   7.127  0.00  0.00    -0.041 A 
ATOM      5  C   LIG    1       27.994 -21.340   7.865  0.00  0.00    +0.007 A 
ATOM      6  C   LIG    1       26.863 -22.094   7.519  0.00  0.00    +0.046 A 
ENDROOT
BRANCH   4   7
ATOM      7  C   LIG    1       29.453 -19.266   7.594  0.00  0.00    +0.058 C 
ATOM      8  C   LIG    1       30.708 -19.676   8.329  0.00  0.00    +0.126 C 
ATOM      9 CL   LIG    1       31.011 -21.354   8.736  0.00  0.00    -0.100 Cl
ATOM     10 CL   LIG    1       31.394 -18.538   9.492  0.00  0.00    -0.100 Cl
ATOM     11  C   LIG    1       30.790 -19.280   6.884  0.00  0.00    +0.050 C 
ENDBRANCH   4   7
BRANCH   1  12
ATOM     12  O   LIG    1       24.937 -22.493   6.291  0.00  0.00    -0.475 OA
BRANCH  12  14
ATOM     13  C   LIG    1       22.579 -23.082   6.763  0.00  0.00    +0.067 C 
ATOM     14  C   LIG    1       23.601 -21.991   6.423  0.00  0.00    +0.200 C 
ATOM     15  C   LIG    1       23.698 -21.055   7.645  0.00  0.00    +0.067 C 
BRANCH  14  16
ATOM     16  C   LIG    1       23.090 -21.091   5.268  0.00  0.00    +0.348 C 
ATOM     17  O   LIG    1       22.513 -20.030   5.421  0.00  0.00    -0.246 OA
BRANCH  16  18
ATOM     18  O   LIG    1       23.401 -21.572   4.036  0.00  0.00    -0.478 OA
ATOM     19  H   LIG    1       23.823 -22.451   4.078  0.00  0.00    +0.295 HD
ENDBRANCH  16  18
ENDBRANCH  14  16
ENDBRANCH  12  14
ENDBRANCH   1  12
TORSDOF 5
ENDMDL
MODEL 4
REMARK VINA RESULT:      -8.0      4.393      7.072
REMARK  Name = *****
REMARK                            x       y       z     vdW  Elec       q    Type
REMARK                         _______ _______ _______ _____ _____    ______ ____
ROOT
ATOM      1  C   LIG    1       25.761 -20.886   7.027  0.00  0.00    +0.122 A 
ATOM      2  C   LIG    1       26.459 -20.432   5.921  0.00  0.00    +0.046 A 
ATOM      3  C   LIG    1       27.745 -19.894   6.073  0.00  0.00    +0.007 A 
ATOM      4  C   LIG    1       28.369 -19.777   7.327  0.00  0.00    -0.041 A 
ATOM      5  C   LIG    1       27.668 -20.288   8.428  0.00  0.00    +0.007 A 
ATOM      6  C   LIG    1       26.386 -20.837   8.277  0.00  0.00    +0.046 A 
ENDROOT
BRANCH   4   7
ATOM      7  C   LIG    1       29.661 -19.003   7.490  0.00  0.00    +0.058 C 
ATOM      8  C   LIG    1       30.922 -19.529   8.137  0.00  0.00    +0.126 C 
ATOM      9 CL   LIG    1       30.992 -21.152   8.797  0.00  0.00    -0.100 Cl
ATOM     10 CL   LIG    1       31.954 -18.379   8.992  0.00  0.00    -0.100 Cl
ATOM     11  C   LIG    1       30.859 -19.383   6.645  0.00  0.00    +0.050 C 
ENDBRANCH   4   7
BRANCH   1  12
ATOM     12  O   LIG    1       24.478 -21.338   7.058  0.00  0.00    -0.475 OA
BRANCH  12  14
ATOM     13  C   LIG    1       24.851 -23.242   5.521  0.00  0.00    +0.067 C 
ATOM     14  C   LIG    1       23.890 -22.173   6.053  0.00  0.00    +0.200 C 
ATOM     15  C   LIG    1       22.767 -22.902   6.816  0.00  0.00    +0.067 C 
BRANCH  14  16
ATOM     16  C   LIG    1       23.173 -21.442   4.887  0.00  0.00    +0.348 C 
ATOM     17  O   LIG    1       22.171 -20.761   5.009  0.00  0.00    -0.246 OA
BRANCH  16  18
ATOM     18  O   LIG    1       23.810 -21.581   3.695  0.00  0.00    -0.478 OA
ATOM     19  H   LIG    1       24.575 -22.184   3.752  0.00  0.00    +0.295 HD
ENDBRANCH  16  18
ENDBRANCH  14  16
ENDBRANCH  12  14
ENDBRANCH   1  12
TORSDOF 5
ENDMDL
MODEL 5
REMARK VINA RESULT:      -8.0      4.830      6.540
REMARK  Name = *****
REMARK                            x       y       z     vdW  Elec       q    Type
REMARK                         _______ _______ _______ _____ _____    ______ ____
ROOT
ATOM      1  C   LIG    1       25.036 -24.081   6.785  0.00  0.00    +0.122 A 
ATOM      2  C   LIG    1       25.660 -22.861   6.587  0.00  0.00    +0.046 A 
ATOM      3  C   LIG    1       24.895 -21.708   6.363  0.00  0.00    +0.007 A 
ATOM      4  C   LIG    1       23.491 -21.733   6.312  0.00  0.00    -0.041 A 
ATOM      5  C   LIG    1       22.876 -22.967   6.565  0.00  0.00    +0.007 A 
ATOM      6  C   LIG    1       23.639 -24.121   6.802  0.00  0.00    +0.046 A 
ENDROOT
BRANCH   4   7
ATOM      7  C   LIG    1       22.701 -20.523   5.860  0.00  0.00    +0.058 C 
ATOM      8  C   LIG    1       22.926 -19.758   4.575  0.00  0.00    +0.126 C 
ATOM      9 CL   LIG    1       24.192 -20.223   3.455  0.00  0.00    -0.100 Cl
ATOM     10 CL   LIG    1       22.593 -18.024   4.577  0.00  0.00    -0.100 Cl
ATOM     11  C   LIG    1       21.736 -20.663   4.701  0.00  0.00    +0.050 C 
ENDBRANCH   4   7
BRANCH   1  12
ATOM     12  O   LIG    1       25.634 -25.296   6.915  0.00  0.00    -0.475 OA
BRANCH  12  14
ATOM     13  C   LIG    1       25.182 -25.805   4.535  0.00  0.00    +0.067 C 
ATOM     14  C   LIG    1       25.615 -26.319   5.912  0.00  0.00    +0.200 C 
ATOM     15  C   LIG    1       27.096 -26.732   5.803  0.00  0.00    +0.067 C 
BRANCH  14  16
ATOM     16  C   LIG    1       24.862 -27.625   6.278  0.00  0.00    +0.348 C 
ATOM     17  O   LIG    1       25.090 -28.303   7.264  0.00  0.00    -0.246 OA
BRANCH  16  18
ATOM     18  O   LIG    1       23.858 -27.926   5.413  0.00  0.00    -0.478 OA
ATOM     19  H   LIG    1       24.176 -28.015   4.495  0.00  0.00    +0.295 HD
ENDBRANCH  16  18
ENDBRANCH  14  16
ENDBRANCH  12  14
ENDBRANCH   1  12
TORSDOF 5
ENDMDL
MODEL 6
REMARK VINA RESULT:      -7.9      4.274      7.028
REMARK  Name = *****
REMARK                            x       y       z     vdW  Elec       q    Type
REMARK                         _______ _______ _______ _____ _____    ______ ____
ROOT
ATOM      1  C   LIG    1       26.173 -21.210   6.172  0.00  0.00    +0.122 A 
ATOM      2  C   LIG    1       26.820 -21.807   7.240  0.00  0.00    +0.046 A 
ATOM      3  C   LIG    1       28.093 -21.366   7.628  0.00  0.00    +0.007 A 
ATOM      4  C   LIG    1       28.767 -20.331   6.958  0.00  0.00    -0.041 A 
ATOM      5  C   LIG    1       28.076 -19.704   5.912  0.00  0.00    +0.007 A 
ATOM      6  C   LIG    1       26.797 -20.136   5.530  0.00  0.00    +0.046 A 
ENDROOT
BRANCH   4   7
ATOM      7  C   LIG    1       30.219 -20.017   7.259  0.00  0.00    +0.058 C 
ATOM      8  C   LIG    1       30.709 -19.114   8.366  0.00  0.00    +0.126 C 
ATOM      9 CL   LIG    1       29.584 -18.301   9.437  0.00  0.00    -0.100 Cl
ATOM     10 CL   LIG    1       32.197 -18.202   8.091  0.00  0.00    -0.100 Cl
ATOM     11  C   LIG    1       30.856 -20.600   8.502  0.00  0.00    +0.050 C 
ENDBRANCH   4   7
BRANCH   1  12
ATOM     12  O   LIG    1       24.989 -21.586   5.616  0.00  0.00    -0.475 OA
BRANCH  12  14
ATOM     13  C   LIG    1       23.692 -21.010   7.644  0.00  0.00    +0.067 C 
ATOM     14  C   LIG    1       23.790 -21.839   6.359  0.00  0.00    +0.200 C 
ATOM     15  C   LIG    1       22.679 -21.349   5.409  0.00  0.00    +0.067 C 
BRANCH  14  16
ATOM     16  C   LIG    1       23.455 -23.329   6.632  0.00  0.00    +0.348 C 
ATOM     17  O   LIG    1       24.278 -24.186   6.900  0.00  0.00    -0.246 OA
BRANCH  16  18
ATOM     18  O   LIG    1       22.122 -23.593   6.604  0.00  0.00    -0.478 OA
ATOM     19  H   LIG    1       21.906 -24.447   7.020  0.00  0.00    +0.295 HD
ENDBRANCH  16  18
ENDBRANCH  14  16
ENDBRANCH  12  14
ENDBRANCH   1  12
TORSDOF 5
ENDMDL
MODEL 7
REMARK VINA RESULT:      -7.9      5.192      6.785
REMARK  Name = *****
REMARK                            x       y       z     vdW  Elec       q    Type
REMARK                         _______ _______ _______ _____ _____    ______ ____
ROOT
ATOM      1  C   LIG    1       24.219 -22.081   6.209  0.00  0.00    +0.122 A 
ATOM      2  C   LIG    1       23.076 -22.813   6.484  0.00  0.00    +0.046 A 
ATOM      3  C   LIG    1       23.160 -24.197   6.693  0.00  0.00    +0.007 A 
ATOM      4  C   LIG    1       24.376 -24.897   6.620  0.00  0.00    -0.041 A 
ATOM      5  C   LIG    1       25.528 -24.132   6.392  0.00  0.00    +0.007 A 
ATOM      6  C   LIG    1       25.449 -22.746   6.194  0.00  0.00    +0.046 A 
ENDROOT
BRANCH   4   7
ATOM      7  C   LIG    1       24.411 -26.412   6.638  0.00  0.00    +0.058 C 
ATOM      8  C   LIG    1       25.041 -27.287   5.579  0.00  0.00    +0.126 C 
ATOM      9 CL   LIG    1       25.807 -26.588   4.165  0.00  0.00    -0.100 Cl
ATOM     10 CL   LIG    1       24.314 -28.867   5.273  0.00  0.00    -0.100 Cl
ATOM     11  C   LIG    1       25.726 -27.115   6.902  0.00  0.00    +0.050 C 
ENDBRANCH   4   7
BRANCH   1  12
ATOM     12  O   LIG    1       24.289 -20.761   5.888  0.00  0.00    -0.475 OA
BRANCH  12  14
ATOM     13  C   LIG    1       23.885 -21.317   3.510  0.00  0.00    +0.067 C 
ATOM     14  C   LIG    1       24.243 -20.250   4.550  0.00  0.00    +0.200 C 
ATOM     15  C   LIG    1       23.075 -19.245   4.599  0.00  0.00    +0.067 C 
BRANCH  14  16
ATOM     16  C   LIG    1       25.469 -19.417   4.091  0.00  0.00    +0.348 C 
ATOM     17  O   LIG    1       25.404 -18.392   3.438  0.00  0.00    -0.246 OA
BRANCH  16  18
ATOM     18  O   LIG    1       26.652 -19.911   4.543  0.00  0.00    -0.478 OA
ATOM     19  H   LIG    1       26.530 -20.582   5.240  0.00  0.00    +0.295 HD
ENDBRANCH  16  18
ENDBRANCH  14  16
ENDBRANCH  12  14
ENDBRANCH   1  12
TORSDOF 5
ENDMDL
MODEL 8
REMARK VINA RESULT:      -7.8      5.878      7.356
REMARK  Name = *****
REMARK                            x       y       z     vdW  Elec       q    Type
REMARK                         _______ _______ _______ _____ _____    ______ ____
ROOT
ATOM      1  C   LIG    1       25.061 -23.949   6.920  0.00  0.00    +0.122 A 
ATOM      2  C   LIG    1       26.238 -24.630   6.660  0.00  0.00    +0.046 A 
ATOM      3  C   LIG    1       26.201 -25.891   6.049  0.00  0.00    +0.007 A 
ATOM      4  C   LIG    1       24.996 -26.520   5.692  0.00  0.00    -0.041 A 
ATOM      5  C   LIG    1       23.818 -25.794   5.916  0.00  0.00    +0.007 A 
ATOM      6  C   LIG    1       23.853 -24.526   6.517  0.00  0.00    +0.046 A 
ENDROOT
BRANCH   4   7
ATOM      7  C   LIG    1       24.971 -27.962   5.230  0.00  0.00    +0.058 C 
ATOM      8  C   LIG    1       25.124 -29.172   6.124  0.00  0.00    +0.126 C 
ATOM      9 CL   LIG    1       25.370 -28.996   7.851  0.00  0.00    -0.100 Cl
ATOM     10 CL   LIG    1       25.901 -30.606   5.448  0.00  0.00    -0.100 Cl
ATOM     11  C   LIG    1       23.774 -28.824   5.570  0.00  0.00    +0.050 C 
ENDBRANCH   4   7
BRANCH   1  12
ATOM     12  O   LIG    1       24.925 -22.773   7.591  0.00  0.00    -0.475 OA
BRANCH  12  14
ATOM     13  C   LIG    1       23.318 -20.955   7.100  0.00  0.00    +0.067 C 
ATOM     14  C   LIG    1       24.744 -21.498   6.961  0.00  0.00    +0.200 C 
ATOM     15  C   LIG    1       25.670 -20.572   7.773  0.00  0.00    +0.067 C 
BRANCH  14  16
ATOM     16  C   LIG    1       25.243 -21.380   5.497  0.00  0.00    +0.348 C 
ATOM     17  O   LIG    1       24.570 -21.631   4.513  0.00  0.00    -0.246 OA
BRANCH  16  18
ATOM     18  O   LIG    1       26.512 -20.903   5.399  0.00  0.00    -0.478 OA
ATOM     19  H   LIG    1       26.533 -19.956   5.167  0.00  0.00    +0.295 HD
ENDBRANCH  16  18
ENDBRANCH  14  16
ENDBRANCH  12  14
ENDBRANCH   1  12
TORSDOF 5
ENDMDL
MODEL 9
REMARK VINA RESULT:      -7.7      1.085      1.771
REMARK  Name = *****
REMARK                            x       y       z     vdW  Elec       q    Type
REMARK                         _______ _______ _______ _____ _____    ______ ____
ROOT
ATOM      1  C   LIG    1       28.216 -19.685   7.527  0.00  0.00    +0.122 A 
ATOM      2  C   LIG    1       27.284 -20.237   8.390  0.00  0.00    +0.046 A 
ATOM      3  C   LIG    1       26.136 -20.861   7.881  0.00  0.00    +0.007 A 
ATOM      4  C   LIG    1       25.871 -20.940   6.503  0.00  0.00    -0.041 A 
ATOM      5  C   LIG    1       26.850 -20.422   5.644  0.00  0.00    +0.007 A 
ATOM      6  C   LIG    1       28.005 -19.808   6.151  0.00  0.00    +0.046 A 
ENDROOT
BRANCH   4   7
ATOM      7  C   LIG    1       24.531 -21.426   5.989  0.00  0.00    +0.058 C 
ATOM      8  C   LIG    1       23.750 -20.805   4.854  0.00  0.00    +0.126 C 
ATOM      9 CL   LIG    1       24.353 -19.394   4.006  0.00  0.00    -0.100 Cl
ATOM     10 CL   LIG    1       21.987 -20.881   4.925  0.00  0.00    -0.100 Cl
ATOM     11  C   LIG    1       24.463 -22.108   4.639  0.00  0.00    +0.050 C 
ENDBRANCH   4   7
BRANCH   1  12
ATOM     12  O   LIG    1       29.320 -18.966   7.865  0.00  0.00    -0.475 OA
BRANCH  12  14
ATOM     13  C   LIG    1       30.483 -21.053   8.515  0.00  0.00    +0.067 C 
ATOM     14  C   LIG    1       30.568 -19.543   8.272  0.00  0.00    +0.200 C 
ATOM     15  C   LIG    1       31.472 -19.325   7.042  0.00  0.00    +0.067 C 
BRANCH  14  16
ATOM     16  C   LIG    1       31.302 -18.833   9.439  0.00  0.00    +0.348 C 
ATOM     17  O   LIG    1       32.348 -18.218   9.329  0.00  0.00    -0.246 OA
BRANCH  16  18
ATOM     18  O   LIG    1       30.631 -18.908  10.619  0.00  0.00    -0.478 OA
ATOM     19  H   LIG    1       29.667 -18.976  10.491  0.00  0.00    +0.295 HD
ENDBRANCH  16  18
ENDBRANCH  14  16
ENDBRANCH  12  14
ENDBRANCH   1  12
TORSDOF 5
ENDMDL
