MODEL 1
REMARK VINA RESULT:      -4.9      0.000      0.000
REMARK  Name = *****
REMARK                            x       y       z     vdW  Elec       q    Type
REMARK                         _______ _______ _______ _____ _____    ______ ____
ROOT
ATOM      1  C   LIG    1       24.905 -20.261   5.442  0.00  0.00    +0.023 C 
ENDROOT
BRANCH   1   2
ATOM      2  C   LIG    1       26.394 -20.217   5.799  0.00  0.00    -0.041 A 
ATOM      3  C   LIG    1       27.282 -19.294   5.222  0.00  0.00    +0.049 A 
ATOM      4  C   LIG    1       28.642 -19.318   5.562  0.00  0.00    +0.117 A 
ATOM      5  C   LIG    1       29.136 -20.235   6.479  0.00  0.00    +0.045 A 
ATOM      6  C   LIG    1       28.265 -21.152   7.062  0.00  0.00    +0.004 A 
ATOM      7  C   LIG    1       26.905 -21.142   6.722  0.00  0.00    +0.004 A 
BRANCH   4   8
ATOM      8  O   LIG    1       29.463 -18.412   4.967  0.00  0.00    -0.507 OA
ATOM      9  H   LIG    1       30.279 -18.338   5.485  0.00  0.00    +0.292 HD
ENDBRANCH   4   8
ENDBRANCH   1   2
BRANCH   1  11
ATOM     10  C   LIG    1       23.198 -21.341   7.049  0.00  0.00    +0.004 C 
ATOM     11  C   LIG    1       24.257 -21.572   5.976  0.00  0.00    +0.005 C 
ENDBRANCH   1  11
BRANCH   1  12
ATOM     12  C   LIG    1       24.611 -20.059   3.909  0.00  0.00    +0.007 C 
ATOM     13  C   LIG    1       23.893 -21.298   3.332  0.00  0.00    +0.009 C 
BRANCH  12  14
ATOM     14  C   LIG    1       23.771 -18.777   3.607  0.00  0.00    +0.087 C 
BRANCH  14  15
ATOM     15  N   LIG    1       22.571 -18.568   4.453  0.00  0.00    -0.308 NA
ATOM     16  C   LIG    1       21.358 -19.151   3.877  0.00  0.00    +0.104 C 
ATOM     17  C   LIG    1       22.355 -17.131   4.668  0.00  0.00    +0.104 C 
ENDBRANCH  14  15
ENDBRANCH  12  14
ENDBRANCH   1  12
TORSDOF 6
ENDMDL
MODEL 2
REMARK VINA RESULT:      -4.1      4.265      6.718
REMARK  Name = *****
REMARK                            x       y       z     vdW  Elec       q    Type
REMARK                         _______ _______ _______ _____ _____    ______ ____
ROOT
ATOM      1  C   LIG    1       24.793 -15.021   4.016  0.00  0.00    +0.023 C 
ENDROOT
BRANCH   1   2
ATOM      2  C   LIG    1       24.137 -16.404   4.050  0.00  0.00    -0.041 A 
ATOM      3  C   LIG    1       24.813 -17.571   3.655  0.00  0.00    +0.049 A 
ATOM      4  C   LIG    1       24.154 -18.808   3.676  0.00  0.00    +0.117 A 
ATOM      5  C   LIG    1       22.836 -18.911   4.098  0.00  0.00    +0.045 A 
ATOM      6  C   LIG    1       22.156 -17.763   4.497  0.00  0.00    +0.004 A 
ATOM      7  C   LIG    1       22.803 -16.520   4.471  0.00  0.00    +0.004 A 
BRANCH   4   8
ATOM      8  O   LIG    1       24.848 -19.906   3.272  0.00  0.00    -0.507 OA
ATOM      9  H   LIG    1       24.776 -20.592   3.954  0.00  0.00    +0.292 HD
ENDBRANCH   4   8
ENDBRANCH   1   2
BRANCH   1  11
ATOM     10  C   LIG    1       23.993 -12.596   4.391  0.00  0.00    +0.004 C 
ATOM     11  C   LIG    1       23.736 -13.925   3.691  0.00  0.00    +0.005 C 
ENDBRANCH   1  11
BRANCH   1  12
ATOM     12  C   LIG    1       26.032 -14.926   3.049  0.00  0.00    +0.007 C 
ATOM     13  C   LIG    1       25.821 -13.801   2.013  0.00  0.00    +0.009 C 
BRANCH  12  14
ATOM     14  C   LIG    1       27.384 -14.703   3.799  0.00  0.00    +0.087 C 
BRANCH  14  15
ATOM     15  N   LIG    1       27.651 -13.320   4.264  0.00  0.00    -0.308 NA
ATOM     16  C   LIG    1       29.003 -12.861   3.942  0.00  0.00    +0.104 C 
ATOM     17  C   LIG    1       27.450 -13.234   5.716  0.00  0.00    +0.104 C 
ENDBRANCH  14  15
ENDBRANCH  12  14
ENDBRANCH   1  12
TORSDOF 6
ENDMDL
MODEL 3
REMARK VINA RESULT:      -3.7      4.596      6.707
REMARK  Name = *****
REMARK                            x       y       z     vdW  Elec       q    Type
REMARK                         _______ _______ _______ _____ _____    ______ ____
ROOT
ATOM      1  C   LIG    1       25.085 -15.198   3.919  0.00  0.00    +0.023 C 
ENDROOT
BRANCH   1   2
ATOM      2  C   LIG    1       24.631 -16.657   3.818  0.00  0.00    -0.041 A 
ATOM      3  C   LIG    1       23.321 -17.063   4.123  0.00  0.00    +0.049 A 
ATOM      4  C   LIG    1       22.966 -18.417   4.043  0.00  0.00    +0.117 A 
ATOM      5  C   LIG    1       23.887 -19.377   3.650  0.00  0.00    +0.045 A 
ATOM      6  C   LIG    1       25.188 -18.988   3.340  0.00  0.00    +0.004 A 
ATOM      7  C   LIG    1       25.555 -17.638   3.425  0.00  0.00    +0.004 A 
BRANCH   4   8
ATOM      8  O   LIG    1       21.689 -18.761   4.361  0.00  0.00    -0.507 OA
ATOM      9  H   LIG    1       21.349 -19.369   3.686  0.00  0.00    +0.292 HD
ENDBRANCH   4   8
ENDBRANCH   1   2
BRANCH   1  11
ATOM     10  C   LIG    1       23.971 -12.950   4.526  0.00  0.00    +0.004 C 
ATOM     11  C   LIG    1       23.877 -14.237   3.714  0.00  0.00    +0.005 C 
ENDBRANCH   1  11
BRANCH   1  12
ATOM     12  C   LIG    1       26.277 -14.833   2.958  0.00  0.00    +0.007 C 
ATOM     13  C   LIG    1       25.897 -13.635   2.060  0.00  0.00    +0.009 C 
BRANCH  12  14
ATOM     14  C   LIG    1       27.606 -14.521   3.715  0.00  0.00    +0.087 C 
BRANCH  14  15
ATOM     15  N   LIG    1       27.709 -13.173   4.325  0.00  0.00    -0.308 NA
ATOM     16  C   LIG    1       29.014 -12.547   4.111  0.00  0.00    +0.104 C 
ATOM     17  C   LIG    1       27.449 -13.255   5.768  0.00  0.00    +0.104 C 
ENDBRANCH  14  15
ENDBRANCH  12  14
ENDBRANCH   1  12
TORSDOF 6
ENDMDL
MODEL 4
REMARK VINA RESULT:      -3.5      4.275      6.198
REMARK  Name = *****
REMARK                            x       y       z     vdW  Elec       q    Type
REMARK                         _______ _______ _______ _____ _____    ______ ____
ROOT
ATOM      1  C   LIG    1       25.282 -15.765   3.288  0.00  0.00    +0.023 C 
ENDROOT
BRANCH   1   2
ATOM      2  C   LIG    1       24.883 -17.219   3.557  0.00  0.00    -0.041 A 
ATOM      3  C   LIG    1       23.587 -17.586   3.955  0.00  0.00    +0.049 A 
ATOM      4  C   LIG    1       23.284 -18.929   4.218  0.00  0.00    +0.117 A 
ATOM      5  C   LIG    1       24.244 -19.921   4.079  0.00  0.00    +0.045 A 
ATOM      6  C   LIG    1       25.532 -19.572   3.682  0.00  0.00    +0.004 A 
ATOM      7  C   LIG    1       25.847 -18.231   3.424  0.00  0.00    +0.004 A 
BRANCH   4   8
ATOM      8  O   LIG    1       22.017 -19.231   4.612  0.00  0.00    -0.507 OA
ATOM      9  H   LIG    1       21.533 -19.603   3.858  0.00  0.00    +0.292 HD
ENDBRANCH   4   8
ENDBRANCH   1   2
BRANCH   1  11
ATOM     10  C   LIG    1       27.349 -14.299   2.802  0.00  0.00    +0.004 C 
ATOM     11  C   LIG    1       26.824 -15.592   3.414  0.00  0.00    +0.005 C 
ENDBRANCH   1  11
BRANCH   1  12
ATOM     12  C   LIG    1       24.513 -14.719   4.178  0.00  0.00    +0.007 C 
ATOM     13  C   LIG    1       25.480 -14.052   5.180  0.00  0.00    +0.009 C 
BRANCH  12  14
ATOM     14  C   LIG    1       23.782 -13.620   3.343  0.00  0.00    +0.087 C 
BRANCH  14  15
ATOM     15  N   LIG    1       24.284 -12.234   3.506  0.00  0.00    -0.308 NA
ATOM     16  C   LIG    1       23.509 -11.455   4.473  0.00  0.00    +0.104 C 
ATOM     17  C   LIG    1       24.269 -11.540   2.212  0.00  0.00    +0.104 C 
ENDBRANCH  14  15
ENDBRANCH  12  14
ENDBRANCH   1  12
TORSDOF 6
ENDMDL
MODEL 5
REMARK VINA RESULT:      -3.4      3.046      5.008
REMARK  Name = *****
REMARK                            x       y       z     vdW  Elec       q    Type
REMARK                         _______ _______ _______ _____ _____    ______ ____
ROOT
ATOM      1  C   LIG    1       24.376 -18.902   3.635  0.00  0.00    +0.023 C 
ENDROOT
BRANCH   1   2
ATOM      2  C   LIG    1       24.871 -17.453   3.665  0.00  0.00    -0.041 A 
ATOM      3  C   LIG    1       24.044 -16.379   4.036  0.00  0.00    +0.049 A 
ATOM      4  C   LIG    1       24.540 -15.068   4.016  0.00  0.00    +0.117 A 
ATOM      5  C   LIG    1       25.851 -14.803   3.648  0.00  0.00    +0.045 A 
ATOM      6  C   LIG    1       26.683 -15.858   3.281  0.00  0.00    +0.004 A 
ATOM      7  C   LIG    1       26.194 -17.172   3.290  0.00  0.00    +0.004 A 
BRANCH   4   8
ATOM      8  O   LIG    1       23.696 -14.062   4.373  0.00  0.00    -0.507 OA
ATOM      9  H   LIG    1       23.597 -13.454   3.625  0.00  0.00    +0.292 HD
ENDBRANCH   4   8
ENDBRANCH   1   2
BRANCH   1  11
ATOM     10  C   LIG    1       22.347 -19.274   5.187  0.00  0.00    +0.004 C 
ATOM     11  C   LIG    1       22.826 -18.949   3.776  0.00  0.00    +0.005 C 
ENDBRANCH   1  11
BRANCH   1  12
ATOM     12  C   LIG    1       25.076 -19.836   4.690  0.00  0.00    +0.007 C 
ATOM     13  C   LIG    1       24.704 -21.313   4.432  0.00  0.00    +0.009 C 
BRANCH  12  14
ATOM     14  C   LIG    1       26.630 -19.683   4.714  0.00  0.00    +0.087 C 
BRANCH  14  15
ATOM     15  N   LIG    1       27.337 -20.377   5.818  0.00  0.00    -0.308 NA
ATOM     16  C   LIG    1       26.567 -20.404   7.062  0.00  0.00    +0.104 C 
ATOM     17  C   LIG    1       28.630 -19.726   6.071  0.00  0.00    +0.104 C 
ENDBRANCH  14  15
ENDBRANCH  12  14
ENDBRANCH   1  12
TORSDOF 6
ENDMDL
MODEL 6
REMARK VINA RESULT:      -3.4      2.318      4.949
REMARK  Name = *****
REMARK                            x       y       z     vdW  Elec       q    Type
REMARK                         _______ _______ _______ _____ _____    ______ ____
ROOT
ATOM      1  C   LIG    1       23.030 -18.642   4.061  0.00  0.00    +0.023 C 
ENDROOT
BRANCH   1   2
ATOM      2  C   LIG    1       23.714 -17.274   3.983  0.00  0.00    -0.041 A 
ATOM      3  C   LIG    1       25.028 -17.112   3.514  0.00  0.00    +0.049 A 
ATOM      4  C   LIG    1       25.617 -15.840   3.493  0.00  0.00    +0.117 A 
ATOM      5  C   LIG    1       24.917 -14.719   3.917  0.00  0.00    +0.045 A 
ATOM      6  C   LIG    1       23.612 -14.865   4.380  0.00  0.00    +0.004 A 
ATOM      7  C   LIG    1       23.018 -16.134   4.414  0.00  0.00    +0.004 A 
BRANCH   4   8
ATOM      8  O   LIG    1       26.896 -15.737   3.040  0.00  0.00    -0.507 OA
ATOM      9  H   LIG    1       27.154 -16.578   2.632  0.00  0.00    +0.292 HD
ENDBRANCH   4   8
ENDBRANCH   1   2
BRANCH   1  11
ATOM     10  C   LIG    1       20.617 -18.612   3.146  0.00  0.00    +0.004 C 
ATOM     11  C   LIG    1       21.514 -18.475   4.372  0.00  0.00    +0.005 C 
ENDBRANCH   1  11
BRANCH   1  12
ATOM     12  C   LIG    1       23.715 -19.641   5.067  0.00  0.00    +0.007 C 
ATOM     13  C   LIG    1       22.735 -20.770   5.454  0.00  0.00    +0.009 C 
BRANCH  12  14
ATOM     14  C   LIG    1       25.039 -20.260   4.517  0.00  0.00    +0.087 C 
BRANCH  14  15
ATOM     15  N   LIG    1       26.035 -20.679   5.533  0.00  0.00    -0.308 NA
ATOM     16  C   LIG    1       25.533 -20.568   6.903  0.00  0.00    +0.104 C 
ATOM     17  C   LIG    1       27.253 -19.869   5.403  0.00  0.00    +0.104 C 
ENDBRANCH  14  15
ENDBRANCH  12  14
ENDBRANCH   1  12
TORSDOF 6
ENDMDL
MODEL 7
REMARK VINA RESULT:      -3.3      2.552      4.841
REMARK  Name = *****
REMARK                            x       y       z     vdW  Elec       q    Type
REMARK                         _______ _______ _______ _____ _____    ______ ____
ROOT
ATOM      1  C   LIG    1       24.269 -18.947   3.631  0.00  0.00    +0.023 C 
ENDROOT
BRANCH   1   2
ATOM      2  C   LIG    1       24.627 -17.459   3.684  0.00  0.00    -0.041 A 
ATOM      3  C   LIG    1       25.895 -16.974   3.322  0.00  0.00    +0.049 A 
ATOM      4  C   LIG    1       26.179 -15.605   3.419  0.00  0.00    +0.117 A 
ATOM      5  C   LIG    1       25.220 -14.702   3.856  0.00  0.00    +0.045 A 
ATOM      6  C   LIG    1       23.958 -15.169   4.214  0.00  0.00    +0.004 A 
ATOM      7  C   LIG    1       23.666 -16.538   4.129  0.00  0.00    +0.004 A 
BRANCH   4   8
ATOM      8  O   LIG    1       27.425 -15.186   3.068  0.00  0.00    -0.507 OA
ATOM      9  H   LIG    1       27.351 -14.355   2.574  0.00  0.00    +0.292 HD
ENDBRANCH   4   8
ENDBRANCH   1   2
BRANCH   1  11
ATOM     10  C   LIG    1       22.254 -19.473   5.157  0.00  0.00    +0.004 C 
ATOM     11  C   LIG    1       22.728 -19.140   3.746  0.00  0.00    +0.005 C 
ENDBRANCH   1  11
BRANCH   1  12
ATOM     12  C   LIG    1       25.036 -19.826   4.688  0.00  0.00    +0.007 C 
ATOM     13  C   LIG    1       24.744 -21.324   4.456  0.00  0.00    +0.009 C 
BRANCH  12  14
ATOM     14  C   LIG    1       26.580 -19.585   4.686  0.00  0.00    +0.087 C 
BRANCH  14  15
ATOM     15  N   LIG    1       27.347 -20.262   5.759  0.00  0.00    -0.308 NA
ATOM     16  C   LIG    1       26.623 -20.321   7.029  0.00  0.00    +0.104 C 
ATOM     17  C   LIG    1       28.627 -19.572   5.970  0.00  0.00    +0.104 C 
ENDBRANCH  14  15
ENDBRANCH  12  14
ENDBRANCH   1  12
TORSDOF 6
ENDMDL
MODEL 8
REMARK VINA RESULT:      -3.1      3.917      5.873
REMARK  Name = *****
REMARK                            x       y       z     vdW  Elec       q    Type
REMARK                         _______ _______ _______ _____ _____    ______ ____
ROOT
ATOM      1  C   LIG    1       25.428 -15.841   3.331  0.00  0.00    +0.023 C 
ENDROOT
BRANCH   1   2
ATOM      2  C   LIG    1       25.120 -17.302   3.674  0.00  0.00    -0.041 A 
ATOM      3  C   LIG    1       26.128 -18.258   3.880  0.00  0.00    +0.049 A 
ATOM      4  C   LIG    1       25.790 -19.589   4.161  0.00  0.00    +0.117 A 
ATOM      5  C   LIG    1       24.464 -19.987   4.257  0.00  0.00    +0.045 A 
ATOM      6  C   LIG    1       23.455 -19.048   4.059  0.00  0.00    +0.004 A 
ATOM      7  C   LIG    1       23.783 -17.716   3.769  0.00  0.00    +0.004 A 
BRANCH   4   8
ATOM      8  O   LIG    1       26.802 -20.480   4.340  0.00  0.00    -0.507 OA
ATOM      9  H   LIG    1       27.495 -20.065   4.876  0.00  0.00    +0.292 HD
ENDBRANCH   4   8
ENDBRANCH   1   2
BRANCH   1  11
ATOM     10  C   LIG    1       27.473 -14.351   2.818  0.00  0.00    +0.004 C 
ATOM     11  C   LIG    1       26.920 -15.515   3.633  0.00  0.00    +0.005 C 
ENDBRANCH   1  11
BRANCH   1  12
ATOM     12  C   LIG    1       24.465 -14.807   4.022  0.00  0.00    +0.007 C 
ATOM     13  C   LIG    1       25.194 -14.075   5.169  0.00  0.00    +0.009 C 
BRANCH  12  14
ATOM     14  C   LIG    1       23.868 -13.761   3.028  0.00  0.00    +0.087 C 
BRANCH  14  15
ATOM     15  N   LIG    1       24.396 -12.379   3.139  0.00  0.00    -0.308 NA
ATOM     16  C   LIG    1       23.437 -11.447   3.732  0.00  0.00    +0.104 C 
ATOM     17  C   LIG    1       24.786 -11.885   1.812  0.00  0.00    +0.104 C 
ENDBRANCH  14  15
ENDBRANCH  12  14
ENDBRANCH   1  12
TORSDOF 6
ENDMDL
MODEL 9
REMARK VINA RESULT:      -3.0      4.441      6.215
REMARK  Name = *****
REMARK                            x       y       z     vdW  Elec       q    Type
REMARK                         _______ _______ _______ _____ _____    ______ ____
ROOT
ATOM      1  C   LIG    1       24.837 -14.694   3.367  0.00  0.00    +0.023 C 
ENDROOT
BRANCH   1   2
ATOM      2  C   LIG    1       26.084 -14.023   3.951  0.00  0.00    -0.041 A 
ATOM      3  C   LIG    1       27.245 -13.799   3.194  0.00  0.00    +0.049 A 
ATOM      4  C   LIG    1       28.370 -13.209   3.787  0.00  0.00    +0.117 A 
ATOM      5  C   LIG    1       28.358 -12.821   5.119  0.00  0.00    +0.045 A 
ATOM      6  C   LIG    1       27.211 -13.033   5.880  0.00  0.00    +0.004 A 
ATOM      7  C   LIG    1       26.084 -13.631   5.299  0.00  0.00    +0.004 A 
BRANCH   4   8
ATOM      8  O   LIG    1       29.475 -13.024   3.015  0.00  0.00    -0.507 OA
ATOM      9  H   LIG    1       29.584 -13.792   2.433  0.00  0.00    +0.292 HD
ENDBRANCH   4   8
ENDBRANCH   1   2
BRANCH   1  11
ATOM     10  C   LIG    1       24.098 -12.346   2.589  0.00  0.00    +0.004 C 
ATOM     11  C   LIG    1       23.678 -13.663   3.233  0.00  0.00    +0.005 C 
ENDBRANCH   1  11
BRANCH   1  12
ATOM     12  C   LIG    1       24.374 -15.976   4.155  0.00  0.00    +0.007 C 
ATOM     13  C   LIG    1       22.866 -15.896   4.474  0.00  0.00    +0.009 C 
BRANCH  12  14
ATOM     14  C   LIG    1       24.681 -17.307   3.398  0.00  0.00    +0.087 C 
BRANCH  14  15
ATOM     15  N   LIG    1       24.417 -18.559   4.148  0.00  0.00    -0.308 NA
ATOM     16  C   LIG    1       25.385 -19.617   3.854  0.00  0.00    +0.104 C 
ATOM     17  C   LIG    1       23.066 -19.049   3.844  0.00  0.00    +0.104 C 
ENDBRANCH  14  15
ENDBRANCH  12  14
ENDBRANCH   1  12
TORSDOF 6
ENDMDL
