MODEL 1
REMARK VINA RESULT:      -0.5      0.000      0.000
REMARK  Name = *****
REMARK                            x       y       z     vdW  Elec       q    Type
REMARK                         _______ _______ _______ _____ _____    ______ ____
ROOT
ATOM      1  C   LIG    1       21.284 -17.714   3.682  0.00  0.00    +0.020 C 
ATOM      2  C   LIG    1       22.792 -17.851   4.086  0.00  0.00    +0.011 C 
ATOM      3  C   LIG    1       23.439 -16.456   3.755  0.00  0.00    +0.006 C 
ATOM      4  C   LIG    1       22.784 -15.322   4.565  0.00  0.00    +0.009 C 
ATOM      5  C   LIG    1       23.719 -14.468   5.388  0.00  0.00    +0.048 C 
ATOM      6  C   LIG    1       24.914 -13.977   4.573  0.00  0.00    +0.114 C 
ATOM      7  C   LIG    1       25.748 -15.167   4.047  0.00  0.00    +0.037 C 
ATOM      8  C   LIG    1       26.676 -14.693   2.905  0.00  0.00    +0.019 C 
ATOM      9  C   LIG    1       26.091 -13.686   1.943  0.00  0.00    +0.121 C 
ATOM     10  C   LIG    1       25.019 -12.758   2.442  0.00  0.00    +0.308 C 
ATOM     11  O   LIG    1       24.676 -11.759   1.812  0.00  0.00    -0.251 OA
ATOM     12  O   LIG    1       24.342 -13.170   3.537  0.00  0.00    -0.458 OA
ATOM     13  C   LIG    1       25.730 -13.048   5.503  0.00  0.00    +0.056 C 
ATOM     14  C   LIG    1       24.972 -16.441   3.590  0.00  0.00    +0.000 C 
ATOM     15  C   LIG    1       25.619 -17.768   4.052  0.00  0.00    +0.008 C 
ATOM     16  C   LIG    1       24.989 -18.957   3.300  0.00  0.00    +0.032 C 
ATOM     17  C   LIG    1       23.460 -19.006   3.319  0.00  0.00    -0.056 C 
ATOM     18  C   LIG    1       22.909 -20.236   3.475  0.00  0.00    +0.051 C 
ATOM     19  C   LIG    1       22.465 -20.566   4.892  0.00  0.00    +0.179 C 
ATOM     20  O   LIG    1       21.835 -21.571   5.160  0.00  0.00    -0.288 OA
ATOM     21  C   LIG    1       22.809 -19.542   5.930  0.00  0.00    +0.047 C 
ATOM     22  C   LIG    1       22.919 -18.251   5.560  0.00  0.00    -0.012 C 
ENDROOT
TORSDOF 0
ENDMDL
MODEL 2
REMARK VINA RESULT:       0.1      1.361      6.276
REMARK  Name = *****
REMARK                            x       y       z     vdW  Elec       q    Type
REMARK                         _______ _______ _______ _____ _____    ______ ____
ROOT
ATOM      1  C   LIG    1       23.398 -14.179   5.112  0.00  0.00    +0.020 C 
ATOM      2  C   LIG    1       24.257 -14.992   4.085  0.00  0.00    +0.011 C 
ATOM      3  C   LIG    1       24.102 -16.498   4.512  0.00  0.00    +0.006 C 
ATOM      4  C   LIG    1       22.634 -16.958   4.442  0.00  0.00    +0.009 C 
ATOM      5  C   LIG    1       22.361 -18.182   3.600  0.00  0.00    +0.048 C 
ATOM      6  C   LIG    1       23.309 -19.331   3.935  0.00  0.00    +0.114 C 
ATOM      7  C   LIG    1       24.778 -18.930   3.671  0.00  0.00    +0.037 C 
ATOM      8  C   LIG    1       25.729 -19.911   4.394  0.00  0.00    +0.019 C 
ATOM      9  C   LIG    1       25.298 -20.369   5.768  0.00  0.00    +0.121 C 
ATOM     10  C   LIG    1       23.828 -20.418   6.078  0.00  0.00    +0.308 C 
ATOM     11  O   LIG    1       23.388 -21.010   7.062  0.00  0.00    -0.251 OA
ATOM     12  O   LIG    1       23.034 -19.642   5.307  0.00  0.00    -0.458 OA
ATOM     13  C   LIG    1       22.861 -20.537   3.076  0.00  0.00    +0.056 C 
ATOM     14  C   LIG    1       25.192 -17.464   4.007  0.00  0.00    +0.000 C 
ATOM     15  C   LIG    1       26.098 -16.808   2.937  0.00  0.00    +0.008 C 
ATOM     16  C   LIG    1       26.716 -15.508   3.488  0.00  0.00    +0.032 C 
ATOM     17  C   LIG    1       25.722 -14.522   4.107  0.00  0.00    -0.056 C 
ATOM     18  C   LIG    1       25.944 -13.211   3.837  0.00  0.00    +0.051 C 
ATOM     19  C   LIG    1       25.092 -12.634   2.717  0.00  0.00    +0.179 C 
ATOM     20  O   LIG    1       25.079 -11.447   2.452  0.00  0.00    -0.288 OA
ATOM     21  C   LIG    1       24.224 -13.619   1.993  0.00  0.00    +0.047 C 
ATOM     22  C   LIG    1       23.790 -14.711   2.652  0.00  0.00    -0.012 C 
ENDROOT
TORSDOF 0
ENDMDL
