MODEL 1
REMARK VINA RESULT:     -10.5      0.000      0.000
REMARK  Name = *****
REMARK                            x       y       z     vdW  Elec       q    Type
REMARK                         _______ _______ _______ _____ _____    ______ ____
ROOT
ATOM      1  C   LIG    1       24.883 -22.640   6.374  0.00  0.00    +0.022 C 
ATOM      2  C   LIG    1       24.860 -23.097   4.897  0.00  0.00    +0.061 C 
ATOM      3  C   LIG    1       24.911 -24.616   4.759  0.00  0.00    +0.134 C 
ATOM      4  N   LIG    1       24.573 -25.259   6.106  0.00  0.00    +0.245 N 
ATOM      5  C   LIG    1       25.706 -24.965   7.086  0.00  0.00    +0.134 C 
ATOM      6  C   LIG    1       23.282 -24.607   6.642  0.00  0.00    +0.134 C 
ATOM      7  C   LIG    1       26.020 -23.463   7.063  0.00  0.00    +0.061 C 
ATOM      8  C   LIG    1       23.579 -23.165   7.054  0.00  0.00    +0.061 C 
ENDROOT
BRANCH   1   9
ATOM      9  C   LIG    1       25.044 -21.058   6.575  0.00  0.00    +0.122 C 
BRANCH   9  10
ATOM     10  C   LIG    1       26.513 -20.590   6.753  0.00  0.00    -0.011 A 
ATOM     11  C   LIG    1       27.079 -20.413   8.040  0.00  0.00    +0.007 A 
ATOM     12  C   LIG    1       28.386 -19.928   8.211  0.00  0.00    +0.000 A 
ATOM     13  C   LIG    1       29.179 -19.623   7.124  0.00  0.00    +0.000 A 
ATOM     14  C   LIG    1       28.680 -19.822   5.846  0.00  0.00    +0.000 A 
ATOM     15  C   LIG    1       27.373 -20.301   5.676  0.00  0.00    +0.007 A 
ENDBRANCH   9  10
BRANCH   9  16
ATOM     16  C   LIG    1       24.210 -20.232   5.527  0.00  0.00    -0.011 A 
ATOM     17  C   LIG    1       22.859 -19.881   5.741  0.00  0.00    +0.007 A 
ATOM     18  C   LIG    1       22.151 -19.044   4.867  0.00  0.00    +0.000 A 
ATOM     19  C   LIG    1       22.770 -18.520   3.746  0.00  0.00    +0.000 A 
ATOM     20  C   LIG    1       24.088 -18.870   3.477  0.00  0.00    +0.000 A 
ATOM     21  C   LIG    1       24.789 -19.719   4.345  0.00  0.00    +0.007 A 
ENDBRANCH   9  16
BRANCH   9  22
ATOM     22  O   LIG    1       24.413 -20.836   7.859  0.00  0.00    -0.379 OA
ATOM     23  H   LIG    1       24.790 -21.498   8.471  0.00  0.00    +0.211 HD
ENDBRANCH   9  22
ENDBRANCH   1   9
BRANCH   4  24
ATOM     24  C   LIG    1       24.328 -26.786   5.936  0.00  0.00    +0.162 C 
BRANCH  24  25
ATOM     25  C   LIG    1       25.537 -27.592   5.403  0.00  0.00    +0.211 C 
BRANCH  25  26
ATOM     26  O   LIG    1       25.478 -28.954   5.826  0.00  0.00    -0.370 OA
BRANCH  26  27
ATOM     27  C   LIG    1       24.701 -29.121   7.016  0.00  0.00    +0.195 C 
BRANCH  27  28
ATOM     28  C   LIG    1       25.619 -29.440   8.164  0.00  0.00    -0.022 A 
ATOM     29  C   LIG    1       25.951 -30.768   8.466  0.00  0.00    +0.006 A 
ATOM     30  C   LIG    1       26.784 -31.074   9.542  0.00  0.00    +0.000 A 
ATOM     31  C   LIG    1       27.308 -30.050  10.333  0.00  0.00    +0.000 A 
ATOM     32  C   LIG    1       26.997 -28.725  10.040  0.00  0.00    +0.000 A 
ATOM     33  C   LIG    1       26.160 -28.417   8.966  0.00  0.00    +0.006 A 
ENDBRANCH  27  28
ENDBRANCH  26  27
ENDBRANCH  25  26
ENDBRANCH  24  25
ENDBRANCH   4  24
TORSDOF 9
ENDMDL
MODEL 2
REMARK VINA RESULT:     -10.4      0.085      1.374
REMARK  Name = *****
REMARK                            x       y       z     vdW  Elec       q    Type
REMARK                         _______ _______ _______ _____ _____    ______ ____
ROOT
ATOM      1  C   LIG    1       24.868 -22.625   6.432  0.00  0.00    +0.022 C 
ATOM      2  C   LIG    1       25.990 -23.475   7.069  0.00  0.00    +0.061 C 
ATOM      3  C   LIG    1       25.665 -24.967   7.056  0.00  0.00    +0.134 C 
ATOM      4  N   LIG    1       24.521 -25.228   6.073  0.00  0.00    +0.245 N 
ATOM      5  C   LIG    1       23.245 -24.603   6.633  0.00  0.00    +0.134 C 
ATOM      6  C   LIG    1       24.861 -24.533   4.740  0.00  0.00    +0.134 C 
ATOM      7  C   LIG    1       23.527 -23.151   7.041  0.00  0.00    +0.061 C 
ATOM      8  C   LIG    1       24.771 -23.017   4.924  0.00  0.00    +0.061 C 
ENDROOT
BRANCH   1   9
ATOM      9  C   LIG    1       25.057 -21.042   6.606  0.00  0.00    +0.122 C 
BRANCH   9  10
ATOM     10  C   LIG    1       26.535 -20.595   6.760  0.00  0.00    -0.011 A 
ATOM     11  C   LIG    1       27.128 -20.439   8.037  0.00  0.00    +0.007 A 
ATOM     12  C   LIG    1       28.445 -19.973   8.187  0.00  0.00    +0.000 A 
ATOM     13  C   LIG    1       29.221 -19.668   7.087  0.00  0.00    +0.000 A 
ATOM     14  C   LIG    1       28.694 -19.848   5.817  0.00  0.00    +0.000 A 
ATOM     15  C   LIG    1       27.379 -20.307   5.669  0.00  0.00    +0.007 A 
ENDBRANCH   9  10
BRANCH   9  16
ATOM     16  C   LIG    1       24.225 -20.219   5.555  0.00  0.00    -0.011 A 
ATOM     17  C   LIG    1       22.870 -19.877   5.762  0.00  0.00    +0.007 A 
ATOM     18  C   LIG    1       22.162 -19.043   4.885  0.00  0.00    +0.000 A 
ATOM     19  C   LIG    1       22.784 -18.513   3.768  0.00  0.00    +0.000 A 
ATOM     20  C   LIG    1       24.106 -18.854   3.506  0.00  0.00    +0.000 A 
ATOM     21  C   LIG    1       24.807 -19.700   4.377  0.00  0.00    +0.007 A 
ENDBRANCH   9  16
BRANCH   9  22
ATOM     22  O   LIG    1       24.445 -20.790   7.893  0.00  0.00    -0.379 OA
ATOM     23  H   LIG    1       24.009 -21.622   8.161  0.00  0.00    +0.211 HD
ENDBRANCH   9  22
ENDBRANCH   1   9
BRANCH   4  24
ATOM     24  C   LIG    1       24.361 -26.753   5.816  0.00  0.00    +0.162 C 
BRANCH  24  25
ATOM     25  C   LIG    1       25.649 -27.485   5.368  0.00  0.00    +0.211 C 
BRANCH  25  26
ATOM     26  O   LIG    1       25.626 -28.859   5.756  0.00  0.00    -0.370 OA
BRANCH  26  27
ATOM     27  C   LIG    1       24.780 -29.091   6.887  0.00  0.00    +0.195 C 
BRANCH  27  28
ATOM     28  C   LIG    1       25.630 -29.456   8.073  0.00  0.00    -0.022 A 
ATOM     29  C   LIG    1       26.145 -28.461   8.916  0.00  0.00    +0.006 A 
ATOM     30  C   LIG    1       26.953 -28.790  10.005  0.00  0.00    +0.000 A 
ATOM     31  C   LIG    1       27.253 -30.127  10.274  0.00  0.00    +0.000 A 
ATOM     32  C   LIG    1       26.740 -31.127   9.453  0.00  0.00    +0.000 A 
ATOM     33  C   LIG    1       25.936 -30.800   8.360  0.00  0.00    +0.006 A 
ENDBRANCH  27  28
ENDBRANCH  26  27
ENDBRANCH  25  26
ENDBRANCH  24  25
ENDBRANCH   4  24
TORSDOF 9
ENDMDL
MODEL 3
REMARK VINA RESULT:     -10.2      1.168      1.681
REMARK  Name = *****
REMARK                            x       y       z     vdW  Elec       q    Type
REMARK                         _______ _______ _______ _____ _____    ______ ____
ROOT
ATOM      1  C   LIG    1       24.890 -22.662   6.375  0.00  0.00    +0.022 C 
ATOM      2  C   LIG    1       24.876 -23.106   4.895  0.00  0.00    +0.061 C 
ATOM      3  C   LIG    1       24.940 -24.623   4.744  0.00  0.00    +0.134 C 
ATOM      4  N   LIG    1       24.603 -25.281   6.085  0.00  0.00    +0.245 N 
ATOM      5  C   LIG    1       25.731 -24.985   7.070  0.00  0.00    +0.134 C 
ATOM      6  C   LIG    1       23.305 -24.645   6.622  0.00  0.00    +0.134 C 
ATOM      7  C   LIG    1       26.032 -23.481   7.062  0.00  0.00    +0.061 C 
ATOM      8  C   LIG    1       23.589 -23.204   7.047  0.00  0.00    +0.061 C 
ENDROOT
BRANCH   1   9
ATOM      9  C   LIG    1       25.036 -21.080   6.591  0.00  0.00    +0.122 C 
BRANCH   9  10
ATOM     10  C   LIG    1       26.499 -20.601   6.786  0.00  0.00    -0.011 A 
ATOM     11  C   LIG    1       27.045 -20.408   8.079  0.00  0.00    +0.007 A 
ATOM     12  C   LIG    1       28.347 -19.914   8.264  0.00  0.00    +0.000 A 
ATOM     13  C   LIG    1       29.154 -19.616   7.185  0.00  0.00    +0.000 A 
ATOM     14  C   LIG    1       28.675 -19.831   5.902  0.00  0.00    +0.000 A 
ATOM     15  C   LIG    1       27.374 -20.319   5.718  0.00  0.00    +0.007 A 
ENDBRANCH   9  10
BRANCH   9  16
ATOM     16  C   LIG    1       24.205 -20.252   5.543  0.00  0.00    -0.011 A 
ATOM     17  C   LIG    1       22.854 -19.901   5.755  0.00  0.00    +0.007 A 
ATOM     18  C   LIG    1       22.147 -19.062   4.881  0.00  0.00    +0.000 A 
ATOM     19  C   LIG    1       22.768 -18.537   3.761  0.00  0.00    +0.000 A 
ATOM     20  C   LIG    1       24.087 -18.887   3.494  0.00  0.00    +0.000 A 
ATOM     21  C   LIG    1       24.786 -19.738   4.362  0.00  0.00    +0.007 A 
ENDBRANCH   9  16
BRANCH   9  22
ATOM     22  O   LIG    1       24.392 -20.874   7.871  0.00  0.00    -0.379 OA
ATOM     23  H   LIG    1       24.181 -21.762   8.221  0.00  0.00    +0.211 HD
ENDBRANCH   9  22
ENDBRANCH   1   9
BRANCH   4  24
ATOM     24  C   LIG    1       24.373 -26.808   5.900  0.00  0.00    +0.162 C 
BRANCH  24  25
ATOM     25  C   LIG    1       25.526 -27.714   6.393  0.00  0.00    +0.211 C 
BRANCH  25  26
ATOM     26  O   LIG    1       25.125 -28.499   7.516  0.00  0.00    -0.370 OA
BRANCH  26  27
ATOM     27  C   LIG    1       24.409 -29.677   7.127  0.00  0.00    +0.195 C 
BRANCH  27  28
ATOM     28  C   LIG    1       25.392 -30.782   6.849  0.00  0.00    -0.022 A 
ATOM     29  C   LIG    1       25.596 -31.242   5.540  0.00  0.00    +0.006 A 
ATOM     30  C   LIG    1       26.489 -32.280   5.276  0.00  0.00    +0.000 A 
ATOM     31  C   LIG    1       27.201 -32.873   6.321  0.00  0.00    +0.000 A 
ATOM     32  C   LIG    1       27.017 -32.420   7.624  0.00  0.00    +0.000 A 
ATOM     33  C   LIG    1       26.121 -31.384   7.892  0.00  0.00    +0.006 A 
ENDBRANCH  27  28
ENDBRANCH  26  27
ENDBRANCH  25  26
ENDBRANCH  24  25
ENDBRANCH   4  24
TORSDOF 9
ENDMDL
MODEL 4
REMARK VINA RESULT:      -9.9      1.414      2.018
REMARK  Name = *****
REMARK                            x       y       z     vdW  Elec       q    Type
REMARK                         _______ _______ _______ _____ _____    ______ ____
ROOT
ATOM      1  C   LIG    1       24.842 -22.727   6.382  0.00  0.00    +0.022 C 
ATOM      2  C   LIG    1       23.529 -23.330   6.932  0.00  0.00    +0.061 C 
ATOM      3  C   LIG    1       23.350 -24.791   6.530  0.00  0.00    +0.134 C 
ATOM      4  N   LIG    1       24.689 -25.351   6.043  0.00  0.00    +0.245 N 
ATOM      5  C   LIG    1       25.049 -24.674   4.723  0.00  0.00    +0.134 C 
ATOM      6  C   LIG    1       25.769 -24.997   7.085  0.00  0.00    +0.134 C 
ATOM      7  C   LIG    1       24.918 -23.153   4.879  0.00  0.00    +0.061 C 
ATOM      8  C   LIG    1       26.031 -23.491   7.046  0.00  0.00    +0.061 C 
ENDROOT
BRANCH   1   9
ATOM      9  C   LIG    1       24.983 -21.144   6.592  0.00  0.00    +0.122 C 
BRANCH   9  10
ATOM     10  C   LIG    1       26.446 -20.656   6.762  0.00  0.00    -0.011 A 
ATOM     11  C   LIG    1       27.234 -20.287   5.643  0.00  0.00    +0.007 A 
ATOM     12  C   LIG    1       28.579 -19.906   5.782  0.00  0.00    +0.000 A 
ATOM     13  C   LIG    1       29.180 -19.858   7.022  0.00  0.00    +0.000 A 
ATOM     14  C   LIG    1       28.434 -20.170   8.148  0.00  0.00    +0.000 A 
ATOM     15  C   LIG    1       27.093 -20.555   8.009  0.00  0.00    +0.007 A 
ENDBRANCH   9  10
BRANCH   9  16
ATOM     16  C   LIG    1       24.130 -20.323   5.556  0.00  0.00    -0.011 A 
ATOM     17  C   LIG    1       22.785 -19.966   5.794  0.00  0.00    +0.007 A 
ATOM     18  C   LIG    1       22.061 -19.134   4.929  0.00  0.00    +0.000 A 
ATOM     19  C   LIG    1       22.658 -18.620   3.791  0.00  0.00    +0.000 A 
ATOM     20  C   LIG    1       23.969 -18.976   3.497  0.00  0.00    +0.000 A 
ATOM     21  C   LIG    1       24.686 -19.821   4.357  0.00  0.00    +0.007 A 
ENDBRANCH   9  16
BRANCH   9  22
ATOM     22  O   LIG    1       24.358 -20.938   7.882  0.00  0.00    -0.379 OA
ATOM     23  H   LIG    1       24.810 -20.173   8.289  0.00  0.00    +0.211 HD
ENDBRANCH   9  22
ENDBRANCH   1   9
BRANCH   4  24
ATOM     24  C   LIG    1       24.615 -26.899   5.906  0.00  0.00    +0.162 C 
BRANCH  24  25
ATOM     25  C   LIG    1       25.428 -27.693   6.956  0.00  0.00    +0.211 C 
BRANCH  25  26
ATOM     26  O   LIG    1       24.818 -28.953   7.240  0.00  0.00    -0.370 OA
BRANCH  26  27
ATOM     27  C   LIG    1       25.548 -29.703   8.216  0.00  0.00    +0.195 C 
BRANCH  27  28
ATOM     28  C   LIG    1       24.737 -29.788   9.480  0.00  0.00    -0.022 A 
ATOM     29  C   LIG    1       23.407 -30.230   9.447  0.00  0.00    +0.006 A 
ATOM     30  C   LIG    1       22.642 -30.292  10.611  0.00  0.00    +0.000 A 
ATOM     31  C   LIG    1       23.200 -29.918  11.835  0.00  0.00    +0.000 A 
ATOM     32  C   LIG    1       24.523 -29.487  11.886  0.00  0.00    +0.000 A 
ATOM     33  C   LIG    1       25.289 -29.421  10.722  0.00  0.00    +0.006 A 
ENDBRANCH  27  28
ENDBRANCH  26  27
ENDBRANCH  25  26
ENDBRANCH  24  25
ENDBRANCH   4  24
TORSDOF 9
ENDMDL
MODEL 5
REMARK VINA RESULT:      -9.8      1.159      2.024
REMARK  Name = *****
REMARK                            x       y       z     vdW  Elec       q    Type
REMARK                         _______ _______ _______ _____ _____    ______ ____
ROOT
ATOM      1  C   LIG    1       24.832 -22.734   6.375  0.00  0.00    +0.022 C 
ATOM      2  C   LIG    1       23.545 -23.350   6.969  0.00  0.00    +0.061 C 
ATOM      3  C   LIG    1       23.344 -24.800   6.537  0.00  0.00    +0.134 C 
ATOM      4  N   LIG    1       24.656 -25.348   5.972  0.00  0.00    +0.245 N 
ATOM      5  C   LIG    1       24.956 -24.636   4.656  0.00  0.00    +0.134 C 
ATOM      6  C   LIG    1       25.785 -25.023   6.972  0.00  0.00    +0.134 C 
ATOM      7  C   LIG    1       24.836 -23.120   4.859  0.00  0.00    +0.061 C 
ATOM      8  C   LIG    1       26.049 -23.517   6.961  0.00  0.00    +0.061 C 
ENDROOT
BRANCH   1   9
ATOM      9  C   LIG    1       24.986 -21.157   6.621  0.00  0.00    +0.122 C 
BRANCH   9  10
ATOM     10  C   LIG    1       26.453 -20.689   6.820  0.00  0.00    -0.011 A 
ATOM     11  C   LIG    1       26.997 -20.503   8.115  0.00  0.00    +0.007 A 
ATOM     12  C   LIG    1       28.302 -20.018   8.304  0.00  0.00    +0.000 A 
ATOM     13  C   LIG    1       29.113 -19.723   7.228  0.00  0.00    +0.000 A 
ATOM     14  C   LIG    1       28.636 -19.931   5.944  0.00  0.00    +0.000 A 
ATOM     15  C   LIG    1       27.332 -20.409   5.755  0.00  0.00    +0.007 A 
ENDBRANCH   9  10
BRANCH   9  16
ATOM     16  C   LIG    1       24.156 -20.306   5.591  0.00  0.00    -0.011 A 
ATOM     17  C   LIG    1       22.810 -19.943   5.819  0.00  0.00    +0.007 A 
ATOM     18  C   LIG    1       22.107 -19.085   4.962  0.00  0.00    +0.000 A 
ATOM     19  C   LIG    1       22.724 -18.549   3.845  0.00  0.00    +0.000 A 
ATOM     20  C   LIG    1       24.037 -18.910   3.563  0.00  0.00    +0.000 A 
ATOM     21  C   LIG    1       24.734 -19.780   4.413  0.00  0.00    +0.007 A 
ENDBRANCH   9  16
BRANCH   9  22
ATOM     22  O   LIG    1       24.347 -20.973   7.906  0.00  0.00    -0.379 OA
ATOM     23  H   LIG    1       24.802 -20.222   8.336  0.00  0.00    +0.211 HD
ENDBRANCH   9  22
ENDBRANCH   1   9
BRANCH   4  24
ATOM     24  C   LIG    1       24.572 -26.891   5.797  0.00  0.00    +0.162 C 
BRANCH  24  25
ATOM     25  C   LIG    1       25.178 -27.720   6.955  0.00  0.00    +0.211 C 
BRANCH  25  26
ATOM     26  O   LIG    1       24.401 -28.890   7.217  0.00  0.00    -0.370 OA
BRANCH  26  27
ATOM     27  C   LIG    1       25.015 -29.745   8.187  0.00  0.00    +0.195 C 
BRANCH  27  28
ATOM     28  C   LIG    1       25.728 -30.864   7.477  0.00  0.00    -0.022 A 
ATOM     29  C   LIG    1       26.598 -31.712   8.176  0.00  0.00    +0.006 A 
ATOM     30  C   LIG    1       27.280 -32.738   7.522  0.00  0.00    +0.000 A 
ATOM     31  C   LIG    1       27.095 -32.938   6.152  0.00  0.00    +0.000 A 
ATOM     32  C   LIG    1       26.225 -32.111   5.447  0.00  0.00    +0.000 A 
ATOM     33  C   LIG    1       25.546 -31.081   6.098  0.00  0.00    +0.006 A 
ENDBRANCH  27  28
ENDBRANCH  26  27
ENDBRANCH  25  26
ENDBRANCH  24  25
ENDBRANCH   4  24
TORSDOF 9
ENDMDL
MODEL 6
REMARK VINA RESULT:      -8.2      2.349      9.952
REMARK  Name = *****
REMARK                            x       y       z     vdW  Elec       q    Type
REMARK                         _______ _______ _______ _____ _____    ______ ____
ROOT
ATOM      1  C   LIG    1       25.022 -29.091   6.420  0.00  0.00    +0.022 C 
ATOM      2  C   LIG    1       25.663 -28.482   7.687  0.00  0.00    +0.061 C 
ATOM      3  C   LIG    1       26.257 -27.100   7.429  0.00  0.00    +0.134 C 
ATOM      4  N   LIG    1       25.707 -26.549   6.111  0.00  0.00    +0.245 N 
ATOM      5  C   LIG    1       26.267 -27.384   4.962  0.00  0.00    +0.134 C 
ATOM      6  C   LIG    1       24.173 -26.705   6.125  0.00  0.00    +0.134 C 
ATOM      7  C   LIG    1       26.055 -28.874   5.266  0.00  0.00    +0.061 C 
ATOM      8  C   LIG    1       23.815 -28.187   6.015  0.00  0.00    +0.061 C 
ENDROOT
BRANCH   1   9
ATOM      9  C   LIG    1       24.571 -30.622   6.577  0.00  0.00    +0.122 C 
BRANCH   9  10
ATOM     10  C   LIG    1       25.634 -31.646   6.097  0.00  0.00    -0.011 A 
ATOM     11  C   LIG    1       26.679 -32.076   6.950  0.00  0.00    +0.007 A 
ATOM     12  C   LIG    1       27.682 -32.954   6.504  0.00  0.00    +0.000 A 
ATOM     13  C   LIG    1       27.673 -33.447   5.216  0.00  0.00    +0.000 A 
ATOM     14  C   LIG    1       26.644 -33.085   4.361  0.00  0.00    +0.000 A 
ATOM     15  C   LIG    1       25.647 -32.206   4.804  0.00  0.00    +0.007 A 
ENDBRANCH   9  10
BRANCH   9  16
ATOM     16  C   LIG    1       23.956 -30.924   7.993  0.00  0.00    -0.011 A 
ATOM     17  C   LIG    1       23.983 -29.984   9.047  0.00  0.00    +0.007 A 
ATOM     18  C   LIG    1       23.330 -30.204  10.268  0.00  0.00    +0.000 A 
ATOM     19  C   LIG    1       22.619 -31.371  10.481  0.00  0.00    +0.000 A 
ATOM     20  C   LIG    1       22.597 -32.340   9.484  0.00  0.00    +0.000 A 
ATOM     21  C   LIG    1       23.262 -32.124   8.269  0.00  0.00    +0.007 A 
ENDBRANCH   9  16
BRANCH   9  22
ATOM     22  O   LIG    1       23.481 -30.729   5.631  0.00  0.00    -0.379 OA
ATOM     23  H   LIG    1       23.876 -31.017   4.784  0.00  0.00    +0.211 HD
ENDBRANCH   9  22
ENDBRANCH   1   9
BRANCH   4  24
ATOM     24  C   LIG    1       26.055 -25.041   5.962  0.00  0.00    +0.162 C 
BRANCH  24  25
ATOM     25  C   LIG    1       25.586 -24.138   7.127  0.00  0.00    +0.211 C 
BRANCH  25  26
ATOM     26  O   LIG    1       24.562 -23.236   6.704  0.00  0.00    -0.370 OA
BRANCH  26  27
ATOM     27  C   LIG    1       24.818 -21.890   7.118  0.00  0.00    +0.195 C 
BRANCH  27  28
ATOM     28  C   LIG    1       24.330 -20.945   6.054  0.00  0.00    -0.022 A 
ATOM     29  C   LIG    1       23.043 -20.394   6.124  0.00  0.00    +0.006 A 
ATOM     30  C   LIG    1       22.575 -19.535   5.130  0.00  0.00    +0.000 A 
ATOM     31  C   LIG    1       23.395 -19.204   4.049  0.00  0.00    +0.000 A 
ATOM     32  C   LIG    1       24.680 -19.734   3.971  0.00  0.00    +0.000 A 
ATOM     33  C   LIG    1       25.148 -20.598   4.962  0.00  0.00    +0.006 A 
ENDBRANCH  27  28
ENDBRANCH  26  27
ENDBRANCH  25  26
ENDBRANCH  24  25
ENDBRANCH   4  24
TORSDOF 9
ENDMDL
MODEL 7
REMARK VINA RESULT:      -7.8      3.715      9.082
REMARK  Name = *****
REMARK                            x       y       z     vdW  Elec       q    Type
REMARK                         _______ _______ _______ _____ _____    ______ ____
ROOT
ATOM      1  C   LIG    1       25.278 -29.910  10.827  0.00  0.00    +0.022 C 
ATOM      2  C   LIG    1       25.926 -28.656  10.196  0.00  0.00    +0.061 C 
ATOM      3  C   LIG    1       26.255 -28.855   8.719  0.00  0.00    +0.134 C 
ATOM      4  N   LIG    1       25.498 -30.076   8.190  0.00  0.00    +0.245 N 
ATOM      5  C   LIG    1       26.077 -31.328   8.843  0.00  0.00    +0.134 C 
ATOM      6  C   LIG    1       24.019 -29.945   8.608  0.00  0.00    +0.134 C 
ATOM      7  C   LIG    1       26.145 -31.126  10.362  0.00  0.00    +0.061 C 
ATOM      8  C   LIG    1       23.904 -30.141  10.120  0.00  0.00    +0.061 C 
ENDROOT
BRANCH   1   9
ATOM      9  C   LIG    1       25.104 -29.836  12.419  0.00  0.00    +0.122 C 
BRANCH   9  10
ATOM     10  C   LIG    1       26.429 -30.012  13.208  0.00  0.00    -0.011 A 
ATOM     11  C   LIG    1       26.503 -30.858  14.342  0.00  0.00    +0.007 A 
ATOM     12  C   LIG    1       27.680 -30.974  15.100  0.00  0.00    +0.000 A 
ATOM     13  C   LIG    1       28.820 -30.279  14.754  0.00  0.00    +0.000 A 
ATOM     14  C   LIG    1       28.804 -29.473  13.626  0.00  0.00    +0.000 A 
ATOM     15  C   LIG    1       27.628 -29.354  12.873  0.00  0.00    +0.007 A 
ENDBRANCH   9  10
BRANCH   9  16
ATOM     16  C   LIG    1       24.225 -28.612  12.870  0.00  0.00    -0.011 A 
ATOM     17  C   LIG    1       24.790 -27.394  13.310  0.00  0.00    +0.007 A 
ATOM     18  C   LIG    1       24.013 -26.264  13.597  0.00  0.00    +0.000 A 
ATOM     19  C   LIG    1       22.638 -26.304  13.449  0.00  0.00    +0.000 A 
ATOM     20  C   LIG    1       22.036 -27.493  13.054  0.00  0.00    +0.000 A 
ATOM     21  C   LIG    1       22.814 -28.627  12.782  0.00  0.00    +0.007 A 
ENDBRANCH   9  16
BRANCH   9  22
ATOM     22  O   LIG    1       24.325 -31.021  12.708  0.00  0.00    -0.379 OA
ATOM     23  H   LIG    1       24.921 -31.784  12.575  0.00  0.00    +0.211 HD
ENDBRANCH   9  22
ENDBRANCH   1   9
BRANCH   4  24
ATOM     24  C   LIG    1       25.576 -30.135   6.638  0.00  0.00    +0.162 C 
BRANCH  24  25
ATOM     25  C   LIG    1       24.229 -29.934   5.902  0.00  0.00    +0.211 C 
BRANCH  25  26
ATOM     26  O   LIG    1       24.088 -28.591   5.438  0.00  0.00    -0.370 OA
BRANCH  26  27
ATOM     27  C   LIG    1       25.338 -27.895   5.397  0.00  0.00    +0.195 C 
BRANCH  27  28
ATOM     28  C   LIG    1       25.141 -26.495   5.910  0.00  0.00    -0.022 A 
ATOM     29  C   LIG    1       23.859 -25.931   5.970  0.00  0.00    +0.006 A 
ATOM     30  C   LIG    1       23.670 -24.625   6.423  0.00  0.00    +0.000 A 
ATOM     31  C   LIG    1       24.765 -23.862   6.834  0.00  0.00    +0.000 A 
ATOM     32  C   LIG    1       26.043 -24.413   6.791  0.00  0.00    +0.000 A 
ATOM     33  C   LIG    1       26.235 -25.717   6.333  0.00  0.00    +0.006 A 
ENDBRANCH  27  28
ENDBRANCH  26  27
ENDBRANCH  25  26
ENDBRANCH  24  25
ENDBRANCH   4  24
TORSDOF 9
ENDMDL
MODEL 8
REMARK VINA RESULT:      -7.8      2.409     10.193
REMARK  Name = *****
REMARK                            x       y       z     vdW  Elec       q    Type
REMARK                         _______ _______ _______ _____ _____    ______ ____
ROOT
ATOM      1  C   LIG    1       25.471 -29.096   6.791  0.00  0.00    +0.022 C 
ATOM      2  C   LIG    1       26.238 -28.916   5.461  0.00  0.00    +0.061 C 
ATOM      3  C   LIG    1       25.978 -27.555   4.822  0.00  0.00    +0.134 C 
ATOM      4  N   LIG    1       25.358 -26.617   5.860  0.00  0.00    +0.245 N 
ATOM      5  C   LIG    1       23.954 -27.115   6.191  0.00  0.00    +0.134 C 
ATOM      6  C   LIG    1       26.214 -26.682   7.142  0.00  0.00    +0.134 C 
ATOM      7  C   LIG    1       24.009 -28.613   6.516  0.00  0.00    +0.061 C 
ATOM      8  C   LIG    1       26.025 -28.046   7.805  0.00  0.00    +0.061 C 
ENDROOT
BRANCH   1   9
ATOM      9  C   LIG    1       25.538 -30.578   7.398  0.00  0.00    +0.122 C 
BRANCH   9  10
ATOM     10  C   LIG    1       24.322 -30.952   8.288  0.00  0.00    -0.011 A 
ATOM     11  C   LIG    1       23.869 -30.088   9.315  0.00  0.00    +0.007 A 
ATOM     12  C   LIG    1       22.810 -30.446  10.167  0.00  0.00    +0.000 A 
ATOM     13  C   LIG    1       22.156 -31.652  10.020  0.00  0.00    +0.000 A 
ATOM     14  C   LIG    1       22.540 -32.509   9.000  0.00  0.00    +0.000 A 
ATOM     15  C   LIG    1       23.600 -32.154   8.154  0.00  0.00    +0.007 A 
ENDBRANCH   9  10
BRANCH   9  16
ATOM     16  C   LIG    1       25.918 -31.654   6.316  0.00  0.00    -0.011 A 
ATOM     17  C   LIG    1       25.195 -31.806   5.112  0.00  0.00    +0.007 A 
ATOM     18  C   LIG    1       25.603 -32.679   4.094  0.00  0.00    +0.000 A 
ATOM     19  C   LIG    1       26.756 -33.431   4.237  0.00  0.00    +0.000 A 
ATOM     20  C   LIG    1       27.478 -33.341   5.421  0.00  0.00    +0.000 A 
ATOM     21  C   LIG    1       27.060 -32.478   6.444  0.00  0.00    +0.007 A 
ENDBRANCH   9  16
BRANCH   9  22
ATOM     22  O   LIG    1       26.665 -30.499   8.303  0.00  0.00    -0.379 OA
ATOM     23  H   LIG    1       26.918 -29.557   8.349  0.00  0.00    +0.211 HD
ENDBRANCH   9  22
ENDBRANCH   1   9
BRANCH   4  24
ATOM     24  C   LIG    1       25.352 -25.152   5.337  0.00  0.00    +0.162 C 
BRANCH  24  25
ATOM     25  C   LIG    1       25.581 -24.066   6.415  0.00  0.00    +0.211 C 
BRANCH  25  26
ATOM     26  O   LIG    1       24.686 -22.967   6.241  0.00  0.00    -0.370 OA
BRANCH  26  27
ATOM     27  C   LIG    1       25.370 -21.710   6.192  0.00  0.00    +0.195 C 
BRANCH  27  28
ATOM     28  C   LIG    1       24.518 -20.712   5.457  0.00  0.00    -0.022 A 
ATOM     29  C   LIG    1       24.989 -20.094   4.290  0.00  0.00    +0.006 A 
ATOM     30  C   LIG    1       24.215 -19.152   3.614  0.00  0.00    +0.000 A 
ATOM     31  C   LIG    1       22.946 -18.816   4.093  0.00  0.00    +0.000 A 
ATOM     32  C   LIG    1       22.460 -19.430   5.244  0.00  0.00    +0.000 A 
ATOM     33  C   LIG    1       23.235 -20.370   5.924  0.00  0.00    +0.006 A 
ENDBRANCH  27  28
ENDBRANCH  26  27
ENDBRANCH  25  26
ENDBRANCH  24  25
ENDBRANCH   4  24
TORSDOF 9
ENDMDL
