@<TRIPOS>MOLECULE
ZINC00895199
 25 25 0 0 0
SMALL
GASTEIGER

@<TRIPOS>ATOM
      1 C          -1.8875    0.7719    0.0204 C.ar    1  UNL1       -0.0547
      2 C          -0.6622    1.4411    0.0508 C.ar    1  UNL1       -0.0163
      3 C           0.5119    0.7065    0.0553 C.ar    1  UNL1        0.1582
      4 C           0.4814   -0.6842    0.0292 C.ar    1  UNL1        0.1585
      5 C          -0.7336   -1.3615   -0.0063 C.ar    1  UNL1       -0.0131
      6 C          -1.9353   -0.6328   -0.0200 C.ar    1  UNL1       -0.0378
      7 C          -3.2584   -1.3569   -0.1009 C.3     1  UNL1        0.0262
      8 CA         -4.0946   -1.0003   -1.3339 C.3     1  UNL1        0.0826
      9 HA         -4.3456    0.0626   -1.3961 H       1  UNL1        0.0973
     10 C          -3.3648   -1.5153   -2.6049 C.2     1  UNL1        0.4029
     11 O          -3.7028   -2.7220   -2.8323 O.co2   1  UNL1       -0.2400
     12 OXT        -2.7381   -0.6735   -3.2832 O.co2   1  UNL1       -0.2400
     13 N          -5.4233   -1.7442   -1.2340 N.4     1  UNL1        0.2291
     14 O           1.6780   -1.3474    0.0302 O.3     1  UNL1       -0.5033
     15 O           1.7097    1.3621    0.0728 O.3     1  UNL1       -0.5033
     16 H          -2.7986    1.3643    0.0020 H       1  UNL1        0.0621
     17 H          -0.6244    2.5261    0.0486 H       1  UNL1        0.0655
     18 H          -0.7534   -2.4469   -0.0449 H       1  UNL1        0.0658
     19 H          -3.0846   -2.4415   -0.0684 H       1  UNL1        0.0374
     20 H          -3.8221   -1.1217    0.8122 H       1  UNL1        0.0374
     21 H1         -5.1510   -2.7228   -1.4665 H       1  UNL1        0.2003
     22 H2         -5.9275   -1.6722   -0.3529 H       1  UNL1        0.2003
     23 H           1.4970   -2.2904   -0.1246 H       1  UNL1        0.2923
     24 H           2.3746    0.6477    0.0130 H       1  UNL1        0.2923
     25 H3         -5.9961   -1.4766   -2.0418 H       1  UNL1        0.2003
@<TRIPOS>UNITY_ATOM_ATTR
13 1
charge 1
@<TRIPOS>BOND
     1     1     6   ar
     2     1     2   ar
     3     1    16    1
     4     2     3   ar
     5     2    17    1
     6     3     4   ar
     7     3    15    1
     8     4     5   ar
     9     4    14    1
    10     5     6   ar
    11     5    18    1
    12     6     7    1
    13     7     8    1
    14     7    19    1
    15     7    20    1
    16     8     9    1
    17     8    10    1
    18     8    13    1
    19    10    11   ar
    20    10    12   ar
    21    13    21    1
    22    13    22    1
    23    13    25    1
    24    14    23    1
    25    15    24    1
