@<TRIPOS>MOLECULE
ZINC00643114
 40 42 0 0 0
SMALL
GASTEIGER

@<TRIPOS>ATOM
      1 C          -1.0411   -1.3608    1.4515 C.3     1  UNL1       -0.0445
      2 C           0.2627   -1.4104    0.6346 C.3     1  UNL1        0.0437
      3 H           0.3516   -0.4960    0.0344 H       1  UNL1        0.0518
      4 C           0.2279   -2.6254   -0.3298 C.3     1  UNL1       -0.0058
      5 C           0.9944   -3.6291    0.4644 C.ar    1  UNL1       -0.0230
      6 C           1.0668   -4.9994    0.2508 C.ar    1  UNL1       -0.0567
      7 C           1.9002   -5.7389    1.0823 C.ar    1  UNL1       -0.0614
      8 C           2.6489   -5.1080    2.0834 C.ar    1  UNL1       -0.0599
      9 C           2.5616   -3.7190    2.2849 C.ar    1  UNL1       -0.0389
     10 C           1.7189   -2.9819    1.4737 C.ar    1  UNL1        0.0511
     11 N           1.5002   -1.5668    1.4611 N.pl3   1  UNL1       -0.2474
     12 N           1.6550   -0.8988    2.7028 N.am    1  UNL1       -0.2297
     13 C           1.1353    0.3920    2.8798 C.2     1  UNL1        0.2603
     14 O           0.4641    1.0141    2.0604 O.2     1  UNL1       -0.2687
     15 C           1.4810    1.0648    4.1659 C.ar    1  UNL1        0.0401
     16 C           1.4743    2.4651    4.1835 C.ar    1  UNL1       -0.0481
     17 C           1.9294    3.1598    5.3048 C.ar    1  UNL1       -0.0408
     18 C           2.3609    2.4669    6.4373 C.ar    1  UNL1        0.0673
     19 C           2.2452    1.0738    6.4695 C.ar    1  UNL1        0.1239
     20 C           1.8033    0.3660    5.3344 C.ar    1  UNL1       -0.0218
     21 S           2.6021    0.1806    7.9501 S.O2    1  UNL1        0.0574
     22 O           1.9364    0.8039    9.0696 O.2     1  UNL1       -0.1532
     23 O           2.4635   -1.2343    7.6777 O.2     1  UNL1       -0.1532
     24 N           4.2507    0.4196    8.1425 N.3     1  UNL1       -0.2035
     25 CL          3.0732    3.4142    7.6943 Cl      1  UNL1       -0.0815
     26 H          -0.8896   -1.2229    2.5238 H       1  UNL1        0.0248
     27 H          -1.6473   -2.2630    1.3349 H       1  UNL1        0.0248
     28 H          -1.6512   -0.5233    1.0922 H       1  UNL1        0.0248
     29 H          -0.7867   -2.9626   -0.5632 H       1  UNL1        0.0332
     30 H           0.7609   -2.4081   -1.2621 H       1  UNL1        0.0332
     31 H           0.4967   -5.4774   -0.5403 H       1  UNL1        0.0621
     32 H           1.9849   -6.8164    0.9388 H       1  UNL1        0.0618
     33 H           3.3140   -5.7013    2.7063 H       1  UNL1        0.0618
     34 H           3.1693   -3.2559    3.0526 H       1  UNL1        0.0637
     35 H           2.5578   -1.0726    3.1326 H       1  UNL1        0.1733
     36 H           1.1394    3.0240    3.3109 H       1  UNL1        0.0625
     37 H           1.9666    4.2475    5.2754 H       1  UNL1        0.0633
     38 H           1.6959   -0.7172    5.3733 H       1  UNL1        0.0645
     39 H           4.4236    1.0468    8.9312 H       1  UNL1        0.1442
     40 H           4.7285   -0.4784    8.2192 H       1  UNL1        0.1442
@<TRIPOS>BOND
     1     1    26    1
     2     1    27    1
     3     1    28    1
     4     2    11    1
     5     2     4    1
     6     4     5    1
     7     4    29    1
     8     4    30    1
     9     5    10   ar
    10     5     6   ar
    11     6     7   ar
    12     6    31    1
    13     7     8   ar
    14     7    32    1
    15     8     9   ar
    16     8    33    1
    17     9    10   ar
    18     9    34    1
    19    10    11    1
    20    11    12    1
    21    12    13   am
    22    12    35    1
    23    13    14    2
    24    13    15    1
    25    15    20   ar
    26    15    16   ar
    27    16    17   ar
    28    16    36    1
    29    17    18   ar
    30    17    37    1
    31    18    19   ar
    32    18    25    1
    33    19    20   ar
    34    19    21    1
    35    20    38    1
    36    21    22    2
    37    21    23    2
    38    21    24    1
    39    24    39    1
    40    24    40    1
    41     2     3    1
    42     2     1    1
