@<TRIPOS>MOLECULE
ZINC00895360
 17 17 0 0 0
SMALL
GASTEIGER

@<TRIPOS>ATOM
      1 CG         -1.0587    0.7739   -0.1745 C.3     1  PRO1       -0.0069
      2 CB         -1.1081   -0.6827    0.2538 C.3     1  PRO1        0.0057
      3 CA          0.2284   -1.2306   -0.2046 C.3     1  PRO1        0.0804
      4 HA          0.5929   -2.0499    0.4218 H       1  PRO1        0.0970
      5 N           1.1773   -0.0356    0.0095 N.4     1  PRO1        0.2373
      6 CD          0.3717    1.2027    0.0993 C.3     1  PRO1       -0.0327
      7 C           0.2734   -1.6533   -1.7060 C.2     1  PRO1        0.4027
      8 O          -0.5759   -2.4832   -2.0969 O.co2   1  PRO1       -0.2400
      9 OXT         1.2035   -1.0176   -2.3005 O.co2   1  PRO1       -0.2400
     10 HG1        -1.2828    0.8633   -1.2443 H       1  PRO1        0.0319
     11 HG2        -1.7811    1.3906    0.3685 H       1  PRO1        0.0319
     12 HB1        -1.9667   -1.2029   -0.1807 H       1  PRO1        0.0327
     13 HB2        -1.1879   -0.7495    1.3457 H       1  PRO1        0.0327
     14 H1          1.8638   -0.1988    0.7487 H       1  PRO1        0.2022
     15 HD1         0.7519    1.9193   -0.6338 H       1  PRO1        0.0814
     16 HD2         0.4962    1.5950    1.1125 H       1  PRO1        0.0814
     17 H2          1.6847   -0.0596   -0.9120 H       1  PRO1        0.2022
@<TRIPOS>UNITY_ATOM_ATTR
5 1
charge 1
@<TRIPOS>BOND
     1     1     6    1
     2     1     2    1
     3     1    10    1
     4     1    11    1
     5     2     3    1
     6     2    12    1
     7     2    13    1
     8     3     4    1
     9     3     5    1
    10     3     7    1
    11     5     6    1
    12     5    14    1
    13     5    17    1
    14     6    15    1
    15     6    16    1
    16     7     8   ar
    17     7     9   ar
