@<TRIPOS>MOLECULE
ZINC00897085
 43 45 0 0 0
SMALL
GASTEIGER

@<TRIPOS>ATOM
      1 C          -5.6345   -7.7517   -2.0448 C.ar    1  UNL1       -0.0605
      2 C          -4.4261   -7.0802   -1.9240 C.ar    1  UNL1       -0.0522
      3 C          -3.8935   -6.2814   -2.9701 C.ar    1  UNL1        0.0068
      4 C          -2.7065   -5.4695   -2.8931 C.ar    1  UNL1       -0.0026
      5 C          -2.2271   -4.8804   -4.0747 C.ar    1  UNL1       -0.0252
      6 C          -3.0084   -4.8907   -5.2194 C.ar    1  UNL1        0.1446
      7 N          -4.2006   -5.5270   -5.2311 N.ar    1  UNL1       -0.2421
      8 C          -4.6295   -6.2374   -4.1865 C.ar    1  UNL1        0.0836
      9 C          -5.8624   -6.8759   -4.2909 C.ar    1  UNL1        0.0807
     10 C          -6.3599   -7.6395   -3.2178 C.ar    1  UNL1       -0.0480
     11 C          -6.7288   -6.7551   -5.5241 C.3     1  UNL1        0.4194
     12 F          -6.2682   -5.9732   -6.5356 F       1  UNL1       -0.1658
     13 F          -6.9842   -7.9709   -6.0835 F       1  UNL1       -0.1658
     14 F          -7.9567   -6.2360   -5.2057 F       1  UNL1       -0.1658
     15 C          -2.6283   -4.0459   -6.4323 C.3     1  UNL1        0.4342
     16 F          -1.4103   -3.4452   -6.2863 F       1  UNL1       -0.1644
     17 F          -2.5706   -4.7442   -7.5930 F       1  UNL1       -0.1644
     18 F          -3.5073   -3.0205   -6.6302 F       1  UNL1       -0.1644
     19 C          -1.9964   -5.0297   -1.6123 C.3     1  UNL1        0.1232
     20 H          -0.9173   -4.9895   -1.8179 H       1  UNL1        0.0701
     21 C          -2.4350   -3.6356   -1.0119 C.3     1  UNL1        0.0081
     22 H          -1.9076   -3.5755   -0.0481 H       1  UNL1        0.0880
     23 C          -2.0976   -2.3476   -1.7545 C.3     1  UNL1       -0.0068
     24 C          -3.0877   -1.8984   -2.8200 C.3     1  UNL1       -0.0431
     25 C          -4.5585   -2.1105   -2.4798 C.3     1  UNL1       -0.0124
     26 C          -4.8943   -3.3382   -1.6580 C.3     1  UNL1       -0.0333
     27 N          -3.8835   -3.6049   -0.6026 N.4     1  UNL1        0.2312
     28 O          -2.1689   -5.9639   -0.5444 O.3     1  UNL1       -0.3815
     29 H          -6.0087   -8.3675   -1.2288 H       1  UNL1        0.0618
     30 H          -3.8921   -7.2219   -0.9862 H       1  UNL1        0.0624
     31 H          -1.2855   -4.3307   -4.0854 H       1  UNL1        0.0642
     32 H          -7.3176   -8.1537   -3.3117 H       1  UNL1        0.0624
     33 H          -1.0887   -2.4063   -2.1802 H       1  UNL1        0.0321
     34 H          -2.0498   -1.5434   -1.0059 H       1  UNL1        0.0321
     35 H          -2.9309   -0.8287   -3.0125 H       1  UNL1        0.0269
     36 H          -2.8549   -2.3815   -3.7700 H       1  UNL1        0.0269
     37 H          -4.9314   -1.2259   -1.9516 H       1  UNL1        0.0317
     38 H          -5.1261   -2.1577   -3.4191 H       1  UNL1        0.0317
     39 H          -5.8572   -3.2221   -1.1514 H       1  UNL1        0.0814
     40 H          -4.9820   -4.2161   -2.2852 H       1  UNL1        0.0814
     41 H          -4.0018   -2.9040    0.1407 H       1  UNL1        0.2017
     42 H          -1.2832   -6.2397   -0.2339 H       1  UNL1        0.2105
     43 H          -4.0856   -4.5158   -0.1579 H       1  UNL1        0.2017
@<TRIPOS>UNITY_ATOM_ATTR
27 1
charge 1
@<TRIPOS>BOND
     1     1    10   ar
     2     1     2   ar
     3     1    29    1
     4     2     3   ar
     5     2    30    1
     6     3     8   ar
     7     3     4   ar
     8     4     5   ar
     9     4    19    1
    10     5     6   ar
    11     5    31    1
    12     6     7   ar
    13     6    15    1
    14     7     8   ar
    15     8     9   ar
    16     9    10   ar
    17     9    11    1
    18    10    32    1
    19    11    12    1
    20    11    13    1
    21    11    14    1
    22    15    16    1
    23    15    17    1
    24    15    18    1
    25    19    20    1
    26    19    28    1
    27    21    27    1
    28    21    23    1
    29    23    24    1
    30    23    33    1
    31    23    34    1
    32    24    25    1
    33    24    35    1
    34    24    36    1
    35    25    26    1
    36    25    37    1
    37    25    38    1
    38    26    27    1
    39    26    39    1
    40    26    40    1
    41    27    41    1
    42    27    43    1
    43    28    42    1
    44    21    22    1
    45    21    19    1
