@<TRIPOS>MOLECULE
ZINC03831583
 51 55 0 0 0
SMALL
GASTEIGER

@<TRIPOS>ATOM
      1 C           0.2536   -1.7657    2.5477 C.ar    1  UNL1       -0.0617
      2 C          -0.7676   -0.9410    2.0915 C.ar    1  UNL1       -0.0615
      3 C          -0.4211    0.2305    1.4163 C.ar    1  UNL1       -0.0571
      4 C           0.9020    0.5035    1.1327 C.ar    1  UNL1       -0.0300
      5 C           1.9349   -0.2388    1.7381 C.ar    1  UNL1       -0.0571
      6 C           1.5928   -1.4008    2.4411 C.ar    1  UNL1       -0.0615
      7 C           1.1873    1.3055   -0.0863 C.3     1  UNL1        0.0416
      8 N           0.6716    2.6423   -0.1730 N.am    1  UNL1       -0.2755
      9 C           1.6362    3.6469   -0.4518 C.3     1  UNL1        0.0557
     10 H           2.3978    3.2325   -1.1275 H       1  UNL1        0.0528
     11 C           2.3725    4.2447    0.7811 C.3     1  UNL1        0.0059
     12 S           2.0409    6.0245    0.8290 S.3     1  UNL1       -0.2015
     13 C           3.5131    6.9420    0.2219 C.3     1  UNL1       -0.0146
     14 C           3.0939    7.6206   -1.1355 C.3     1  UNL1       -0.0437
     15 C           1.5950    7.3127   -1.3912 C.3     1  UNL1       -0.0394
     16 C           1.6428    5.8921   -0.9543 C.3     1  UNL1        0.0171
     17 H           2.5714    5.5174   -1.4222 H       1  UNL1        0.0423
     18 C           0.8302    4.6868   -1.2339 C.3     1  UNL1        0.0582
     19 H           0.9019    4.4573   -2.3115 H       1  UNL1        0.0530
     20 N          -0.5355    4.4399   -0.9086 N.am    1  UNL1       -0.2753
     21 C          -0.5756    3.0124   -0.7295 C.2     1  UNL1        0.3060
     22 O          -1.5097    2.2935   -1.0543 O.2     1  UNL1       -0.2524
     23 C          -1.0757    5.1254    0.2426 C.3     1  UNL1        0.0416
     24 C          -2.5363    5.4589    0.1658 C.ar    1  UNL1       -0.0300
     25 C          -3.0736    5.9640   -1.0174 C.ar    1  UNL1       -0.0571
     26 C          -4.2460    6.6997   -0.9854 C.ar    1  UNL1       -0.0615
     27 C          -4.9072    6.8991    0.2295 C.ar    1  UNL1       -0.0617
     28 C          -4.4467    6.2797    1.3904 C.ar    1  UNL1       -0.0615
     29 C          -3.2670    5.5388    1.3605 C.ar    1  UNL1       -0.0571
     30 H          -0.0110   -2.7308    2.9980 H       1  UNL1        0.0618
     31 H          -1.8059   -1.2157    2.1792 H       1  UNL1        0.0618
     32 H          -1.2164    0.8513    1.0001 H       1  UNL1        0.0621
     33 H           2.9718   -0.0040    1.5892 H       1  UNL1        0.0621
     34 H           2.3713   -2.0511    2.8328 H       1  UNL1        0.0618
     35 H           2.2844    1.3964   -0.1593 H       1  UNL1        0.0514
     36 H           0.8484    0.7474   -0.9619 H       1  UNL1        0.0514
     37 H           2.0065    3.8070    1.7158 H       1  UNL1        0.0387
     38 H           3.4484    4.0696    0.7213 H       1  UNL1        0.0387
     39 H           3.7579    7.7106    0.9576 H       1  UNL1        0.0369
     40 H           4.3604    6.2608    0.0993 H       1  UNL1        0.0369
     41 H           3.3301    8.6838   -1.1823 H       1  UNL1        0.0273
     42 H           3.6798    7.1495   -1.9439 H       1  UNL1        0.0273
     43 H           1.2915    7.4318   -2.4316 H       1  UNL1        0.0276
     44 H           0.9625    7.9448   -0.7538 H       1  UNL1        0.0276
     45 H          -0.8608    4.5479    1.1451 H       1  UNL1        0.0514
     46 H          -0.5868    6.0997    0.3367 H       1  UNL1        0.0514
     47 H          -2.5316    5.8414   -1.9566 H       1  UNL1        0.0621
     48 H          -4.6145    7.1673   -1.8944 H       1  UNL1        0.0618
     49 H          -5.7741    7.5485    0.2703 H       1  UNL1        0.0618
     50 H          -4.9689    6.4164    2.3293 H       1  UNL1        0.0618
     51 H          -2.8877    5.0952    2.2724 H       1  UNL1        0.0621
@<TRIPOS>BOND
     1     1     6   ar
     2     1     2   ar
     3     1    30    1
     4     2     3   ar
     5     2    31    1
     6     3     4   ar
     7     3    32    1
     8     4     5   ar
     9     4     7    1
    10     5     6   ar
    11     5    33    1
    12     6    34    1
    13     7     8    1
    14     7    35    1
    15     7    36    1
    16     8    21   am
    17     8     9    1
    18     9    10    1
    19     9    18    1
    20     9    11    1
    21    11    37    1
    22    11    38    1
    23    12    11    1
    24    12    16    1
    25    12    13    1
    26    13    14    1
    27    13    39    1
    28    13    40    1
    29    14    15    1
    30    14    41    1
    31    14    42    1
    32    15    16    1
    33    15    43    1
    34    15    44    1
    35    16    17    1
    36    16    18    1
    37    18    19    1
    38    18    20    1
    39    20    21   am
    40    20    23    1
    41    21    22    2
    42    23    24    1
    43    23    45    1
    44    23    46    1
    45    24    29   ar
    46    24    25   ar
    47    25    26   ar
    48    25    47    1
    49    26    27   ar
    50    26    48    1
    51    27    28   ar
    52    27    49    1
    53    28    29   ar
    54    28    50    1
    55    29    51    1
