@<TRIPOS>MOLECULE
ZINC01567421
 46 50 0 0 0
SMALL
GASTEIGER

@<TRIPOS>ATOM
      1 C           2.6595    1.2444    1.4883 C.ar    1  UNL1       -0.0599
      2 C           2.1649    2.3972    0.8884 C.ar    1  UNL1       -0.0606
      3 C           0.9420    2.3569    0.2208 C.ar    1  UNL1       -0.0462
      4 C           0.2082    1.1657    0.1506 C.ar    1  UNL1        0.0341
      5 C           0.6815   -0.0089    0.7798 C.ar    1  UNL1        0.0479
      6 C           1.9255    0.0581    1.4342 C.ar    1  UNL1       -0.0393
      7 N          -0.0409   -1.2190    0.6897 N.pl3   1  UNL1       -0.2978
      8 C          -0.8516   -1.5415   -0.4242 C.ar    1  UNL1        0.0479
      9 C          -0.9531   -2.8659   -0.8947 C.ar    1  UNL1       -0.0393
     10 C          -1.7321   -3.1874   -2.0095 C.ar    1  UNL1       -0.0599
     11 C          -2.4259   -2.1891   -2.6823 C.ar    1  UNL1       -0.0606
     12 C          -2.3065   -0.8644   -2.2666 C.ar    1  UNL1       -0.0462
     13 C          -1.5059   -0.5343   -1.1628 C.ar    1  UNL1        0.0341
     14 S          -1.3557    1.1904   -0.7191 S.3     1  UNL1       -0.0857
     15 C          -0.0758   -2.1238    1.8514 C.3     1  UNL1        0.0252
     16 C          -0.6661   -1.4543    3.1237 C.3     1  UNL1        0.0184
     17 H          -0.0844   -0.5451    3.3258 H       1  UNL1        0.0371
     18 C          -0.4718   -2.3829    4.3367 C.3     1  UNL1       -0.0273
     19 C          -2.8309   -3.1759    4.1937 C.3     1  UNL1       -0.0316
     20 C          -3.0774   -2.2703    2.9873 C.3     1  UNL1       -0.0090
     21 C          -2.1601   -1.0360    3.0379 C.3     1  UNL1       -0.0223
     22 C          -2.5007   -0.2736    4.3373 C.3     1  UNL1       -0.0090
     23 C          -2.2830   -1.1690    5.5600 C.3     1  UNL1       -0.0316
     24 H           3.6336    1.2644    1.9739 H       1  UNL1        0.0618
     25 H           2.7374    3.3212    0.9202 H       1  UNL1        0.0618
     26 H           0.5708    3.2622   -0.2581 H       1  UNL1        0.0629
     27 H           2.3764   -0.8323    1.8647 H       1  UNL1        0.0636
     28 H          -0.3706   -3.6617   -0.4381 H       1  UNL1        0.0636
     29 H          -1.7756   -4.2132   -2.3676 H       1  UNL1        0.0618
     30 H          -3.0336   -2.4339   -3.5497 H       1  UNL1        0.0618
     31 H          -2.8269   -0.0870   -2.8211 H       1  UNL1        0.0629
     32 H          -0.6621   -3.0265    1.6524 H       1  UNL1        0.0472
     33 H           0.9367   -2.4888    2.0594 H       1  UNL1        0.0472
     34 H          -0.1525   -3.3953    4.0703 H       1  UNL1        0.0818
     35 H           0.2507   -1.9672    5.0483 H       1  UNL1        0.0818
     36 H          -2.4397   -4.1561    3.9020 H       1  UNL1        0.0814
     37 H          -3.7325   -3.3204    4.7982 H       1  UNL1        0.0814
     38 H          -2.9342   -2.8338    2.0590 H       1  UNL1        0.0320
     39 H          -4.1296   -1.9539    2.9841 H       1  UNL1        0.0320
     40 H          -2.3432   -0.3871    2.1759 H       1  UNL1        0.0309
     41 H          -1.8820    0.6278    4.4290 H       1  UNL1        0.0320
     42 H          -3.5415    0.0715    4.3195 H       1  UNL1        0.0320
     43 H          -3.2087   -1.3402    6.1195 H       1  UNL1        0.0814
     44 H          -1.5260   -0.7678    6.2430 H       1  UNL1        0.0814
     45 N          -1.7903   -2.5174    5.0755 N.4     1  UNL1        0.2355
     46 H          -1.6420   -3.1159    5.8997 H       1  UNL1        0.2033
@<TRIPOS>UNITY_ATOM_ATTR
45 1
charge 1
@<TRIPOS>BOND
     1     1     6   ar
     2     1     2   ar
     3     1    24    1
     4     2     3   ar
     5     2    25    1
     6     3     4   ar
     7     3    26    1
     8     4    14    1
     9     4     5   ar
    10     5     6   ar
    11     5     7    1
    12     6    27    1
    13     7     8    1
    14     7    15    1
    15     8    13   ar
    16     8     9   ar
    17     9    10   ar
    18     9    28    1
    19    10    11   ar
    20    10    29    1
    21    11    12   ar
    22    11    30    1
    23    12    13   ar
    24    12    31    1
    25    13    14    1
    26    15    16    1
    27    15    32    1
    28    15    33    1
    29    16    17    1
    30    16    21    1
    31    16    18    1
    32    18    34    1
    33    18    35    1
    34    18    45    1
    35    19    20    1
    36    19    36    1
    37    19    37    1
    38    19    45    1
    39    20    21    1
    40    20    38    1
    41    20    39    1
    42    21    22    1
    43    21    40    1
    44    22    23    1
    45    22    41    1
    46    22    42    1
    47    23    43    1
    48    23    44    1
    49    23    45    1
    50    45    46    1
