@<TRIPOS>MOLECULE
ZINC00004840
 28 29 0 0 0
SMALL
GASTEIGER

@<TRIPOS>ATOM
      1 C           0.1111   -5.9127   -0.8383 C.3     1  UNL1       -0.0029
      2 C          -0.7997   -4.8177   -0.4507 C.ar    1  UNL1        0.1463
      3 C          -0.7155   -3.4937   -0.0575 C.ar    1  UNL1        0.0984
      4 C          -2.0826   -3.1249    0.0896 C.ar    1  UNL1        0.0825
      5 N          -2.9228   -4.1224   -0.1715 N.ar    1  UNL1       -0.0857
      6 O          -2.1154   -5.1842   -0.5132 O.2     1  UNL1       -0.3592
      7 C           0.3740   -2.5529    0.1765 C.2     1  UNL1        0.2531
      8 O           0.0778   -1.3882    0.4295 O.2     1  UNL1       -0.2697
      9 N           1.6702   -3.0204    0.0828 N.am    1  UNL1       -0.2814
     10 C           2.8533   -2.2423    0.2061 C.ar    1  UNL1        0.0337
     11 C           4.0811   -2.8647   -0.0572 C.ar    1  UNL1       -0.0399
     12 C           5.2717   -2.1213   -0.0887 C.ar    1  UNL1       -0.0484
     13 C           5.2582   -0.7400    0.1464 C.ar    1  UNL1        0.0549
     14 C           4.0474   -0.1391    0.5029 C.ar    1  UNL1       -0.0484
     15 C           2.8619   -0.8836    0.5344 C.ar    1  UNL1       -0.0399
     16 C           6.4919    0.1123   -0.0291 C.3     1  UNL1        0.4174
     17 F           7.5848   -0.5898   -0.4389 F       1  UNL1       -0.1659
     18 F           6.3100    1.0891   -0.9626 F       1  UNL1       -0.1659
     19 F           6.8621    0.7526    1.1133 F       1  UNL1       -0.1659
     20 H          -0.2615   -6.8665   -0.4467 H       1  UNL1        0.0309
     21 H           0.1528   -5.9974   -1.9293 H       1  UNL1        0.0309
     22 H           1.1242   -5.7880   -0.4582 H       1  UNL1        0.0309
     23 H          -2.4820   -2.1600    0.3777 H       1  UNL1        0.0872
     24 H           1.8102   -3.9852   -0.1667 H       1  UNL1        0.1551
     25 H           4.1332   -3.9275   -0.2770 H       1  UNL1        0.0636
     26 H           6.2076   -2.6236   -0.3323 H       1  UNL1        0.0624
     27 H           4.0065    0.9268    0.7260 H       1  UNL1        0.0624
     28 H           1.9583   -0.3466    0.8023 H       1  UNL1        0.0636
@<TRIPOS>BOND
     1     1     2    1
     2     1    20    1
     3     1    21    1
     4     1    22    1
     5     2     6   ar
     6     2     3   ar
     7     3     4   ar
     8     3     7    1
     9     4     5   ar
    10     4    23    1
    11     5     6   ar
    12     7     8    2
    13     7     9   am
    14     9    10    1
    15     9    24    1
    16    10    15   ar
    17    10    11   ar
    18    11    12   ar
    19    11    25    1
    20    12    13   ar
    21    12    26    1
    22    13    14   ar
    23    13    16    1
    24    14    15   ar
    25    14    27    1
    26    15    28    1
    27    16    17    1
    28    16    18    1
    29    16    19    1
