@<TRIPOS>MOLECULE
ZINC02519740
 38 38 0 0 0
SMALL
GASTEIGER

@<TRIPOS>ATOM
      1 C           1.0928    3.2427   -0.8925 C.3     1  UNL1       -0.0585
      2 C           0.6482    2.4653    0.3540 C.3     1  UNL1       -0.0181
      3 C           1.0263    3.2420    1.6351 C.3     1  UNL1       -0.0585
      4 C          -0.8371    2.0614    0.3433 C.ar    1  UNL1       -0.0028
      5 C          -1.7626    3.0874    0.1236 C.ar    1  UNL1       -0.0548
      6 C          -3.1286    2.8314    0.0348 C.ar    1  UNL1       -0.0610
      7 C          -3.6075    1.5327    0.1422 C.ar    1  UNL1       -0.0548
      8 C          -2.7304    0.4642    0.3840 C.ar    1  UNL1       -0.0028
      9 C          -1.3411    0.7375    0.5490 C.ar    1  UNL1        0.1304
     10 O          -0.5813   -0.3533    0.9007 O.3     1  UNL1       -0.4651
     11 C           0.5633   -0.1036    1.7291 C.3     1  UNL1        0.2016
     12 O           0.7322   -0.8986    2.8582 O.3     1  UNL1       -0.2457
     13 P           0.7964   -2.5473    2.3380 P.3     1  UNL1        0.5346
     14 O           2.3163   -2.3045    2.1660 O.2     1  UNL1       -0.2223
     15 C          -3.3638   -0.9343    0.4030 C.3     1  UNL1       -0.0181
     16 C          -2.9474   -1.7750   -0.8074 C.3     1  UNL1       -0.0585
     17 C          -3.2010   -1.7084    1.7092 C.3     1  UNL1       -0.0585
     18 H           0.4544    4.0970   -1.1242 H       1  UNL1        0.0235
     19 H           1.1084    2.5778   -1.7641 H       1  UNL1        0.0235
     20 H           2.1138    3.6180   -0.7573 H       1  UNL1        0.0235
     21 H           1.2843    1.5851    0.2860 H       1  UNL1        0.0345
     22 H           0.2201    3.8979    1.9789 H       1  UNL1        0.0235
     23 H           1.2579    2.5795    2.4746 H       1  UNL1        0.0235
     24 H           1.9265    3.8432    1.4897 H       1  UNL1        0.0235
     25 H          -1.4338    4.1194    0.0289 H       1  UNL1        0.0622
     26 H          -3.8212    3.6492   -0.1208 H       1  UNL1        0.0618
     27 H          -4.6761    1.3610    0.0376 H       1  UNL1        0.0622
     28 H           1.4595   -0.1803    1.1105 H       1  UNL1        0.1022
     29 H           0.4673    0.8671    2.1840 H       1  UNL1        0.1022
     30 H          -4.4496   -0.7998    0.2963 H       1  UNL1        0.0345
     31 H          -1.8805   -2.0102   -0.7968 H       1  UNL1        0.0235
     32 H          -3.5007   -2.7224   -0.8265 H       1  UNL1        0.0235
     33 H          -3.1707   -1.2500   -1.7435 H       1  UNL1        0.0235
     34 H          -3.5520   -1.1178    2.5612 H       1  UNL1        0.0235
     35 H          -3.7970   -2.6297    1.6798 H       1  UNL1        0.0235
     36 H          -2.1666   -2.0013    1.8968 H       1  UNL1        0.0235
     37 O           0.1957   -2.8774    3.7230 O.3     1  UNL1       -0.1145
     38 O           0.8606   -4.1960    1.8178 O.3     1  UNL1       -0.1145
@<TRIPOS>BOND
     1     1     2    1
     2     1    18    1
     3     1    19    1
     4     1    20    1
     5     2     3    1
     6     2     4    1
     7     2    21    1
     8     3    22    1
     9     3    23    1
    10     3    24    1
    11     4     9   ar
    12     4     5   ar
    13     5     6   ar
    14     5    25    1
    15     6     7   ar
    16     6    26    1
    17     7     8   ar
    18     7    27    1
    19     8     9   ar
    20     8    15    1
    21     9    10    1
    22    10    11    1
    23    11    12    1
    24    11    28    1
    25    11    29    1
    26    12    13    1
    27    13    14    2
    28    13    37    1
    29    13    38    1
    30    15    16    1
    31    15    17    1
    32    15    30    1
    33    16    31    1
    34    16    32    1
    35    16    33    1
    36    17    34    1
    37    17    35    1
    38    17    36    1
