@<TRIPOS>MOLECULE
ZINC01530654
 51 52 0 0 0
SMALL
GASTEIGER

@<TRIPOS>ATOM
      1 C          -4.3339   -0.4073   -3.1082 C.3     1  UNL1       -0.0245
      2 C          -4.4893    0.6299   -4.2067 C.3     1  UNL1       -0.0347
      3 N          -5.4006    1.7680   -3.7841 N.4     1  UNL1        0.2367
      4 C          -4.9481    2.5160   -2.5363 C.3     1  UNL1       -0.0318
      5 C          -3.5941    3.2032   -2.7270 C.3     1  UNL1       -0.0109
      6 C          -3.0938    3.9462   -1.4674 C.3     1  UNL1       -0.0300
      7 C          -2.9156    3.0060   -0.2542 C.3     1  UNL1        0.0180
      8 H          -3.8970    2.6071   -0.0002 H       1  UNL1        0.0495
      9 C          -2.3623    3.7147    0.9796 C.3     1  UNL1       -0.0467
     10 N          -2.0223    1.9470   -0.6983 N.pl3   1  UNL1       -0.3409
     11 C          -1.5908    0.8162   -0.0159 C.2     1  UNL1        0.0342
     12 C          -0.1903    0.4758   -0.3376 C.2     1  UNL1       -0.0270
     13 C           0.3360   -0.6914    0.0616 C.2     1  UNL1       -0.0079
     14 N          -0.3696   -1.5667    0.8451 N.pl3   1  UNL1       -0.3345
     15 C          -1.5215   -1.1343    1.4653 C.3     1  UNL1        0.1080
     16 C          -2.2269    0.0607    0.9205 C.2     1  UNL1        0.0033
     17 C          -3.5956    0.2537    1.4255 C.2     1  UNL1       -0.0530
     18 C          -3.9642   -0.3374    2.5860 C.2     1  UNL1       -0.0432
     19 C          -3.0216   -1.1790    3.3350 C.2     1  UNL1        0.0395
     20 C          -1.8934   -1.6360    2.7798 C.2     1  UNL1       -0.0355
     21 CL         -3.3878   -1.5055    4.9920 Cl      1  UNL1       -0.0838
     22 C          -5.7586    2.7384   -4.9155 C.3     1  UNL1       -0.0082
     23 C          -6.5671    2.0443   -6.0128 C.3     1  UNL1        0.0841
     24 O          -7.6771    1.4043   -5.3885 O.3     1  UNL1       -0.3898
     25 H          -3.8064   -0.0114   -2.2371 H       1  UNL1        0.0281
     26 H          -3.7472   -1.2552   -3.4778 H       1  UNL1        0.0281
     27 H          -5.3069   -0.7891   -2.7828 H       1  UNL1        0.0281
     28 H          -3.5304    1.0519   -4.5190 H       1  UNL1        0.0812
     29 H          -4.9518    0.1463   -5.0703 H       1  UNL1        0.0812
     30 H          -5.7278    3.2516   -2.3056 H       1  UNL1        0.0814
     31 H          -4.9463    1.7860   -1.7242 H       1  UNL1        0.0814
     32 H          -2.8398    2.4656   -3.0234 H       1  UNL1        0.0317
     33 H          -3.6413    3.9240   -3.5501 H       1  UNL1        0.0317
     34 H          -2.1279    4.4019   -1.7186 H       1  UNL1        0.0285
     35 H          -3.7751    4.7694   -1.2200 H       1  UNL1        0.0285
     36 H          -1.8531    3.0197    1.6607 H       1  UNL1        0.0247
     37 H          -1.6537    4.5053    0.7259 H       1  UNL1        0.0247
     38 H          -3.1834    4.1657    1.5489 H       1  UNL1        0.0247
     39 H          -1.2621    2.3299   -1.2605 H       1  UNL1        0.1463
     40 H           0.4407    1.1953   -0.8396 H       1  UNL1        0.0648
     41 H           1.3656   -0.9655   -0.1327 H       1  UNL1        0.0779
     42 H          -4.3095    0.8417    0.8840 H       1  UNL1        0.0622
     43 H          -4.9643   -0.2407    2.9720 H       1  UNL1        0.0632
     44 H          -1.1859   -2.2412    3.3263 H       1  UNL1        0.0612
     45 H          -6.3954    3.5022   -4.4516 H       1  UNL1        0.0837
     46 H          -4.8421    3.1866   -5.2978 H       1  UNL1        0.0837
     47 H          -6.9268    2.7873   -6.7338 H       1  UNL1        0.0610
     48 H          -5.9769    1.3091   -6.5693 H       1  UNL1        0.0610
     49 H          -7.6455    0.4512   -5.5930 H       1  UNL1        0.2096
     50 H          -6.3081    1.3406   -3.5417 H       1  UNL1        0.2034
     51 H           0.1539   -2.2957    1.3086 H       1  UNL1        0.1468
@<TRIPOS>UNITY_ATOM_ATTR
3 1
charge 1
@<TRIPOS>BOND
     1     1     2    1
     2     1    25    1
     3     1    26    1
     4     1    27    1
     5     2     3    1
     6     2    28    1
     7     2    29    1
     8     3     4    1
     9     3    22    1
    10     3    50    1
    11     4     5    1
    12     4    30    1
    13     4    31    1
    14     5     6    1
    15     5    32    1
    16     5    33    1
    17     6    34    1
    18     6    35    1
    19     7     9    1
    20     7    10    1
    21     9    36    1
    22     9    37    1
    23     9    38    1
    24    10    11    1
    25    10    39    1
    26    11    16    2
    27    11    12    1
    28    12    13    2
    29    12    40    1
    30    13    14    1
    31    13    41    1
    32    14    15    1
    33    14    51    1
    34    15    20    1
    35    15    16    1
    36    16    17    1
    37    17    18    2
    38    17    42    1
    39    18    19    1
    40    18    43    1
    41    19    20    2
    42    19    21    1
    43    20    44    1
    44    22    23    1
    45    22    45    1
    46    22    46    1
    47    23    24    1
    48    23    47    1
    49    23    48    1
    50    24    49    1
    51     7     8    1
    52     7     6    1
