@<TRIPOS>MOLECULE
ZINC00897385
 37 39 0 0 0
SMALL
GASTEIGER

@<TRIPOS>ATOM
      1 C           3.5122   -2.3500   -3.7192 C.ar    1  UNL1       -0.0430
      2 C           3.3935   -2.7492   -2.3808 C.ar    1  UNL1       -0.0533
      3 C           2.7418   -1.9394   -1.4267 C.ar    1  UNL1        0.0010
      4 C           2.2661   -0.6834   -1.8687 C.ar    1  UNL1        0.0480
      5 C           2.3971   -0.2818   -3.2055 C.ar    1  UNL1       -0.0247
      6 C           2.9937   -1.1281   -4.1280 C.ar    1  UNL1        0.0424
      7 CL          3.0580   -0.6793   -5.7865 Cl      1  UNL1       -0.0835
      8 CL          1.4510    0.4209   -0.8209 Cl      1  UNL1       -0.0831
      9 C           2.4366   -2.4878   -0.0251 C.3     1  UNL1        0.1014
     10 H           1.3420   -2.4596    0.0559 H       1  UNL1        0.0663
     11 C           3.0425   -1.6883    1.1645 C.3     1  UNL1        0.0480
     12 N           4.4900   -1.8811    1.3480 N.pl3   1  UNL1       -0.2949
     13 C           5.0963   -2.5211    2.4211 C.2     1  UNL1        0.0135
     14 C           6.4438   -2.5055    2.1847 C.2     1  UNL1        0.0167
     15 N           6.6105   -1.8340    0.9928 N.2     1  UNL1       -0.3542
     16 C           5.4324   -1.4551    0.4944 C.2     1  UNL1        0.0640
     17 O           2.8445   -3.8745    0.0609 O.3     1  UNL1       -0.3657
     18 C           2.1291   -4.6235    1.0504 C.3     1  UNL1        0.0754
     19 C           2.4713   -6.0811    1.0050 C.ar    1  UNL1        0.0036
     20 C           1.6491   -7.0782    0.3723 C.ar    1  UNL1       -0.0479
     21 C           2.1393   -8.3604    0.5328 C.ar    1  UNL1       -0.0226
     22 S           3.6048   -8.3708    1.4102 S.2     1  UNL1       -0.0849
     23 C           3.5633   -6.6877    1.5887 C.ar    1  UNL1        0.0834
     24 CL          4.8287   -5.9397    2.4822 Cl      1  UNL1       -0.0755
     25 H           3.9744   -3.0187   -4.4443 H       1  UNL1        0.0632
     26 H           3.7716   -3.7363   -2.1144 H       1  UNL1        0.0622
     27 H           1.9970    0.6776   -3.5346 H       1  UNL1        0.0647
     28 H           2.8736   -0.6138    1.1070 H       1  UNL1        0.0497
     29 H           2.5597   -2.0227    2.0897 H       1  UNL1        0.0497
     30 H           4.4926   -2.9193    3.2153 H       1  UNL1        0.0798
     31 H           7.3080   -2.8795    2.7014 H       1  UNL1        0.0820
     32 H           5.2827   -0.8948   -0.4237 H       1  UNL1        0.0982
     33 H           2.3652   -4.2322    2.0447 H       1  UNL1        0.0611
     34 H           1.0523   -4.4998    0.8908 H       1  UNL1        0.0611
     35 H           0.7219   -6.8747   -0.1504 H       1  UNL1        0.0627
     36 H           1.7087   -9.2879    0.1787 H       1  UNL1        0.0694
     37 H           7.5061   -1.6494    0.5503 H       1  UNL1        0.1660
@<TRIPOS>BOND
     1     1     6   ar
     2     1     2   ar
     3     1    25    1
     4     2     3   ar
     5     2    26    1
     6     3     4   ar
     7     4     5   ar
     8     4     8    1
     9     5     6   ar
    10     5    27    1
    11     6     7    1
    12     9    11    1
    13     9    17    1
    14    11    12    1
    15    11    28    1
    16    11    29    1
    17    12    16    1
    18    12    13    1
    19    13    14    2
    20    13    30    1
    21    14    15    1
    22    14    31    1
    23    15    16    2
    24    15    37    1
    25    16    32    1
    26    17    18    1
    27    18    19    1
    28    18    33    1
    29    18    34    1
    30    19    23   ar
    31    19    20   ar
    32    20    21   ar
    33    20    35    1
    34    21    22   ar
    35    21    36    1
    36    22    23   ar
    37    23    24    1
    38     9    10    1
    39     9     3    1
