@<TRIPOS>MOLECULE
ZINC00968330
 45 47 0 0 0
SMALL
GASTEIGER

@<TRIPOS>ATOM
      1 C          13.0659    3.5192    4.1241 C.3     1  UNL1       -0.0103
      2 N          12.3953    4.1395    5.2675 N.3     1  UNL1       -0.2754
      3 C          10.8935    4.0434    5.1447 C.3     1  UNL1        0.0351
      4 C          10.2437    4.4285    3.7289 C.3     1  UNL1        0.1023
      5 O           8.8160    4.1626    3.6075 O.3     1  UNL1       -0.4907
      6 C           8.2259    4.2879    2.3525 C.ar    1  UNL1        0.1206
      7 C           8.7807    4.9092    1.2269 C.ar    1  UNL1       -0.0197
      8 C           8.0791    4.9855   -0.0178 C.ar    1  UNL1       -0.0551
      9 C           6.8026    4.4383   -0.1773 C.ar    1  UNL1       -0.0456
     10 C           6.2436    3.8296    0.9612 C.ar    1  UNL1       -0.0551
     11 C           6.9372    3.7635    2.1995 C.ar    1  UNL1       -0.0197
     12 C           5.9326    4.5652   -1.4311 C.3     1  UNL1       -0.0069
     13 C           6.5133    4.8406   -2.8333 C.3     1  UNL1        0.0945
     14 H           7.0813    5.7752   -2.8761 H       1  UNL1        0.0515
     15 C           5.3705    4.9460   -3.8412 C.2     1  UNL1        0.2336
     16 O           4.4864    5.7983   -3.8127 O.2     1  UNL1       -0.2741
     17 N           5.4079    3.9705   -4.8018 N.am    1  UNL1       -0.2463
     18 C           6.4706    3.1330   -4.8122 C.2     1  UNL1        0.2789
     19 O           6.6672    2.2563   -5.6480 O.2     1  UNL1       -0.2625
     20 S           7.5458    3.4789   -3.4857 S.3     1  UNL1       -0.0542
     21 C          12.9548    3.6792    6.5464 C.3     1  UNL1        0.1445
     22 C          13.9968    2.6432    6.6559 C.2     1  UNL1       -0.0425
     23 C          14.7120    2.4662    7.7869 C.2     1  UNL1       -0.0611
     24 C          14.4786    3.3150    8.9313 C.2     1  UNL1       -0.0484
     25 C          13.5255    4.2539    8.8355 C.2     1  UNL1       -0.0089
     26 N          12.7418    4.4140    7.6968 N.pl3   1  UNL1       -0.3257
     27 H          12.7866    3.9958    3.1823 H       1  UNL1        0.0391
     28 H          12.8442    2.4477    4.0534 H       1  UNL1        0.0391
     29 H          14.1542    3.6556    4.1794 H       1  UNL1        0.0391
     30 H          10.5743    3.0247    5.3976 H       1  UNL1        0.0460
     31 H          10.4420    4.7014    5.8994 H       1  UNL1        0.0460
     32 H          10.4134    5.4972    3.5556 H       1  UNL1        0.0709
     33 H          10.7305    3.8385    2.9489 H       1  UNL1        0.0709
     34 H           9.7569    5.3762    1.2803 H       1  UNL1        0.0654
     35 H           8.5639    5.5013   -0.8441 H       1  UNL1        0.0621
     36 H           5.2402    3.4069    0.9052 H       1  UNL1        0.0621
     37 H           6.4354    3.2954    3.0441 H       1  UNL1        0.0654
     38 H           5.3054    3.6638   -1.5058 H       1  UNL1        0.0329
     39 H           5.2300    5.3841   -1.2167 H       1  UNL1        0.0329
     40 H           4.7152    3.9236   -5.5221 H       1  UNL1        0.1583
     41 H          14.2097    1.9943    5.8132 H       1  UNL1        0.0608
     42 H          15.4859    1.7003    7.8536 H       1  UNL1        0.0616
     43 H          15.0950    3.1908    9.8200 H       1  UNL1        0.0630
     44 H          13.3278    4.9474    9.6464 H       1  UNL1        0.0778
     45 H          12.2922    5.3121    7.5718 H       1  UNL1        0.1477
@<TRIPOS>BOND
     1     1     2    1
     2     1    27    1
     3     1    28    1
     4     1    29    1
     5     2     3    1
     6     2    21    1
     7     3     4    1
     8     3    30    1
     9     3    31    1
    10     4     5    1
    11     4    32    1
    12     4    33    1
    13     5     6    1
    14     6    11   ar
    15     6     7   ar
    16     7     8   ar
    17     7    34    1
    18     8     9   ar
    19     8    35    1
    20     9    10   ar
    21     9    12    1
    22    10    11   ar
    23    10    36    1
    24    11    37    1
    25    12    38    1
    26    12    39    1
    27    13    20    1
    28    13    15    1
    29    15    16    2
    30    15    17   am
    31    17    18   am
    32    17    40    1
    33    18    19    2
    34    18    20    1
    35    21    26    1
    36    21    22    1
    37    22    23    2
    38    22    41    1
    39    23    24    1
    40    23    42    1
    41    24    25    2
    42    24    43    1
    43    25    26    1
    44    25    44    1
    45    26    45    1
    46    13    14    1
    47    13    12    1
