@<TRIPOS>MOLECULE
ZINC01530756
 39 39 0 0 0
SMALL
GASTEIGER

@<TRIPOS>ATOM
      1 C           1.1941    0.0801   -0.0079 C.3     1  UNL1       -0.0245
      2 C           0.5180   -1.2187   -0.4066 C.3     1  UNL1       -0.0348
      3 N           0.8293   -2.3423    0.5441 N.4     1  UNL1        0.2359
      4 C           0.5097   -2.1019    2.0047 C.3     1  UNL1       -0.0348
      5 C          -0.9767   -1.9285    2.2484 C.3     1  UNL1       -0.0245
      6 C           0.3555   -3.7114    0.0746 C.3     1  UNL1       -0.0160
      7 C           1.0080   -4.1915   -1.2435 C.3     1  UNL1        0.0520
      8 N           2.4651   -4.2399   -1.3538 N.am    1  UNL1       -0.3063
      9 C           3.3699   -4.0217   -0.3411 C.2     1  UNL1        0.2442
     10 O           3.0227   -3.6433    0.7739 O.2     1  UNL1       -0.2702
     11 C           4.8128   -4.1813   -0.6464 C.ar    1  UNL1        0.0368
     12 C           5.6902   -4.4067    0.4202 C.ar    1  UNL1       -0.0479
     13 C           7.0694   -4.4223    0.2013 C.ar    1  UNL1       -0.0403
     14 C           7.5900   -4.2531   -1.0836 C.ar    1  UNL1        0.0246
     15 C           6.7077   -4.0030   -2.1381 C.ar    1  UNL1       -0.0403
     16 C           5.3249   -3.9823   -1.9313 C.ar    1  UNL1       -0.0479
     17 N           8.9622   -4.0713   -1.2634 N.pl3   1  UNL1       -0.3580
     18 H           0.8216    0.4647    0.9455 H       1  UNL1        0.0281
     19 H           0.9901    0.8471   -0.7629 H       1  UNL1        0.0281
     20 H           2.2797   -0.0418    0.0618 H       1  UNL1        0.0281
     21 H          -0.5692   -1.1114   -0.4601 H       1  UNL1        0.0812
     22 H           0.8896   -1.5103   -1.3924 H       1  UNL1        0.0812
     23 H           0.8973   -2.9591    2.5668 H       1  UNL1        0.0812
     24 H           1.0752   -1.2239    2.3298 H       1  UNL1        0.0812
     25 H          -1.5358   -2.8305    1.9832 H       1  UNL1        0.0281
     26 H          -1.1557   -1.7329    3.3105 H       1  UNL1        0.0281
     27 H          -1.3885   -1.0869    1.6849 H       1  UNL1        0.0281
     28 H           0.5874   -4.4261    0.8738 H       1  UNL1        0.0830
     29 H          -0.7315   -3.6581   -0.0414 H       1  UNL1        0.0830
     30 H           0.6553   -5.2056   -1.4525 H       1  UNL1        0.0515
     31 H           0.6621   -3.5728   -2.0803 H       1  UNL1        0.0515
     32 H           2.8224   -4.6613   -2.2056 H       1  UNL1        0.1492
     33 H           5.3136   -4.5345    1.4328 H       1  UNL1        0.0626
     34 H           7.7380   -4.5450    1.0506 H       1  UNL1        0.0636
     35 H           7.0979   -3.7894   -3.1308 H       1  UNL1        0.0636
     36 H           4.6846   -3.7460   -2.7756 H       1  UNL1        0.0626
     37 H           9.2964   -4.2414   -2.2069 H       1  UNL1        0.1423
     38 H           9.5473   -4.5176   -0.5632 H       1  UNL1        0.1423
     39 H           1.8621   -2.4635    0.5647 H       1  UNL1        0.2034
@<TRIPOS>UNITY_ATOM_ATTR
3 1
charge 1
@<TRIPOS>BOND
     1     1     2    1
     2     1    18    1
     3     1    19    1
     4     1    20    1
     5     2     3    1
     6     2    21    1
     7     2    22    1
     8     3     4    1
     9     3     6    1
    10     3    39    1
    11     4     5    1
    12     4    23    1
    13     4    24    1
    14     5    25    1
    15     5    26    1
    16     5    27    1
    17     6     7    1
    18     6    28    1
    19     6    29    1
    20     7     8    1
    21     7    30    1
    22     7    31    1
    23     8     9   am
    24     8    32    1
    25     9    10    2
    26     9    11    1
    27    11    16   ar
    28    11    12   ar
    29    12    13   ar
    30    12    33    1
    31    13    14   ar
    32    13    34    1
    33    14    15   ar
    34    14    17    1
    35    15    16   ar
    36    15    35    1
    37    16    36    1
    38    17    37    1
    39    17    38    1
