@<TRIPOS>MOLECULE
ZINC01530707
 51 52 0 0 0
SMALL
GASTEIGER

@<TRIPOS>ATOM
      1 C           7.6567    0.5560   -2.9560 C.3     1  UNL1       -0.0585
      2 C           6.2191    0.0944   -3.0402 C.3     1  UNL1        0.0042
      3 C           5.2757    0.9086   -2.1612 C.2     1  UNL1        0.1480
      4 O           5.1969    2.1256   -2.3782 O.2     1  UNL1       -0.2961
      5 C           4.2693    0.2010   -1.1819 C.3     1  UNL1        0.0837
      6 C           3.5104    1.3016   -0.3047 C.3     1  UNL1        0.0105
      7 C           2.5396    2.3992   -0.8358 C.3     1  UNL1       -0.0227
      8 H           2.1482    2.9204    0.0498 H       1  UNL1        0.0849
      9 C           1.3380    1.8180   -1.5782 C.3     1  UNL1       -0.0215
     10 C           2.2363    4.5244   -2.2163 C.3     1  UNL1       -0.0431
     11 C           4.3223    4.2777   -0.9711 C.3     1  UNL1       -0.0431
     12 C           3.2325   -0.6440   -1.9807 C.ar    1  UNL1       -0.0296
     13 C           2.3428   -1.5233   -1.3291 C.ar    1  UNL1       -0.0573
     14 C           1.5184   -2.3961   -2.0528 C.ar    1  UNL1       -0.0615
     15 C           1.5627   -2.4164   -3.4436 C.ar    1  UNL1       -0.0617
     16 C           2.3910   -1.5257   -4.1130 C.ar    1  UNL1       -0.0615
     17 C           3.1849   -0.6287   -3.3936 C.ar    1  UNL1       -0.0573
     18 C           5.1037   -0.7139   -0.1928 C.ar    1  UNL1       -0.0296
     19 C           5.3960   -2.0585   -0.5239 C.ar    1  UNL1       -0.0573
     20 C           6.0880   -2.9015    0.3592 C.ar    1  UNL1       -0.0615
     21 C           6.4989   -2.4358    1.6010 C.ar    1  UNL1       -0.0617
     22 C           6.2449   -1.1165    1.9524 C.ar    1  UNL1       -0.0615
     23 C           5.5713   -0.2660    1.0630 C.ar    1  UNL1       -0.0573
     24 H           7.7378    1.6437   -3.0457 H       1  UNL1        0.0234
     25 H           8.2317    0.1087   -3.7735 H       1  UNL1        0.0234
     26 H           8.1091    0.2545   -2.0080 H       1  UNL1        0.0234
     27 H           5.8826    0.2489   -4.0729 H       1  UNL1        0.0339
     28 H           6.1414   -0.9746   -2.8499 H       1  UNL1        0.0339
     29 H           2.9260    0.7524    0.4521 H       1  UNL1        0.0336
     30 H           4.2532    1.8503    0.2785 H       1  UNL1        0.0336
     31 H           0.5280    2.5493   -1.6627 H       1  UNL1        0.0284
     32 H           1.5986    1.4989   -2.5892 H       1  UNL1        0.0284
     33 H           0.9149    0.9711   -1.0287 H       1  UNL1        0.0284
     34 H           1.6745    4.9617   -1.3849 H       1  UNL1        0.0777
     35 H           2.8083    5.2972   -2.7380 H       1  UNL1        0.0777
     36 H           1.5721    4.0329   -2.9285 H       1  UNL1        0.0777
     37 H           4.9754    3.6000   -0.4231 H       1  UNL1        0.0777
     38 H           4.9027    4.7619   -1.7649 H       1  UNL1        0.0777
     39 H           3.8910    5.0237   -0.3006 H       1  UNL1        0.0777
     40 H           2.3087   -1.5808   -0.2412 H       1  UNL1        0.0621
     41 H           0.8575   -3.0852   -1.5314 H       1  UNL1        0.0618
     42 H           0.9592   -3.1258   -4.0053 H       1  UNL1        0.0618
     43 H           2.4339   -1.5412   -5.2008 H       1  UNL1        0.0618
     44 H           3.7746    0.0525   -3.9929 H       1  UNL1        0.0621
     45 H           5.0925   -2.4859   -1.4738 H       1  UNL1        0.0621
     46 H           6.2869   -3.9321    0.0765 H       1  UNL1        0.0618
     47 H           7.0099   -3.1002    2.2955 H       1  UNL1        0.0618
     48 H           6.5657   -0.7503    2.9260 H       1  UNL1        0.0618
     49 H           5.4208    0.7468    1.4249 H       1  UNL1        0.0621
     50 N           3.2007    3.5114   -1.6501 N.4     1  UNL1        0.2329
     51 H           3.6926    3.0410   -2.4330 H       1  UNL1        0.2030
@<TRIPOS>UNITY_ATOM_ATTR
50 1
charge 1
@<TRIPOS>BOND
     1     1     2    1
     2     1    24    1
     3     1    25    1
     4     1    26    1
     5     2     3    1
     6     2    27    1
     7     2    28    1
     8     3     4    2
     9     3     5    1
    10     5     6    1
    11     5    12    1
    12     5    18    1
    13     6    29    1
    14     6    30    1
    15     7     9    1
    16     7    50    1
    17     9    31    1
    18     9    32    1
    19     9    33    1
    20    10    34    1
    21    10    35    1
    22    10    36    1
    23    10    50    1
    24    11    37    1
    25    11    38    1
    26    11    39    1
    27    11    50    1
    28    12    17   ar
    29    12    13   ar
    30    13    14   ar
    31    13    40    1
    32    14    15   ar
    33    14    41    1
    34    15    16   ar
    35    15    42    1
    36    16    17   ar
    37    16    43    1
    38    17    44    1
    39    18    23   ar
    40    18    19   ar
    41    19    20   ar
    42    19    45    1
    43    20    21   ar
    44    20    46    1
    45    21    22   ar
    46    21    47    1
    47    22    23   ar
    48    22    48    1
    49    23    49    1
    50    50    51    1
    51     7     8    1
    52     7     6    1
