@<TRIPOS>MOLECULE
ZINC00056646
 39 40 0 0 0
SMALL
GASTEIGER

@<TRIPOS>ATOM
      1 C          -0.9408    0.3277   -6.3496 C.3     1  UNL1       -0.0219
      2 C          -1.3527   -0.4873   -5.1322 C.3     1  UNL1       -0.0283
      3 C          -0.7195   -1.8769   -5.1719 C.3     1  UNL1       -0.0219
      4 N          -0.9121    0.1838   -3.8672 N.4     1  UNL1        0.2307
      5 C          -1.4767    1.5496   -3.5294 C.3     1  UNL1       -0.0035
      6 C          -0.8327    1.9814   -2.1998 C.3     1  UNL1        0.1285
      7 H          -1.0792    1.2540   -1.4168 H       1  UNL1        0.0681
      8 C          -1.2680    3.3818   -1.7382 C.3     1  UNL1        0.1204
      9 O          -0.7643    3.6028   -0.4073 O.3     1  UNL1       -0.4885
     10 C          -1.1454    4.7823    0.2047 C.ar    1  UNL1        0.1297
     11 C          -2.3083    5.4954   -0.1444 C.ar    1  UNL1       -0.0192
     12 C          -2.6407    6.7053    0.4670 C.ar    1  UNL1       -0.0563
     13 C          -1.8461    7.2466    1.4710 C.ar    1  UNL1       -0.0376
     14 C          -0.7312    6.5069    1.8856 C.ar    1  UNL1        0.0500
     15 C          -0.3675    5.2934    1.2818 C.ar    1  UNL1        0.0413
     16 C           0.7943    4.8483    1.9866 C.ar    1  UNL1       -0.0332
     17 C           1.0781    5.7641    2.9775 C.ar    1  UNL1        0.0028
     18 N           0.1634    6.7770    2.8864 N.ar    1  UNL1       -0.3605
     19 H           0.1252    7.5853    3.4930 H       1  UNL1        0.1653
     20 O           0.5872    1.8960   -2.4203 O.3     1  UNL1       -0.3831
     21 H           0.1392    0.5070   -6.3689 H       1  UNL1        0.0284
     22 H          -1.4517    1.2943   -6.3762 H       1  UNL1        0.0284
     23 H          -1.2097   -0.2014   -7.2713 H       1  UNL1        0.0284
     24 H          -2.4428   -0.5804   -5.0791 H       1  UNL1        0.0845
     25 H           0.3751   -1.8212   -5.1744 H       1  UNL1        0.0284
     26 H          -1.0245   -2.4769   -4.3077 H       1  UNL1        0.0284
     27 H          -1.0277   -2.4169   -6.0741 H       1  UNL1        0.0284
     28 H          -1.1121   -0.4428   -3.0761 H       1  UNL1        0.2017
     29 H          -1.1666    2.2205   -4.3385 H       1  UNL1        0.0841
     30 H          -2.5653    1.4689   -3.4849 H       1  UNL1        0.0841
     31 H          -0.8551    4.1502   -2.4024 H       1  UNL1        0.0725
     32 H          -2.3608    3.4028   -1.7471 H       1  UNL1        0.0725
     33 H          -3.0060    5.1238   -0.8830 H       1  UNL1        0.0654
     34 H          -3.5438    7.2308    0.1613 H       1  UNL1        0.0619
     35 H          -2.1069    8.1915    1.9418 H       1  UNL1        0.0638
     36 H           1.3495    3.9389    1.8051 H       1  UNL1        0.0640
     37 H           1.8418    5.7800    3.7421 H       1  UNL1        0.0807
     38 H           1.0077    2.6346   -1.9311 H       1  UNL1        0.2102
     39 H           0.1178    0.2979   -3.8384 H       1  UNL1        0.2017
@<TRIPOS>UNITY_ATOM_ATTR
4 1
charge 1
@<TRIPOS>BOND
     1     1     2    1
     2     1    21    1
     3     1    22    1
     4     1    23    1
     5     2     3    1
     6     2     4    1
     7     2    24    1
     8     3    25    1
     9     3    26    1
    10     3    27    1
    11     4     5    1
    12     4    28    1
    13     4    39    1
    14     5    29    1
    15     5    30    1
    16     6     8    1
    17     6    20    1
    18     8     9    1
    19     8    31    1
    20     8    32    1
    21     9    10    1
    22    10    15   ar
    23    10    11   ar
    24    11    12   ar
    25    11    33    1
    26    12    13   ar
    27    12    34    1
    28    13    14   ar
    29    13    35    1
    30    14    18   ar
    31    14    15   ar
    32    15    16   ar
    33    16    17   ar
    34    16    36    1
    35    17    18   ar
    36    17    37    1
    37    18    19    1
    38    20    38    1
    39     6     7    1
    40     6     5    1
