@<TRIPOS>MOLECULE
ZINC00056555
 46 48 0 0 0
SMALL
GASTEIGER

@<TRIPOS>ATOM
      1 C           8.4008    5.1944   -4.9364 C.3     1  UNL1        0.0790
      2 O           7.4733    6.2877   -4.9305 O.3     1  UNL1       -0.4915
      3 C           6.1886    5.8545   -4.7544 C.ar    1  UNL1        0.1615
      4 C           5.8893    4.9332   -3.7433 C.ar    1  UNL1       -0.0160
      5 C           4.6351    4.3515   -3.6707 C.ar    1  UNL1       -0.0545
      6 C           3.6712    4.7205   -4.6049 C.ar    1  UNL1       -0.0379
      7 C           3.8773    5.7534   -5.4798 C.ar    1  UNL1       -0.0128
      8 C           5.1514    6.3209   -5.5767 C.ar    1  UNL1        0.1618
      9 O           5.1874    7.2932   -6.5319 O.3     1  UNL1       -0.4914
     10 C           6.3748    7.4580   -7.2767 C.3     1  UNL1        0.0790
     11 C           2.3814    3.9278   -4.7042 C.3     1  UNL1        0.0155
     12 C           2.6033    2.4742   -5.0280 C.ar    1  UNL1        0.0534
     13 C           2.8597    1.9404   -6.3093 C.ar    1  UNL1        0.0074
     14 C           3.4259    2.5577   -7.4719 C.ar    1  UNL1       -0.0069
     15 C           3.9010    1.7702   -8.5455 C.ar    1  UNL1        0.1621
     16 C           3.6624    0.3844   -8.5290 C.ar    1  UNL1        0.1621
     17 C           2.8324   -0.1591   -7.5640 C.ar    1  UNL1       -0.0085
     18 C           2.5213    0.5714   -6.4271 C.ar    1  UNL1       -0.0110
     19 C           1.9713   -0.0713   -5.3593 C.ar    1  UNL1       -0.0357
     20 C           2.2799    0.3902   -4.1092 C.ar    1  UNL1        0.0285
     21 N           2.5078    1.6800   -3.9213 N.ar    1  UNL1       -0.2589
     22 O           4.3359   -0.4197   -9.4290 O.3     1  UNL1       -0.4914
     23 C           4.6629   -1.7228   -8.9161 C.3     1  UNL1        0.0790
     24 O           4.6118    2.2295   -9.6174 O.3     1  UNL1       -0.4914
     25 C           5.1112    3.5534   -9.5863 C.3     1  UNL1        0.0790
     26 H           9.3272    5.5351   -5.4092 H       1  UNL1        0.0660
     27 H           8.0255    4.3413   -5.5172 H       1  UNL1        0.0660
     28 H           8.6448    4.8854   -3.9133 H       1  UNL1        0.0660
     29 H           6.6563    4.6315   -3.0135 H       1  UNL1        0.0655
     30 H           4.4555    3.5718   -2.9231 H       1  UNL1        0.0622
     31 H           3.0953    6.0929   -6.1313 H       1  UNL1        0.0658
     32 H           6.9547    8.2834   -6.8591 H       1  UNL1        0.0660
     33 H           6.9672    6.5438   -7.3560 H       1  UNL1        0.0660
     34 H           6.0785    7.7332   -8.2948 H       1  UNL1        0.0660
     35 H           1.8547    4.0037   -3.7400 H       1  UNL1        0.0377
     36 H           1.7077    4.3599   -5.4375 H       1  UNL1        0.0377
     37 H           3.5926    3.6327   -7.4649 H       1  UNL1        0.0662
     38 H           2.5757   -1.2214   -7.5784 H       1  UNL1        0.0661
     39 H           1.0216   -0.6093   -5.4873 H       1  UNL1        0.0639
     40 H           2.2997   -0.2604   -3.2416 H       1  UNL1        0.0830
     41 H           4.9428   -1.7091   -7.8509 H       1  UNL1        0.0660
     42 H           3.8220   -2.4079   -9.0742 H       1  UNL1        0.0660
     43 H           5.5251   -2.1186   -9.4626 H       1  UNL1        0.0660
     44 H           4.3032    4.2739   -9.7574 H       1  UNL1        0.0660
     45 H           5.6376    3.7704   -8.6509 H       1  UNL1        0.0660
     46 H           5.8341    3.6620  -10.4040 H       1  UNL1        0.0660
@<TRIPOS>BOND
     1     1     2    1
     2     1    26    1
     3     1    27    1
     4     1    28    1
     5     2     3    1
     6     3     8   ar
     7     3     4   ar
     8     4     5   ar
     9     4    29    1
    10     5     6   ar
    11     5    30    1
    12     6     7   ar
    13     6    11    1
    14     7     8   ar
    15     7    31    1
    16     8     9    1
    17     9    10    1
    18    10    32    1
    19    10    33    1
    20    10    34    1
    21    11    12    1
    22    11    35    1
    23    11    36    1
    24    12    21   ar
    25    12    13   ar
    26    13    18   ar
    27    13    14   ar
    28    14    15   ar
    29    14    37    1
    30    15    16   ar
    31    15    24    1
    32    16    17   ar
    33    16    22    1
    34    17    18   ar
    35    17    38    1
    36    18    19   ar
    37    19    20   ar
    38    19    39    1
    39    20    21   ar
    40    20    40    1
    41    22    23    1
    42    23    41    1
    43    23    42    1
    44    23    43    1
    45    24    25    1
    46    25    44    1
    47    25    45    1
    48    25    46    1
