@<TRIPOS>MOLECULE
ZINC00622123
 41 43 0 0 0
SMALL
GASTEIGER

@<TRIPOS>ATOM
      1 C           1.0194    0.3376   -2.4510 C.3     1  UNL1       -0.0575
      2 C           1.6789    0.7614   -1.1308 C.3     1  UNL1        0.0177
      3 H           1.7046    1.8601   -1.1378 H       1  UNL1        0.0350
      4 C           3.1240    0.2534   -1.0920 C.3     1  UNL1        0.0170
      5 C           3.8000    0.5119    0.2331 C.2     1  UNL1        0.1598
      6 O           5.0243    0.5183    0.3432 O.2     1  UNL1       -0.2926
      7 C           2.9743    0.7094    1.4476 C.2     1  UNL1        0.0228
      8 C           1.6332    0.6210    1.4175 C.2     1  UNL1        0.1521
      9 C           0.8812    0.3298    0.1210 C.3     1  UNL1        0.2313
     10 C           0.5747   -1.1522    0.1234 C.2     1  UNL1        0.2213
     11 O           1.4188   -2.0335    0.1122 O.2     1  UNL1       -0.2870
     12 C          -0.8672   -1.3178    0.1244 C.ar    1  UNL1        0.1068
     13 C          -1.7254   -2.4084    0.1136 C.ar    1  UNL1        0.1378
     14 C          -3.1094   -2.1408    0.1098 C.ar    1  UNL1        0.0242
     15 C          -3.6223   -0.8321    0.1092 C.ar    1  UNL1        0.1454
     16 C          -2.7253    0.2461    0.1140 C.ar    1  UNL1        0.1250
     17 C          -1.3592   -0.0157    0.1222 C.ar    1  UNL1        0.1585
     18 O          -0.4061    0.9834    0.1117 O.3     1  UNL1       -0.4674
     19 CL         -3.2875    1.8809    0.0946 Cl      1  UNL1       -0.0759
     20 O          -4.9587   -0.5265    0.0998 O.3     1  UNL1       -0.4934
     21 C          -5.8914   -1.6004    0.0867 C.3     1  UNL1        0.0789
     22 O          -1.4696   -3.7470    0.0990 O.3     1  UNL1       -0.4942
     23 C          -0.1274   -4.2044    0.0895 C.3     1  UNL1        0.0788
     24 O           0.8101    0.7384    2.5274 O.2     1  UNL1       -0.4947
     25 C           1.4208    0.9694    3.7938 C.3     1  UNL1        0.0785
     26 H           1.5802    0.7352   -3.3039 H       1  UNL1        0.0234
     27 H           0.9928   -0.7525   -2.5579 H       1  UNL1        0.0234
     28 H          -0.0055    0.7130   -2.5264 H       1  UNL1        0.0234
     29 H           3.7043    0.7684   -1.8672 H       1  UNL1        0.0349
     30 H           3.1801   -0.8215   -1.2961 H       1  UNL1        0.0349
     31 H           3.5500    0.8832    2.3480 H       1  UNL1        0.0687
     32 H          -3.7775   -2.9990    0.1017 H       1  UNL1        0.0692
     33 H          -5.7895   -2.2004   -0.8238 H       1  UNL1        0.0660
     34 H          -5.7937   -2.2204    0.9839 H       1  UNL1        0.0660
     35 H          -6.8979   -1.1696    0.0892 H       1  UNL1        0.0660
     36 H           0.3877   -3.8733   -0.8167 H       1  UNL1        0.0660
     37 H           0.3837   -3.9205    1.0139 H       1  UNL1        0.0660
     38 H          -0.1425   -5.2973    0.0600 H       1  UNL1        0.0660
     39 H           2.0800    0.1387    4.0665 H       1  UNL1        0.0660
     40 H           1.9652    1.9192    3.7961 H       1  UNL1        0.0660
     41 H           0.6291    1.0317    4.5458 H       1  UNL1        0.0660
@<TRIPOS>BOND
     1     1     2    1
     2     1    26    1
     3     1    27    1
     4     1    28    1
     5     2     3    1
     6     2     9    1
     7     2     4    1
     8     4     5    1
     9     4    29    1
    10     4    30    1
    11     5     6    2
    12     5     7    1
    13     7     8    2
    14     7    31    1
    15     8    24    1
    16     9     8    1
    17     9    18    1
    18     9    10    1
    19    10    11    2
    20    10    12    1
    21    12    17   ar
    22    12    13   ar
    23    13    14   ar
    24    13    22    1
    25    14    15   ar
    26    14    32    1
    27    15    16   ar
    28    15    20    1
    29    16    17   ar
    30    16    19    1
    31    17    18    1
    32    20    21    1
    33    21    33    1
    34    21    34    1
    35    21    35    1
    36    22    23    1
    37    23    36    1
    38    23    37    1
    39    23    38    1
    40    24    25    1
    41    25    39    1
    42    25    40    1
    43    25    41    1
