@<TRIPOS>MOLECULE
ZINC00402954
 41 45 0 0 0
SMALL
GASTEIGER

@<TRIPOS>ATOM
      1 C           2.8595   -0.6163   -0.5718 C.3     1  UNL1       -0.0428
      2 C           1.3375    0.7368   -1.9907 C.3     1  UNL1       -0.0309
      3 C           0.2614    1.8179   -2.0451 C.3     1  UNL1        0.0015
      4 C          -0.1209    2.4778   -0.7098 C.3     1  UNL1        0.0561
      5 C          -1.0087    1.5529    0.0303 C.ar    1  UNL1        0.0121
      6 C          -0.6363    0.5749    0.9323 C.ar    1  UNL1       -0.0345
      7 C          -1.6638   -0.1996    1.4815 C.ar    1  UNL1       -0.0544
      8 C          -3.0024   -0.0128    1.0747 C.ar    1  UNL1       -0.0162
      9 C          -3.3375    0.9947    0.1641 C.ar    1  UNL1        0.1588
     10 C          -2.3315    1.8089   -0.2988 C.ar    1  UNL1        0.1668
     11 O          -2.4457    2.9300   -1.0868 O.3     1  UNL1       -0.4765
     12 C          -1.1671    3.5955   -0.9108 C.3     1  UNL1        0.1680
     13 H          -0.9578    4.1819   -1.8134 H       1  UNL1        0.0823
     14 C          -1.1820    4.5935    0.2639 C.2     1  UNL1        0.1744
     15 O          -2.2076    5.1067    0.7042 O.2     1  UNL1       -0.2934
     16 C           0.1712    4.9796    0.8190 C.3     1  UNL1        0.0101
     17 C           0.9113    3.7303    1.2765 C.3     1  UNL1       -0.0373
     18 C           1.1451    2.7813    0.0943 C.3     1  UNL1        0.0165
     19 H           1.8581    3.3009   -0.5635 H       1  UNL1        0.0366
     20 C           1.7524    1.4174    0.5097 C.3     1  UNL1       -0.0132
     21 H           2.6666    1.5853    1.0933 H       1  UNL1        0.0857
     22 C           0.7980    0.5117    1.3530 C.3     1  UNL1        0.0162
     23 O          -4.6108    1.1814   -0.2664 O.3     1  UNL1       -0.5033
     24 H           3.4998   -0.5781    0.3118 H       1  UNL1        0.0778
     25 H           2.0555   -1.3488   -0.4469 H       1  UNL1        0.0778
     26 H           3.4513   -0.8551   -1.4593 H       1  UNL1        0.0778
     27 H           2.0045    0.8615   -2.8543 H       1  UNL1        0.0815
     28 H           0.8879   -0.2586   -2.0675 H       1  UNL1        0.0815
     29 H          -0.6193    1.3649   -2.5247 H       1  UNL1        0.0327
     30 H           0.5884    2.5975   -2.7450 H       1  UNL1        0.0327
     31 H          -1.4481   -0.9459    2.2463 H       1  UNL1        0.0622
     32 H          -3.7782   -0.6395    1.5077 H       1  UNL1        0.0655
     33 H           0.0317    5.6598    1.6665 H       1  UNL1        0.0343
     34 H           0.7294    5.5151    0.0440 H       1  UNL1        0.0343
     35 H           0.3308    3.2373    2.0689 H       1  UNL1        0.0274
     36 H           1.8703    4.0092    1.7192 H       1  UNL1        0.0274
     37 H           0.8369    0.8668    2.3883 H       1  UNL1        0.0368
     38 H           1.1355   -0.5282    1.3731 H       1  UNL1        0.0368
     39 H          -5.1659    0.4391    0.0218 H       1  UNL1        0.2923
     40 N           2.2473    0.7525   -0.7827 N.4     1  UNL1        0.2357
     41 H           3.0475    1.3355   -1.0640 H       1  UNL1        0.2033
@<TRIPOS>UNITY_ATOM_ATTR
40 1
charge 1
@<TRIPOS>BOND
     1     1    24    1
     2     1    25    1
     3     1    26    1
     4     1    40    1
     5     2     3    1
     6     2    27    1
     7     2    28    1
     8     2    40    1
     9     3     4    1
    10     3    29    1
    11     3    30    1
    12     4    12    1
    13     4    18    1
    14     4     5    1
    15     5    10   ar
    16     5     6   ar
    17     6    22    1
    18     6     7   ar
    19     7     8   ar
    20     7    31    1
    21     8     9   ar
    22     8    32    1
    23     9    10   ar
    24     9    23    1
    25    10    11    1
    26    11    12    1
    27    12    13    1
    28    12    14    1
    29    14    15    2
    30    14    16    1
    31    16    17    1
    32    16    33    1
    33    16    34    1
    34    17    18    1
    35    17    35    1
    36    17    36    1
    37    18    19    1
    38    18    20    1
    39    20    21    1
    40    20    22    1
    41    20    40    1
    42    22    37    1
    43    22    38    1
    44    23    39    1
    45    40    41    1
