@<TRIPOS>MOLECULE
ZINC01530886
 68 73 0 0 0
SMALL
GASTEIGER

@<TRIPOS>ATOM
      1 C           0.4731   -0.4234    0.0416 C.3     1  UNL1       -0.0649
      2 C           1.4985   -0.3246    1.1636 C.3     1  UNL1       -0.0491
      3 C           0.9632    0.2679    2.4704 C.3     1  UNL1        0.0054
      4 C           0.5199    1.6886    2.3336 C.ar    1  UNL1        0.1111
      5 N           1.2930    2.7434    2.5142 N.ar    1  UNL1       -0.2320
      6 C           0.4980    3.8475    2.3054 C.ar    1  UNL1        0.0922
      7 C           0.7856    5.2235    2.4298 C.ar    1  UNL1       -0.0223
      8 C          -0.2758    6.1384    2.1969 C.ar    1  UNL1       -0.0460
      9 C          -1.5529    5.7244    1.7630 C.ar    1  UNL1        0.0198
     10 C          -1.7521    4.3611    1.5108 C.ar    1  UNL1       -0.0254
     11 C          -0.7644    3.4525    1.8916 C.ar    1  UNL1        0.0700
     12 N          -0.7663    2.0801    2.0204 N.ar    1  UNL1       -0.3231
     13 C          -1.9325    1.2209    1.8491 C.3     1  UNL1        0.0500
     14 C          -3.0584    1.5192    2.8090 C.ar    1  UNL1       -0.0277
     15 C          -2.8994    1.4092    4.1938 C.ar    1  UNL1       -0.0563
     16 C          -3.9669    1.6830    5.0674 C.ar    1  UNL1       -0.0537
     17 C          -5.2171    2.1196    4.6040 C.ar    1  UNL1       -0.0171
     18 C          -5.3517    2.2190    3.2042 C.ar    1  UNL1       -0.0537
     19 C          -4.3115    1.8954    2.3228 C.ar    1  UNL1       -0.0563
     20 C          -6.3812    2.3907    5.5070 C.ar    1  UNL1       -0.0038
     21 C          -7.6735    2.0443    5.0281 C.ar    1  UNL1       -0.0532
     22 C          -8.8361    2.1772    5.7909 C.ar    1  UNL1       -0.0611
     23 C          -8.7503    2.6460    7.0876 C.ar    1  UNL1       -0.0609
     24 C          -7.5080    3.0082    7.5950 C.ar    1  UNL1       -0.0470
     25 C          -6.3164    2.9128    6.8275 C.ar    1  UNL1        0.0708
     26 C          -5.0583    3.4169    7.5086 C.2     1  UNL1        0.3871
     27 O          -4.9486    3.1627    8.7504 O.co2   1  UNL1       -0.2406
     28 O          -4.2337    4.0828    6.8146 O.co2   1  UNL1       -0.2406
     29 C          -2.6502    6.7057    1.6155 C.ar    1  UNL1        0.1417
     30 N          -2.4984    7.9913    1.3271 N.ar    1  UNL1       -0.2275
     31 C          -3.7573    8.5492    1.3261 C.ar    1  UNL1        0.0896
     32 C          -4.1652    9.8718    1.0970 C.ar    1  UNL1       -0.0342
     33 C          -5.5345   10.1801    1.1367 C.ar    1  UNL1       -0.0596
     34 C          -6.4833    9.1912    1.3956 C.ar    1  UNL1       -0.0597
     35 C          -6.0947    7.8716    1.6324 C.ar    1  UNL1       -0.0361
     36 C          -4.7245    7.5893    1.5973 C.ar    1  UNL1        0.0688
     37 N          -3.9982    6.4458    1.8294 N.ar    1  UNL1       -0.3267
     38 C          -4.5933    5.2174    2.2867 C.3     1  UNL1        0.0138
     39 C           2.1393    5.7171    2.8419 C.3     1  UNL1       -0.0376
     40 H          -0.4189   -0.9697    0.3621 H       1  UNL1        0.0230
     41 H           0.9005   -0.9581   -0.8125 H       1  UNL1        0.0230
     42 H           0.1698    0.5672   -0.3123 H       1  UNL1        0.0230
     43 H           1.8718   -1.3343    1.3734 H       1  UNL1        0.0267
     44 H           2.3540    0.2629    0.8104 H       1  UNL1        0.0267
     45 H           0.1679   -0.3652    2.8796 H       1  UNL1        0.0343
     46 H           1.7692    0.2356    3.2148 H       1  UNL1        0.0343
     47 H          -0.1088    7.1999    2.3718 H       1  UNL1        0.0628
     48 H          -2.6744    3.9948    1.0875 H       1  UNL1        0.0646
     49 H          -2.2512    1.3449    0.8068 H       1  UNL1        0.0542
     50 H          -1.6491    0.1754    1.9737 H       1  UNL1        0.0542
     51 H          -1.9427    1.1265    4.6278 H       1  UNL1        0.0621
     52 H          -3.7877    1.5758    6.1363 H       1  UNL1        0.0624
     53 H          -6.2799    2.5858    2.7722 H       1  UNL1        0.0624
     54 H          -4.4876    1.9875    1.2540 H       1  UNL1        0.0621
     55 H          -7.7912    1.6274    4.0316 H       1  UNL1        0.0624
     56 H          -9.7955    1.8935    5.3709 H       1  UNL1        0.0618
     57 H          -9.6369    2.7326    7.7073 H       1  UNL1        0.0618
     58 H          -7.4394    3.3830    8.6180 H       1  UNL1        0.0626
     59 H          -3.4265   10.6377    0.9023 H       1  UNL1        0.0639
     60 H          -5.8598   11.2034    0.9732 H       1  UNL1        0.0618
     61 H          -7.5396    9.4451    1.4290 H       1  UNL1        0.0618
     62 H          -6.8331    7.1064    1.8539 H       1  UNL1        0.0639
     63 H          -4.6298    4.5375    1.4338 H       1  UNL1        0.0456
     64 H          -4.0082    4.8255    3.1208 H       1  UNL1        0.0456
     65 H          -5.6184    5.3805    2.6238 H       1  UNL1        0.0456
     66 H           2.3920    5.3473    3.8406 H       1  UNL1        0.0278
     67 H           2.8945    5.3621    2.1311 H       1  UNL1        0.0278
     68 H           2.1852    6.8110    2.8600 H       1  UNL1        0.0278
@<TRIPOS>BOND
     1     1     2    1
     2     1    40    1
     3     1    41    1
     4     1    42    1
     5     2     3    1
     6     2    43    1
     7     2    44    1
     8     3     4    1
     9     3    45    1
    10     3    46    1
    11     4    12   ar
    12     4     5   ar
    13     5     6   ar
    14     6    11   ar
    15     6     7   ar
    16     7     8   ar
    17     7    39    1
    18     8     9   ar
    19     8    47    1
    20     9    10   ar
    21     9    29    1
    22    10    11   ar
    23    10    48    1
    24    11    12   ar
    25    12    13    1
    26    13    14    1
    27    13    49    1
    28    13    50    1
    29    14    19   ar
    30    14    15   ar
    31    15    16   ar
    32    15    51    1
    33    16    17   ar
    34    16    52    1
    35    17    18   ar
    36    17    20    1
    37    18    19   ar
    38    18    53    1
    39    19    54    1
    40    20    25   ar
    41    20    21   ar
    42    21    22   ar
    43    21    55    1
    44    22    23   ar
    45    22    56    1
    46    23    24   ar
    47    23    57    1
    48    24    25   ar
    49    24    58    1
    50    25    26    1
    51    26    27   ar
    52    26    28   ar
    53    29    37   ar
    54    29    30   ar
    55    30    31   ar
    56    31    36   ar
    57    31    32   ar
    58    32    33   ar
    59    32    59    1
    60    33    34   ar
    61    33    60    1
    62    34    35   ar
    63    34    61    1
    64    35    36   ar
    65    35    62    1
    66    36    37   ar
    67    37    38    1
    68    38    63    1
    69    38    64    1
    70    38    65    1
    71    39    66    1
    72    39    67    1
    73    39    68    1
