@<TRIPOS>MOLECULE
ZINC01530862
 41 42 0 0 0
SMALL
GASTEIGER

@<TRIPOS>ATOM
      1 C          -0.6480   -0.4986    0.1953 C.3     1  UNL1       -0.0467
      2 C           0.5780   -1.0941    0.8921 C.3     1  UNL1        0.0181
      3 H           1.4025   -0.3710    0.8706 H       1  UNL1        0.0495
      4 C           0.2542   -1.3804    2.3816 C.3     1  UNL1       -0.0300
      5 C          -0.9833   -2.2546    2.6761 C.3     1  UNL1       -0.0110
      6 C          -1.0236   -3.6519    2.0625 C.3     1  UNL1       -0.0353
      7 N           0.0981   -4.4921    2.5439 N.4     1  UNL1        0.2185
      8 N           1.0134   -2.3576    0.2922 N.pl3   1  UNL1       -0.3395
      9 C           1.8607   -2.4203   -0.8510 C.ar    1  UNL1        0.0571
     10 C           1.9130   -1.4206   -1.8303 C.ar    1  UNL1        0.0030
     11 C           2.6842   -1.5838   -2.9789 C.ar    1  UNL1        0.1225
     12 C           3.4024   -2.7646   -3.1549 C.ar    1  UNL1       -0.0107
     13 C           3.3675   -3.7763   -2.1885 C.ar    1  UNL1        0.0056
     14 C           2.5947   -3.6229   -1.0201 C.ar    1  UNL1        0.0919
     15 N           2.5652   -4.5761   -0.0430 N.ar    1  UNL1       -0.2531
     16 C           3.3149   -5.6907   -0.2391 C.ar    1  UNL1        0.0283
     17 C           4.0840   -5.9264   -1.3635 C.ar    1  UNL1       -0.0430
     18 C           4.1059   -4.9554   -2.3530 C.ar    1  UNL1       -0.0510
     19 O           2.8203   -0.6783   -3.9921 O.3     1  UNL1       -0.4950
     20 C           2.1037    0.5453   -3.8726 C.3     1  UNL1        0.0788
     21 H          -1.0756    0.3103    0.7993 H       1  UNL1        0.0247
     22 H          -1.4282   -1.2460    0.0205 H       1  UNL1        0.0247
     23 H          -0.4057   -0.0594   -0.7743 H       1  UNL1        0.0247
     24 H           1.1327   -1.8250    2.8655 H       1  UNL1        0.0285
     25 H           0.0977   -0.4163    2.8836 H       1  UNL1        0.0285
     26 H          -1.0739   -2.3476    3.7658 H       1  UNL1        0.0317
     27 H          -1.8824   -1.7167    2.3516 H       1  UNL1        0.0317
     28 H          -1.9379   -4.1738    2.3636 H       1  UNL1        0.0813
     29 H          -0.9918   -3.6454    0.9714 H       1  UNL1        0.0813
     30 H          -0.0753   -4.8750    3.4802 H       1  UNL1        0.1994
     31 H           0.2400   -5.2796    1.8963 H       1  UNL1        0.1994
     32 H           1.5407   -2.9444    0.9388 H       1  UNL1        0.1464
     33 H           1.3638   -0.5031   -1.6899 H       1  UNL1        0.0673
     34 H           4.0016   -2.8834   -4.0553 H       1  UNL1        0.0661
     35 H           3.2931   -6.4223    0.5633 H       1  UNL1        0.0830
     36 H           4.6617   -6.8390   -1.4673 H       1  UNL1        0.0633
     37 H           4.7076   -5.1155   -3.2459 H       1  UNL1        0.0625
     38 H           1.0270    0.3682   -3.7790 H       1  UNL1        0.0660
     39 H           2.4809    1.1368   -3.0315 H       1  UNL1        0.0660
     40 H           2.2660    1.1207   -4.7886 H       1  UNL1        0.0660
     41 H           0.9959   -3.9979    2.5665 H       1  UNL1        0.1994
@<TRIPOS>UNITY_ATOM_ATTR
7 1
charge 1
@<TRIPOS>BOND
     1     1     2    1
     2     1    21    1
     3     1    22    1
     4     1    23    1
     5     2     3    1
     6     2     4    1
     7     2     8    1
     8     4     5    1
     9     4    24    1
    10     4    25    1
    11     5     6    1
    12     5    26    1
    13     5    27    1
    14     6     7    1
    15     6    28    1
    16     6    29    1
    17     7    30    1
    18     7    31    1
    19     7    41    1
    20     8     9    1
    21     8    32    1
    22     9    14   ar
    23     9    10   ar
    24    10    11   ar
    25    10    33    1
    26    11    12   ar
    27    11    19    1
    28    12    13   ar
    29    12    34    1
    30    13    18   ar
    31    13    14   ar
    32    14    15   ar
    33    15    16   ar
    34    16    17   ar
    35    16    35    1
    36    17    18   ar
    37    17    36    1
    38    18    37    1
    39    19    20    1
    40    20    38    1
    41    20    39    1
    42    20    40    1
