@<TRIPOS>MOLECULE
ZINC00033882
 23 23 0 0 0
SMALL
GASTEIGER

@<TRIPOS>ATOM
      1 C          -1.8447    0.7805   -0.1957 C.ar    1  UNL1       -0.0547
      2 C          -0.6117    1.4317   -0.1521 C.ar    1  UNL1       -0.0163
      3 C           0.5464    0.6837   -0.0126 C.ar    1  UNL1        0.1582
      4 C           0.4925   -0.7022    0.0712 C.ar    1  UNL1        0.1585
      5 C          -0.7330   -1.3628    0.0563 C.ar    1  UNL1       -0.0132
      6 C          -1.9205   -0.6192   -0.0696 C.ar    1  UNL1       -0.0387
      7 C          -3.2618   -1.3136   -0.0769 C.3     1  UNL1        0.0127
      8 C          -3.8832   -1.4754    1.3124 C.3     1  UNL1       -0.0313
      9 N          -4.1200   -0.1611    1.9672 N.4     1  UNL1        0.2188
     10 O           1.6781   -1.3757    0.1644 O.3     1  UNL1       -0.5033
     11 O           1.7474    1.3310    0.0216 O.3     1  UNL1       -0.5033
     12 H          -2.7360    1.3826   -0.3581 H       1  UNL1        0.0621
     13 H          -0.5454    2.5124   -0.2496 H       1  UNL1        0.0655
     14 H          -0.7640   -2.4466    0.1213 H       1  UNL1        0.0658
     15 H          -3.9501   -0.7656   -0.7351 H       1  UNL1        0.0365
     16 H          -3.1461   -2.3070   -0.5293 H       1  UNL1        0.0365
     17 H          -4.8598   -1.9638    1.2401 H       1  UNL1        0.0816
     18 H          -3.2427   -2.0490    1.9887 H       1  UNL1        0.0816
     19 H          -4.6479    0.4839    1.3656 H       1  UNL1        0.1994
     20 H          -4.6449   -0.2670    2.8447 H       1  UNL1        0.1994
     21 H           1.5250   -2.3241    0.0189 H       1  UNL1        0.2923
     22 H           2.4219    0.6235    0.0774 H       1  UNL1        0.2923
     23 H          -3.2261    0.2970    2.2009 H       1  UNL1        0.1994
@<TRIPOS>UNITY_ATOM_ATTR
9 1
charge 1
@<TRIPOS>BOND
     1     1     6   ar
     2     1     2   ar
     3     1    12    1
     4     2     3   ar
     5     2    13    1
     6     3     4   ar
     7     3    11    1
     8     4     5   ar
     9     4    10    1
    10     5     6   ar
    11     5    14    1
    12     6     7    1
    13     7     8    1
    14     7    15    1
    15     7    16    1
    16     8     9    1
    17     8    17    1
    18     8    18    1
    19     9    19    1
    20     9    20    1
    21     9    23    1
    22    10    21    1
    23    11    22    1
