@<TRIPOS>MOLECULE
ZINC00538362
 50 53 0 0 0
SMALL
GASTEIGER

@<TRIPOS>ATOM
      1 C          -1.7964   -1.5797    0.5327 C.3     1  UNL1       -0.0202
      2 C          -0.6971   -0.5386    0.6789 C.3     1  UNL1       -0.0092
      3 H          -0.3598   -0.4799    1.7195 H       1  UNL1        0.0863
      4 C          -1.1559    0.8387    0.1593 C.3     1  UNL1        0.0552
      5 N          -0.0284    1.7717    0.1249 N.pl3   1  UNL1       -0.3147
      6 C           1.1870    1.3751   -0.5898 C.3     1  UNL1        0.0552
      7 C           1.6626   -0.0100   -0.0854 C.3     1  UNL1       -0.0092
      8 H           1.9694    0.0507    0.9655 H       1  UNL1        0.0863
      9 N           0.5095   -1.0044   -0.1285 N.4     1  UNL1        0.2332
     10 C           2.7946   -0.5658   -0.9355 C.3     1  UNL1       -0.0202
     11 C          -0.0398    2.9259    0.9039 C.ar    1  UNL1        0.1053
     12 C          -0.7086    2.9874    2.1359 C.ar    1  UNL1        0.1684
     13 C          -0.7562    4.1451    2.9185 C.ar    1  UNL1        0.0752
     14 C          -0.1100    5.3119    2.4330 C.ar    1  UNL1        0.0723
     15 C           0.5647    5.3137    1.1892 C.ar    1  UNL1        0.0925
     16 C           0.6180    4.0991    0.4821 C.ar    1  UNL1        0.1713
     17 F           1.2961    4.0395   -0.6759 F       1  UNL1       -0.2013
     18 N           1.1509    6.5234    0.6999 N.ar    1  UNL1       -0.3403
     19 C           1.0459    7.6615    1.4677 C.ar    1  UNL1        0.0234
     20 C           0.4441    7.7880    2.6596 C.ar    1  UNL1        0.1264
     21 C          -0.2104    6.5835    3.2159 C.ar    1  UNL1        0.2055
     22 O          -0.8780    6.5816    4.2420 O.2     1  UNL1       -0.2862
     23 C           0.4335    9.1572    3.3537 C.2     1  UNL1        0.3916
     24 O           0.6612   10.1441    2.5761 O.co2   1  UNL1       -0.2404
     25 O           0.2499    9.1791    4.5913 O.co2   1  UNL1       -0.2404
     26 C           1.7142    6.6196   -0.6741 C.3     1  UNL1        0.0348
     27 C           2.6537    7.6799   -1.1955 C.3     1  UNL1       -0.0302
     28 C           3.1773    6.3085   -0.9048 C.3     1  UNL1       -0.0302
     29 N          -1.2281    4.0328    4.2464 N.pl3   1  UNL1       -0.3551
     30 F          -1.2909    1.8743    2.6209 F       1  UNL1       -0.2015
     31 H          -2.0946   -1.7045   -0.5142 H       1  UNL1        0.0285
     32 H          -1.4672   -2.5532    0.9092 H       1  UNL1        0.0285
     33 H          -2.6841   -1.2820    1.1010 H       1  UNL1        0.0285
     34 H          -1.5442    0.7424   -0.8637 H       1  UNL1        0.0519
     35 H          -2.0006    1.2071    0.7462 H       1  UNL1        0.0519
     36 H           0.9690    1.3418   -1.6647 H       1  UNL1        0.0519
     37 H           2.0125    2.0771   -0.4489 H       1  UNL1        0.0519
     38 H           0.8296   -1.9083    0.2372 H       1  UNL1        0.2020
     39 H           3.1167   -1.5436   -0.5628 H       1  UNL1        0.0285
     40 H           2.4891   -0.6873   -1.9803 H       1  UNL1        0.0285
     41 H           3.6609    0.1036   -0.9122 H       1  UNL1        0.0285
     42 H           1.5200    8.5411    1.0379 H       1  UNL1        0.0819
     43 H           0.9900    6.3122   -1.4276 H       1  UNL1        0.0528
     44 H           2.5397    7.9699   -2.2338 H       1  UNL1        0.0286
     45 H           2.9718    8.4970   -0.5600 H       1  UNL1        0.0286
     46 H           3.8229    6.2025   -0.0384 H       1  UNL1        0.0286
     47 H           3.4412    5.6757   -1.7402 H       1  UNL1        0.0286
     48 H          -1.4096    4.9681    4.6512 H       1  UNL1        0.1424
     49 H          -1.9920    3.3856    4.3935 H       1  UNL1        0.1424
     50 H           0.2259   -1.1459   -1.1054 H       1  UNL1        0.2020
@<TRIPOS>UNITY_ATOM_ATTR
9 1
charge 1
@<TRIPOS>BOND
     1     1     2    1
     2     1    31    1
     3     1    32    1
     4     1    33    1
     5     2     3    1
     6     2     9    1
     7     2     4    1
     8     4     5    1
     9     4    34    1
    10     4    35    1
    11     5     6    1
    12     5    11    1
    13     6     7    1
    14     6    36    1
    15     6    37    1
    16     7     8    1
    17     7     9    1
    18     7    10    1
    19     9    38    1
    20     9    50    1
    21    10    39    1
    22    10    40    1
    23    10    41    1
    24    11    16   ar
    25    11    12   ar
    26    12    13   ar
    27    12    30    1
    28    13    14   ar
    29    13    29    1
    30    14    21   ar
    31    14    15   ar
    32    15    16   ar
    33    15    18   ar
    34    16    17    1
    35    18    19   ar
    36    18    26    1
    37    19    20   ar
    38    19    42    1
    39    20    21   ar
    40    20    23    1
    41    21    22    2
    42    23    24   ar
    43    23    25   ar
    44    26    28    1
    45    26    27    1
    46    26    43    1
    47    27    28    1
    48    27    44    1
    49    27    45    1
    50    28    46    1
    51    28    47    1
    52    29    48    1
    53    29    49    1
