@<TRIPOS>MOLECULE
ZINC00896569
 25 26 0 0 0
SMALL
GASTEIGER

@<TRIPOS>ATOM
      1 C           1.6214    0.9676   -0.1571 C.ar    1  UNL1       -0.0187
      2 C           0.2229    0.8969   -0.1027 C.ar    1  UNL1        0.0563
      3 C          -0.3502   -0.3754   -0.0417 C.ar    1  UNL1        0.1280
      4 C           0.4193   -1.5454   -0.0120 C.ar    1  UNL1       -0.0057
      5 C           1.8138   -1.4445   -0.0387 C.ar    1  UNL1        0.1252
      6 C           2.4201   -0.1868   -0.1026 C.ar    1  UNL1        0.0691
      7 CL          4.1303    0.0637   -0.1372 Cl      1  UNL1       -0.0815
      8 S           2.7790   -2.9199    0.0595 S.O2    1  UNL1        0.0574
      9 O           3.7254   -2.7928    1.1410 O.2     1  UNL1       -0.1532
     10 O           1.9016   -4.0596   -0.0517 O.2     1  UNL1       -0.1532
     11 N           3.6535   -2.9002   -1.3742 N.3     1  UNL1       -0.2035
     12 S          -2.1057   -0.5116   -0.0085 S.O2    1  UNL1        0.0616
     13 O          -2.4910   -0.6755    1.3757 O.2     1  UNL1       -0.1529
     14 O          -2.5011   -1.4377   -1.0418 O.2     1  UNL1       -0.1529
     15 N          -2.5887    1.0063   -0.5141 N.3     1  UNL1       -0.1728
     16 C          -1.8968    2.0607    0.1708 C.3     1  UNL1        0.0798
     17 N          -0.5223    2.0701   -0.2715 N.pl3   1  UNL1       -0.3284
     18 H           2.1057    1.9395   -0.2388 H       1  UNL1        0.0652
     19 H          -0.0732   -2.5165    0.0350 H       1  UNL1        0.0658
     20 H           4.6004   -2.5546   -1.2109 H       1  UNL1        0.1442
     21 H           3.6267   -3.8288   -1.7995 H       1  UNL1        0.1442
     22 H          -2.5844    1.0816   -1.5279 H       1  UNL1        0.1498
     23 H          -1.9731    1.9781    1.2607 H       1  UNL1        0.0644
     24 H          -2.3595    3.0140   -0.1059 H       1  UNL1        0.0644
     25 H          -0.0254    2.9037    0.0371 H       1  UNL1        0.1474
@<TRIPOS>BOND
     1     1     6   ar
     2     1     2   ar
     3     1    18    1
     4     2    17    1
     5     2     3   ar
     6     3     4   ar
     7     3    12    1
     8     4     5   ar
     9     4    19    1
    10     5     6   ar
    11     5     8    1
    12     6     7    1
    13     8     9    2
    14     8    10    2
    15     8    11    1
    16    11    20    1
    17    11    21    1
    18    12    13    2
    19    12    14    2
    20    12    15    1
    21    15    16    1
    22    15    22    1
    23    16    17    1
    24    16    23    1
    25    16    24    1
    26    17    25    1
