@<TRIPOS>MOLECULE
ZINC01481956
 59 63 0 0 0
SMALL
GASTEIGER

@<TRIPOS>ATOM
      1 C          -5.9508   -3.1790   -2.7072 C.3     1  UNL1       -0.0219
      2 C          -5.2722   -2.0300   -3.4094 C.ar    1  UNL1        0.0488
      3 C          -4.0340   -1.6044   -3.0996 C.ar    1  UNL1        0.0431
      4 C          -3.5024   -0.4696   -3.9019 C.ar    1  UNL1        0.2577
      5 O          -2.3398   -0.1156   -3.7034 O.2     1  UNL1       -0.2673
      6 N          -4.3748    0.1356   -4.7875 N.ar    1  UNL1       -0.2944
      7 C          -5.6540   -0.3497   -4.9361 C.ar    1  UNL1        0.1413
      8 N          -6.0778   -1.4118   -4.3255 N.ar    1  UNL1       -0.2357
      9 C          -6.6357    0.3699   -5.8840 C.3     1  UNL1        0.1129
     10 H          -7.6313    0.3285   -5.4241 H       1  UNL1        0.0674
     11 C          -6.2592    1.8176   -6.1491 C.3     1  UNL1       -0.0182
     12 C          -4.7985    1.8718   -6.5634 C.3     1  UNL1       -0.0321
     13 C          -3.9312    1.3779   -5.4164 C.3     1  UNL1        0.0279
     14 O          -6.7030   -0.3172   -7.1285 O.3     1  UNL1       -0.3841
     15 C          -3.2133   -2.0436   -1.9058 C.3     1  UNL1        0.0195
     16 C          -1.9130   -2.8224   -2.1685 C.3     1  UNL1       -0.0276
     17 C           0.2291   -3.7278   -1.0861 C.3     1  UNL1       -0.0313
     18 C           0.0778   -5.2472   -1.0736 C.3     1  UNL1       -0.0040
     19 C          -0.6734   -5.7977    0.1455 C.3     1  UNL1        0.0148
     20 C          -1.9971   -5.0419    0.3209 C.3     1  UNL1       -0.0040
     21 C          -1.8124   -3.5316    0.3608 C.3     1  UNL1       -0.0313
     22 C           0.1331   -5.8247    1.4196 C.ar    1  UNL1        0.0948
     23 C           0.3339   -6.9114    2.3172 C.ar    1  UNL1        0.0447
     24 C          -0.0038   -8.2786    2.3764 C.ar    1  UNL1       -0.0464
     25 C           0.3648   -9.0018    3.5226 C.ar    1  UNL1       -0.0256
     26 C           1.0429   -8.3812    4.5706 C.ar    1  UNL1        0.1270
     27 C           1.3986   -7.0344    4.5286 C.ar    1  UNL1        0.0192
     28 C           1.0253   -6.3500    3.3759 C.ar    1  UNL1        0.1702
     29 O           1.2561   -5.0398    3.1042 O.2     1  UNL1       -0.3543
     30 N           0.7037   -4.7053    1.8850 N.ar    1  UNL1       -0.0818
     31 F           1.3578   -9.1019    5.6562 F       1  UNL1       -0.2054
     32 H          -7.0037   -3.2576   -3.0020 H       1  UNL1        0.0293
     33 H          -5.9379   -3.0559   -1.6208 H       1  UNL1        0.0293
     34 H          -5.4648   -4.1235   -2.9732 H       1  UNL1        0.0293
     35 H          -6.4165    2.4263   -5.2508 H       1  UNL1        0.0295
     36 H          -6.8802    2.2342   -6.9508 H       1  UNL1        0.0295
     37 H          -4.6338    1.2520   -7.4533 H       1  UNL1        0.0283
     38 H          -4.5177    2.8965   -6.8317 H       1  UNL1        0.0283
     39 H          -2.8971    1.2602   -5.7598 H       1  UNL1        0.0493
     40 H          -3.9153    2.1362   -4.6227 H       1  UNL1        0.0493
     41 H          -7.5517   -0.0760   -7.5416 H       1  UNL1        0.2104
     42 H          -2.9762   -1.1449   -1.3187 H       1  UNL1        0.0367
     43 H          -3.8459   -2.6517   -1.2556 H       1  UNL1        0.0367
     44 H          -2.1058   -3.8127   -2.5888 H       1  UNL1        0.0818
     45 H          -1.2504   -2.2651   -2.8400 H       1  UNL1        0.0818
     46 H           0.9029   -3.3786   -0.2985 H       1  UNL1        0.0815
     47 H           0.6368   -3.3832   -2.0423 H       1  UNL1        0.0815
     48 H           1.0688   -5.7120   -1.1490 H       1  UNL1        0.0323
     49 H          -0.4697   -5.5482   -1.9766 H       1  UNL1        0.0323
     50 H          -0.9247   -6.8431   -0.0820 H       1  UNL1        0.0369
     51 H          -2.6700   -5.3021   -0.5057 H       1  UNL1        0.0323
     52 H          -2.4971   -5.3671    1.2423 H       1  UNL1        0.0323
     53 H          -2.7710   -3.0186    0.4542 H       1  UNL1        0.0815
     54 H          -1.2172   -3.2118    1.2208 H       1  UNL1        0.0815
     55 H          -0.5355   -8.7756    1.5709 H       1  UNL1        0.0626
     56 H           0.1207  -10.0581    3.6074 H       1  UNL1        0.0646
     57 H           1.9224   -6.5574    5.3482 H       1  UNL1        0.0684
     58 N          -1.0978   -3.0192   -0.8708 N.4     1  UNL1        0.2355
     59 H          -0.8194   -2.0587   -0.6185 H       1  UNL1        0.2033
@<TRIPOS>UNITY_ATOM_ATTR
58 1
charge 1
@<TRIPOS>BOND
     1     1     2    1
     2     1    32    1
     3     1    33    1
     4     1    34    1
     5     2     8   ar
     6     2     3   ar
     7     3     4   ar
     8     3    15    1
     9     4     5    2
    10     4     6   ar
    11     6    13    1
    12     6     7   ar
    13     7     8   ar
    14     7     9    1
    15     9    10    1
    16     9    11    1
    17     9    14    1
    18    11    12    1
    19    11    35    1
    20    11    36    1
    21    12    13    1
    22    12    37    1
    23    12    38    1
    24    13    39    1
    25    13    40    1
    26    14    41    1
    27    15    16    1
    28    15    42    1
    29    15    43    1
    30    16    44    1
    31    16    45    1
    32    17    18    1
    33    17    46    1
    34    17    47    1
    35    17    58    1
    36    18    19    1
    37    18    48    1
    38    18    49    1
    39    19    20    1
    40    20    21    1
    41    20    51    1
    42    20    52    1
    43    21    53    1
    44    21    54    1
    45    21    58    1
    46    22    30   ar
    47    22    23   ar
    48    23    28   ar
    49    23    24   ar
    50    24    25   ar
    51    24    55    1
    52    25    26   ar
    53    25    56    1
    54    26    27   ar
    55    26    31    1
    56    27    28   ar
    57    27    57    1
    58    28    29   ar
    59    29    30   ar
    60    19    50    1
    61    19    22    1
    62    58    59    1
    63    58    16    1
