@<TRIPOS>MOLECULE
ZINC00895302
 16 16 0 0 0
SMALL
GASTEIGER

@<TRIPOS>ATOM
      1 C           1.3711   -0.2184    0.0440 C.ar    1  UNL1       -0.0617
      2 C           0.8798    1.0859    0.0231 C.ar    1  UNL1       -0.0614
      3 C          -0.4957    1.3159   -0.0372 C.ar    1  UNL1       -0.0564
      4 C          -1.3932    0.2401   -0.0798 C.ar    1  UNL1       -0.0222
      5 C          -0.8873   -1.0678   -0.0578 C.ar    1  UNL1       -0.0564
      6 C           0.4879   -1.2957    0.0031 C.ar    1  UNL1       -0.0614
      7 C          -2.8783    0.4752   -0.1496 C.3     1  UNL1        0.0692
      8 O          -3.4127   -0.0520   -1.3571 O.3     1  UNL1       -0.3904
      9 H           2.4425   -0.3952    0.0930 H       1  UNL1        0.0618
     10 H           1.5700    1.9257    0.0579 H       1  UNL1        0.0618
     11 H          -0.8610    2.3400   -0.0508 H       1  UNL1        0.0621
     12 H          -1.5695   -1.9159   -0.0891 H       1  UNL1        0.0621
     13 H           0.8699   -2.3131    0.0209 H       1  UNL1        0.0618
     14 H          -3.3805    0.0009    0.6997 H       1  UNL1        0.0607
     15 H          -3.1111    1.5447   -0.1218 H       1  UNL1        0.0607
     16 H          -2.7096   -0.0003   -2.0277 H       1  UNL1        0.2098
@<TRIPOS>BOND
     1     1     6   ar
     2     1     2   ar
     3     1     9    1
     4     2     3   ar
     5     2    10    1
     6     3     4   ar
     7     3    11    1
     8     4     5   ar
     9     4     7    1
    10     5     6   ar
    11     5    12    1
    12     6    13    1
    13     7     8    1
    14     7    14    1
    15     7    15    1
    16     8    16    1
