@<TRIPOS>MOLECULE
ZINC00537811
 36 38 0 0 0
SMALL
GASTEIGER

@<TRIPOS>ATOM
      1 C           0.8442   -0.3689    0.0086 C.ar    1  UNL1       -0.0617
      2 C           0.3385   -1.5828    0.4384 C.ar    1  UNL1       -0.0611
      3 C          -1.0331   -1.8611    0.2785 C.ar    1  UNL1       -0.0526
      4 C          -1.9132   -0.9222   -0.2551 C.ar    1  UNL1        0.0006
      5 C          -1.3804    0.2854   -0.7142 C.ar    1  UNL1       -0.0526
      6 C          -0.0126    0.5575   -0.5862 C.ar    1  UNL1       -0.0611
      7 C          -3.4267   -1.0483   -0.1491 C.2     1  UNL1        0.0750
      8 N          -4.1594   -0.2617   -0.8777 N.2     1  UNL1       -0.2734
      9 C          -5.5570   -0.1243   -0.4635 C.3     1  UNL1        0.1170
     10 C          -5.7399    0.5614    0.9132 C.2     1  UNL1        0.2415
     11 O          -6.7098    1.3193    1.0580 O.2     1  UNL1       -0.2732
     12 N          -4.9034    0.2803    2.0186 N.am    1  UNL1       -0.2607
     13 C          -4.0477   -0.8675    2.0902 C.ar    1  UNL1        0.0459
     14 C          -4.0095   -1.7486    1.0236 C.ar    1  UNL1        0.0233
     15 C          -3.8522   -3.1126    1.2262 C.ar    1  UNL1       -0.0324
     16 C          -3.2880   -3.5121    2.4300 C.ar    1  UNL1        0.0417
     17 C          -2.8686   -2.5487    3.3499 C.ar    1  UNL1       -0.0416
     18 C          -3.3018   -1.2267    3.2089 C.ar    1  UNL1       -0.0382
     19 CL         -2.9736   -5.1733    2.7215 Cl      1  UNL1       -0.0835
     20 C          -5.3928    0.8173    3.3065 C.3     1  UNL1        0.1150
     21 C          -6.4852   -0.0484    3.9663 C.3     1  UNL1        0.4056
     22 F          -6.7292   -1.1959    3.2910 F       1  UNL1       -0.1689
     23 F          -6.1006   -0.4066    5.2168 F       1  UNL1       -0.1689
     24 F          -7.6578    0.6121    4.0831 F       1  UNL1       -0.1689
     25 H           1.9018   -0.1436    0.1346 H       1  UNL1        0.0618
     26 H           0.9895   -2.3160    0.9031 H       1  UNL1        0.0618
     27 H          -1.3784   -2.8135    0.6430 H       1  UNL1        0.0624
     28 H          -2.0331    1.0483   -1.1317 H       1  UNL1        0.0624
     29 H           0.3816    1.5113   -0.9245 H       1  UNL1        0.0618
     30 H          -6.0384    0.5287   -1.2044 H       1  UNL1        0.0605
     31 H          -6.0954   -1.0787   -0.4894 H       1  UNL1        0.0605
     32 H          -4.1056   -3.8243    0.4476 H       1  UNL1        0.0639
     33 H          -2.2368   -2.8246    4.1900 H       1  UNL1        0.0633
     34 H          -3.0220   -0.5008    3.9659 H       1  UNL1        0.0637
     35 H          -4.5530    0.9606    3.9900 H       1  UNL1        0.0557
     36 H          -5.7953    1.8239    3.1451 H       1  UNL1        0.0557
@<TRIPOS>BOND
     1     1     6   ar
     2     1     2   ar
     3     1    25    1
     4     2     3   ar
     5     2    26    1
     6     3     4   ar
     7     3    27    1
     8     4     5   ar
     9     4     7    1
    10     5     6   ar
    11     5    28    1
    12     6    29    1
    13     7    14    1
    14     7     8    2
    15     8     9    1
    16     9    10    1
    17     9    30    1
    18     9    31    1
    19    10    11    2
    20    10    12   am
    21    12    13    1
    22    12    20    1
    23    13    18   ar
    24    13    14   ar
    25    14    15   ar
    26    15    16   ar
    27    15    32    1
    28    16    17   ar
    29    16    19    1
    30    17    18   ar
    31    17    33    1
    32    18    34    1
    33    20    21    1
    34    20    35    1
    35    20    36    1
    36    21    22    1
    37    21    23    1
    38    21    24    1
