@<TRIPOS>MOLECULE
ZINC00011012
 31 33 0 0 0
SMALL
GASTEIGER

@<TRIPOS>ATOM
      1 C          -3.8124    4.3503   -1.6269 C.ar    1  UNL1       -0.0617
      2 C          -2.4915    3.9215   -1.4969 C.ar    1  UNL1       -0.0611
      3 C          -2.2161    2.6427   -1.0058 C.ar    1  UNL1       -0.0509
      4 C          -3.2648    1.7842   -0.6491 C.ar    1  UNL1        0.0237
      5 C          -4.5880    2.2285   -0.7676 C.ar    1  UNL1       -0.0509
      6 C          -4.8599    3.5054   -1.2628 C.ar    1  UNL1       -0.0611
      7 C          -2.9403    0.4460   -0.0706 C.2     1  UNL1        0.2093
      8 O          -1.9150    0.3602    0.6043 O.2     1  UNL1       -0.2851
      9 C          -3.8457   -0.6662   -0.2899 C.ar    1  UNL1        0.0899
     10 C          -4.6826   -0.9603   -1.3700 C.ar    1  UNL1       -0.0327
     11 C          -5.3945   -2.1658   -1.0982 C.ar    1  UNL1       -0.0395
     12 C          -4.9593   -2.5831    0.1273 C.ar    1  UNL1        0.0333
     13 N          -4.0138   -1.7075    0.5684 N.ar    1  UNL1       -0.3405
     14 C          -3.4839   -2.0554    1.8755 C.3     1  UNL1        0.0248
     15 C          -4.5045   -3.0916    2.3813 C.3     1  UNL1       -0.0164
     16 C          -5.1774   -3.6856    1.1136 C.3     1  UNL1        0.1023
     17 H          -6.2451   -3.8448    1.3026 H       1  UNL1        0.0479
     18 C          -4.5422   -5.0135    0.6377 C.2     1  UNL1        0.3648
     19 O          -5.3000   -5.7426   -0.0692 O.co2   1  UNL1       -0.2456
     20 O          -3.3676   -5.2503    1.0448 O.co2   1  UNL1       -0.2456
     21 H          -4.0264    5.3473   -2.0028 H       1  UNL1        0.0618
     22 H          -1.6743    4.5846   -1.7690 H       1  UNL1        0.0618
     23 H          -1.1841    2.3172   -0.8946 H       1  UNL1        0.0625
     24 H          -5.4176    1.5949   -0.4584 H       1  UNL1        0.0625
     25 H          -5.8898    3.8415   -1.3525 H       1  UNL1        0.0618
     26 H          -4.7718   -0.3718   -2.2738 H       1  UNL1        0.0640
     27 H          -6.1160   -2.6722   -1.7251 H       1  UNL1        0.0636
     28 H          -3.4550   -1.1629    2.5057 H       1  UNL1        0.0492
     29 H          -2.4856   -2.4766    1.7324 H       1  UNL1        0.0492
     30 H          -4.0409   -3.8369    3.0356 H       1  UNL1        0.0294
     31 H          -5.2688   -2.5759    2.9788 H       1  UNL1        0.0294
@<TRIPOS>BOND
     1     1     6   ar
     2     1     2   ar
     3     1    21    1
     4     2     3   ar
     5     2    22    1
     6     3     4   ar
     7     3    23    1
     8     4     5   ar
     9     4     7    1
    10     5     6   ar
    11     5    24    1
    12     6    25    1
    13     7     8    2
    14     7     9    1
    15     9    13   ar
    16     9    10   ar
    17    10    11   ar
    18    10    26    1
    19    11    12   ar
    20    11    27    1
    21    12    16    1
    22    12    13   ar
    23    13    14    1
    24    14    15    1
    25    14    28    1
    26    14    29    1
    27    15    16    1
    28    15    30    1
    29    15    31    1
    30    18    19   ar
    31    18    20   ar
    32    16    18    1
    33    16    17    1
