@<TRIPOS>MOLECULE
ZINC00538312
 58 62 0 0 0
SMALL
GASTEIGER

@<TRIPOS>ATOM
      1 C           3.9207   -1.1348   -2.7699 C.3     1  UNL1       -0.0219
      2 C           2.4350   -1.1964   -3.0221 C.ar    1  UNL1        0.0487
      3 C           1.5180   -1.5873   -2.1186 C.ar    1  UNL1        0.0431
      4 C           0.1027   -1.5461   -2.5665 C.ar    1  UNL1        0.2576
      5 O          -0.7405   -2.1713   -1.9229 O.2     1  UNL1       -0.2673
      6 N          -0.1668   -0.7743   -3.6735 N.ar    1  UNL1       -0.2964
      7 C           0.8598   -0.4561   -4.5247 C.ar    1  UNL1        0.1125
      8 N           2.1032   -0.7066   -4.2595 N.ar    1  UNL1       -0.2384
      9 C           0.5555    0.3152   -5.7984 C.3     1  UNL1        0.0058
     10 C          -0.8767    0.1855   -6.2762 C.3     1  UNL1       -0.0446
     11 C          -1.8130    0.4417   -5.1091 C.3     1  UNL1       -0.0344
     12 C          -1.5681   -0.6021   -4.0343 C.3     1  UNL1        0.0278
     13 C           1.7113   -1.8945   -0.6545 C.3     1  UNL1        0.0195
     14 C           1.3839   -3.3317   -0.1992 C.3     1  UNL1       -0.0276
     15 N           1.7085   -3.5075    1.2931 N.4     1  UNL1        0.2355
     16 C           1.9384   -4.9492    1.7004 C.3     1  UNL1       -0.0313
     17 C           0.6652   -5.6334    2.1728 C.3     1  UNL1       -0.0040
     18 C           0.0122   -4.8792    3.3311 C.3     1  UNL1        0.0148
     19 C          -0.3332   -3.4721    2.8302 C.3     1  UNL1       -0.0040
     20 C           0.8513   -2.7015    2.2555 C.3     1  UNL1       -0.0313
     21 C           0.8656   -4.9175    4.5800 C.ar    1  UNL1        0.0948
     22 C           0.9395   -5.9338    5.5767 C.ar    1  UNL1        0.0447
     23 C           0.3102   -7.1580    5.8632 C.ar    1  UNL1       -0.0464
     24 C           0.7479   -7.8827    6.9842 C.ar    1  UNL1       -0.0256
     25 C           1.7819   -7.4008    7.7867 C.ar    1  UNL1        0.1270
     26 C           2.4186   -6.1920    7.5272 C.ar    1  UNL1        0.0192
     27 C           1.9576   -5.5016    6.4127 C.ar    1  UNL1        0.1702
     28 O           2.4385   -4.3160    5.9578 O.2     1  UNL1       -0.3543
     29 N           1.7670   -3.9547    4.8075 N.ar    1  UNL1       -0.0818
     30 F           2.1770   -8.1280    8.8401 F       1  UNL1       -0.2054
     31 H           4.4548   -1.7095   -3.5346 H       1  UNL1        0.0293
     32 H           4.2664   -0.0964   -2.8238 H       1  UNL1        0.0293
     33 H           4.2201   -1.5389   -1.7999 H       1  UNL1        0.0293
     34 H           0.7803    1.3705   -5.5844 H       1  UNL1        0.0343
     35 H           1.2463   -0.0013   -6.5868 H       1  UNL1        0.0343
     36 H          -1.0675    0.9059   -7.0798 H       1  UNL1        0.0270
     37 H          -1.0476   -0.8166   -6.6833 H       1  UNL1        0.0270
     38 H          -1.6368    1.4460   -4.7042 H       1  UNL1        0.0282
     39 H          -2.8563    0.4024   -5.4396 H       1  UNL1        0.0282
     40 H          -1.9465   -1.5789   -4.3617 H       1  UNL1        0.0493
     41 H          -2.1252   -0.3311   -3.1284 H       1  UNL1        0.0493
     42 H           2.7287   -1.6442   -0.3377 H       1  UNL1        0.0367
     43 H           1.0720   -1.1859   -0.1148 H       1  UNL1        0.0367
     44 H           0.3421   -3.6290   -0.3303 H       1  UNL1        0.0818
     45 H           2.0318   -4.0292   -0.7412 H       1  UNL1        0.0818
     46 H           2.7035   -4.9336    2.4832 H       1  UNL1        0.0815
     47 H           2.3688   -5.4790    0.8440 H       1  UNL1        0.0815
     48 H           0.8968   -6.6620    2.4758 H       1  UNL1        0.0323
     49 H          -0.0442   -5.7077    1.3388 H       1  UNL1        0.0323
     50 H          -0.9368   -5.3769    3.5788 H       1  UNL1        0.0369
     51 H          -1.0993   -3.5583    2.0475 H       1  UNL1        0.0323
     52 H          -0.7877   -2.8812    3.6353 H       1  UNL1        0.0323
     53 H           0.4866   -1.8121    1.7381 H       1  UNL1        0.0815
     54 H           1.5264   -2.3397    3.0344 H       1  UNL1        0.0815
     55 H          -0.4935   -7.5472    5.2449 H       1  UNL1        0.0626
     56 H           0.2866   -8.8347    7.2363 H       1  UNL1        0.0646
     57 H           3.2238   -5.8235    8.1496 H       1  UNL1        0.0684
     58 H           2.6438   -3.0905    1.3971 H       1  UNL1        0.2033
@<TRIPOS>UNITY_ATOM_ATTR
15 1
charge 1
@<TRIPOS>BOND
     1     1     2    1
     2     1    31    1
     3     1    32    1
     4     1    33    1
     5     2     8   ar
     6     2     3   ar
     7     3     4   ar
     8     3    13    1
     9     4     5    2
    10     4     6   ar
    11     6    12    1
    12     6     7   ar
    13     7     8   ar
    14     7     9    1
    15     9    10    1
    16     9    34    1
    17     9    35    1
    18    10    11    1
    19    10    36    1
    20    10    37    1
    21    11    12    1
    22    11    38    1
    23    11    39    1
    24    12    40    1
    25    12    41    1
    26    13    14    1
    27    13    42    1
    28    13    43    1
    29    14    44    1
    30    14    45    1
    31    15    20    1
    32    15    16    1
    33    16    17    1
    34    16    46    1
    35    16    47    1
    36    17    18    1
    37    17    48    1
    38    17    49    1
    39    18    19    1
    40    19    20    1
    41    19    51    1
    42    19    52    1
    43    20    53    1
    44    20    54    1
    45    21    29   ar
    46    21    22   ar
    47    22    27   ar
    48    22    23   ar
    49    23    24   ar
    50    23    55    1
    51    24    25   ar
    52    24    56    1
    53    25    26   ar
    54    25    30    1
    55    26    27   ar
    56    26    57    1
    57    27    28   ar
    58    28    29   ar
    59    15    58    1
    60    15    14    1
    61    18    50    1
    62    18    21    1
