@<TRIPOS>MOLECULE
ZINC00004319
 49 50 0 0 0
SMALL
GASTEIGER

@<TRIPOS>ATOM
      1 C           0.6486    2.4208   -1.0598 C.3     1  UNL1       -0.0216
      2 C           0.3626    1.3304   -0.0218 C.3     1  UNL1       -0.0251
      3 H           0.7805    0.3870   -0.3799 H       1  UNL1        0.0848
      4 C          -1.1356    1.2120    0.2873 C.3     1  UNL1       -0.0060
      5 C          -1.9903    0.7893   -0.9236 C.3     1  UNL1       -0.0226
      6 C          -3.4394    0.6649   -0.5166 C.ar    1  UNL1       -0.0472
      7 C          -3.9141   -0.5190    0.0649 C.ar    1  UNL1       -0.0586
      8 C          -5.2151   -0.5879    0.5666 C.ar    1  UNL1       -0.0615
      9 C          -6.0563    0.5194    0.4822 C.ar    1  UNL1       -0.0617
     10 C          -5.6109    1.6849   -0.1375 C.ar    1  UNL1       -0.0615
     11 C          -4.3097    1.7574   -0.6393 C.ar    1  UNL1       -0.0586
     12 N           1.1433    1.7309    1.2228 N.4     1  UNL1        0.2310
     13 C           1.0956    0.8814    2.4761 C.3     1  UNL1       -0.0026
     14 C           1.7508   -0.5122    2.3193 C.3     1  UNL1        0.1197
     15 H           2.7924   -0.3964    1.9961 H       1  UNL1        0.0698
     16 C           1.7067   -1.2888    3.6238 C.ar    1  UNL1       -0.0131
     17 C           2.7874   -1.2411    4.5179 C.ar    1  UNL1       -0.0524
     18 C           2.7379   -1.9319    5.7319 C.ar    1  UNL1       -0.0191
     19 C           1.6134   -2.6884    6.0625 C.ar    1  UNL1        0.1290
     20 C           0.5217   -2.7659    5.1891 C.ar    1  UNL1        0.0781
     21 C           0.5716   -2.0443    3.9811 C.ar    1  UNL1       -0.0403
     22 C          -0.6479   -3.6039    5.5680 C.2     1  UNL1        0.2451
     23 O          -0.7077   -4.1255    6.6733 O.2     1  UNL1       -0.2703
     24 N          -1.6522   -3.8013    4.6592 N.am    1  UNL1       -0.3252
     25 O           1.6645   -3.3254    7.2724 O.3     1  UNL1       -0.5060
     26 O           1.0879   -1.2492    1.2915 O.3     1  UNL1       -0.3819
     27 H           0.2400    2.1565   -2.0395 H       1  UNL1        0.0284
     28 H           1.7263    2.5699   -1.1894 H       1  UNL1        0.0284
     29 H           0.2125    3.3801   -0.7580 H       1  UNL1        0.0284
     30 H          -1.2883    0.4746    1.0837 H       1  UNL1        0.0323
     31 H          -1.5080    2.1689    0.6769 H       1  UNL1        0.0323
     32 H          -1.9103    1.5173   -1.7390 H       1  UNL1        0.0315
     33 H          -1.6361   -0.1675   -1.3272 H       1  UNL1        0.0315
     34 H          -3.2739   -1.3945    0.1404 H       1  UNL1        0.0620
     35 H          -5.5747   -1.5036    1.0298 H       1  UNL1        0.0618
     36 H          -7.0630    0.4714    0.8915 H       1  UNL1        0.0618
     37 H          -6.2776    2.5398   -0.2231 H       1  UNL1        0.0618
     38 H          -3.9849    2.6781   -1.1182 H       1  UNL1        0.0620
     39 H           2.1296    1.8314    0.9497 H       1  UNL1        0.2017
     40 H           1.6379    1.4607    3.2327 H       1  UNL1        0.0843
     41 H           0.0485    0.8206    2.7844 H       1  UNL1        0.0843
     42 H           3.6883   -0.6754    4.2880 H       1  UNL1        0.0622
     43 H           3.5771   -1.8924    6.4256 H       1  UNL1        0.0654
     44 H          -0.2752   -2.0639    3.3021 H       1  UNL1        0.0630
     45 H          -1.6294   -3.5390    3.6871 H       1  UNL1        0.1453
     46 H          -2.3944   -4.4363    4.9462 H       1  UNL1        0.1453
     47 H           0.8121   -3.8028    7.4127 H       1  UNL1        0.2922
     48 H           1.4804   -2.1452    1.2816 H       1  UNL1        0.2105
     49 H           0.8347    2.6751    1.4900 H       1  UNL1        0.2017
@<TRIPOS>UNITY_ATOM_ATTR
12 1
charge 1
@<TRIPOS>BOND
     1     1    27    1
     2     1    28    1
     3     1    29    1
     4     2     4    1
     5     2    12    1
     6     4     5    1
     7     4    30    1
     8     4    31    1
     9     5     6    1
    10     5    32    1
    11     5    33    1
    12     6    11   ar
    13     6     7   ar
    14     7     8   ar
    15     7    34    1
    16     8     9   ar
    17     8    35    1
    18     9    10   ar
    19     9    36    1
    20    10    11   ar
    21    10    37    1
    22    11    38    1
    23    12    13    1
    24    12    39    1
    25    12    49    1
    26    13    14    1
    27    13    40    1
    28    13    41    1
    29    14    15    1
    30    14    16    1
    31    14    26    1
    32    16    21   ar
    33    16    17   ar
    34    17    18   ar
    35    17    42    1
    36    18    19   ar
    37    18    43    1
    38    19    20   ar
    39    19    25    1
    40    20    21   ar
    41    20    22    1
    42    21    44    1
    43    22    23    2
    44    22    24   am
    45    24    45    1
    46    24    46    1
    47    25    47    1
    48    26    48    1
    49     2     3    1
    50     2     1    1
