@<TRIPOS>MOLECULE
ZINC00001758
 42 43 0 0 0
SMALL
GASTEIGER

@<TRIPOS>ATOM
      1 C           0.8184    0.1356   -0.2766 C.3     1  UNL1       -0.0358
      2 C           0.4598   -1.2983   -0.5381 C.ar    1  UNL1       -0.0011
      3 C          -0.7040   -1.5574   -1.2725 C.ar    1  UNL1        0.0136
      4 C          -1.0571   -2.8364   -1.6501 C.ar    1  UNL1        0.1074
      5 C          -0.3020   -3.9341   -1.2924 C.ar    1  UNL1        0.1381
      6 C           0.8546   -3.7423   -0.5095 C.ar    1  UNL1        0.0404
      7 C           1.2298   -2.4095   -0.1227 C.ar    1  UNL1        0.1303
      8 O           2.4362   -2.2901    0.5283 O.3     1  UNL1       -0.4944
      9 C           2.5252   -1.3760    1.6205 C.3     1  UNL1        0.0788
     10 C           1.6627   -4.9525   -0.0677 C.3     1  UNL1       -0.0023
     11 C           1.0820   -5.5976    1.1666 C.2     1  UNL1       -0.0805
     12 C           1.5203   -5.4840    2.4360 C.2     1  UNL1       -0.0757
     13 C           2.7292   -4.6867    2.8390 C.3     1  UNL1       -0.0438
     14 C           0.7881   -6.1737    3.5838 C.3     1  UNL1       -0.0218
     15 C           0.1827   -5.1780    4.5723 C.3     1  UNL1        0.0528
     16 C          -0.6149   -5.8014    5.7158 C.2     1  UNL1        0.3563
     17 O          -1.0948   -4.9607    6.5313 O.co2   1  UNL1       -0.2464
     18 O          -0.6989   -7.0599    5.7262 O.co2   1  UNL1       -0.2464
     19 O          -0.6919   -5.1621   -1.7394 O.3     1  UNL1       -0.5055
     20 C          -2.2842   -2.7648   -2.4425 C.2     1  UNL1        0.3435
     21 O          -2.8990   -3.6699   -2.9786 O.2     1  UNL1       -0.2448
     22 O          -2.6425   -1.4471   -2.4978 O.3     1  UNL1       -0.4563
     23 C          -1.7122   -0.6137   -1.7873 C.3     1  UNL1        0.1191
     24 H           0.6096    0.3994    0.7639 H       1  UNL1        0.0279
     25 H           0.2450    0.8276   -0.9008 H       1  UNL1        0.0279
     26 H           1.8654    0.3210   -0.5312 H       1  UNL1        0.0279
     27 H           2.6860   -0.3525    1.2759 H       1  UNL1        0.0660
     28 H           1.6636   -1.4375    2.2927 H       1  UNL1        0.0660
     29 H           3.4256   -1.6215    2.1935 H       1  UNL1        0.0660
     30 H           1.6703   -5.7006   -0.8724 H       1  UNL1        0.0358
     31 H           2.7211   -4.7019    0.0435 H       1  UNL1        0.0358
     32 H           0.2065   -6.2261    1.0008 H       1  UNL1        0.0575
     33 H           2.4429   -3.8591    3.4934 H       1  UNL1        0.0274
     34 H           3.4439   -5.3252    3.3645 H       1  UNL1        0.0274
     35 H           3.2610   -4.2520    1.9928 H       1  UNL1        0.0274
     36 H          -0.0057   -6.8240    3.1920 H       1  UNL1        0.0315
     37 H           1.4925   -6.8386    4.0996 H       1  UNL1        0.0315
     38 H           0.9770   -4.5802    5.0351 H       1  UNL1        0.0382
     39 H          -0.4816   -4.4864    4.0392 H       1  UNL1        0.0382
     40 H          -0.4799   -5.8343   -1.0726 H       1  UNL1        0.2922
     41 H          -2.2422   -0.1016   -0.9787 H       1  UNL1        0.0749
     42 H          -1.2854    0.1072   -2.4902 H       1  UNL1        0.0749
@<TRIPOS>BOND
     1     1     2    1
     2     1    24    1
     3     1    25    1
     4     1    26    1
     5     2     7   ar
     6     2     3   ar
     7     3    23    1
     8     3     4   ar
     9     4     5   ar
    10     4    20    1
    11     5     6   ar
    12     5    19    1
    13     6     7   ar
    14     6    10    1
    15     7     8    1
    16     8     9    1
    17     9    27    1
    18     9    28    1
    19     9    29    1
    20    10    11    1
    21    10    30    1
    22    10    31    1
    23    11    12    2
    24    11    32    1
    25    12    13    1
    26    12    14    1
    27    13    33    1
    28    13    34    1
    29    13    35    1
    30    14    15    1
    31    14    36    1
    32    14    37    1
    33    15    16    1
    34    15    38    1
    35    15    39    1
    36    16    17   ar
    37    16    18   ar
    38    19    40    1
    39    20    21    2
    40    20    22    1
    41    22    23    1
    42    23    41    1
    43    23    42    1
