@<TRIPOS>MOLECULE
ZINC02016052
 10 10 0 0 0
SMALL
GASTEIGER

@<TRIPOS>ATOM
      1 C          -0.0339    0.8110    0.0013 C.3     1  UNL1        0.0754
      2 C          -0.8820   -0.4186   -0.2060 C.3     1  UNL1        0.0954
      3 H          -1.2549   -0.6351   -1.1981 H       1  UNL1        0.0631
      4 O           0.5321   -0.5070    0.0202 O.3     1  UNL1       -0.3705
      5 C          -1.7214   -0.9887    0.8833 C.3     1  UNL1        0.0510
      6 CL         -3.1257    0.0685    1.1453 Cl      1  UNL1       -0.1227
      7 H          -0.1131    1.3448    0.9408 H       1  UNL1        0.0586
      8 H           0.1767    1.4364   -0.8567 H       1  UNL1        0.0586
      9 H          -2.0942   -1.9784    0.6037 H       1  UNL1        0.0456
     10 H          -1.1790   -1.0747    1.8299 H       1  UNL1        0.0456
@<TRIPOS>BOND
     1     1     4    1
     2     1     2    1
     3     1     7    1
     4     1     8    1
     5     2     4    1
     6     5     6    1
     7     5     9    1
     8     5    10    1
     9     2     5    1
    10     2     3    1
