@<TRIPOS>MOLECULE
ZINC00005895
 40 42 0 0 0
SMALL
GASTEIGER

@<TRIPOS>ATOM
      1 C          -0.2738    0.9972    2.3471 C.3     1  UNL1       -0.0433
      2 N           0.3394    0.7859    0.9934 N.4     1  UNL1        0.2311
      3 C           1.4440   -0.2366    1.0514 C.3     1  UNL1       -0.0433
      4 C          -0.6576    0.4549   -0.0997 C.3     1  UNL1       -0.0283
      5 C          -1.6324    1.5931   -0.4116 C.3     1  UNL1        0.0147
      6 C          -1.0473    2.9522   -0.6773 C.ar    1  UNL1       -0.0173
      7 C          -1.6458    4.1242   -0.2475 C.ar    1  UNL1        0.0061
      8 N          -0.8881    5.1853   -0.6547 N.ar    1  UNL1       -0.3604
      9 H          -1.1077    6.1601   -0.4937 H       1  UNL1        0.1653
     10 C           0.2333    4.7343   -1.3056 C.ar    1  UNL1        0.0468
     11 C           0.1406    3.3441   -1.3898 C.ar    1  UNL1        0.0033
     12 C           1.1705    2.6662   -2.0792 C.ar    1  UNL1       -0.0474
     13 C           2.3033    3.3754   -2.5475 C.ar    1  UNL1       -0.0254
     14 C           2.3425    4.7666   -2.4348 C.ar    1  UNL1       -0.0548
     15 C           1.2988    5.4708   -1.8367 C.ar    1  UNL1       -0.0375
     16 C           3.4869    2.6324   -3.1302 C.3     1  UNL1        0.0682
     17 N           3.9770    1.6304   -2.1952 N.ar    1  UNL1       -0.2477
     18 C           4.3468    1.8089   -0.8941 C.ar    1  UNL1        0.1146
     19 N           4.5873    0.6405   -0.3415 N.ar    1  UNL1       -0.2228
     20 C           4.4427   -0.2263   -1.3879 C.ar    1  UNL1        0.1380
     21 N           3.9863    0.3210   -2.5159 N.ar    1  UNL1       -0.1581
     22 H          -0.7856    0.0781    2.6473 H       1  UNL1        0.0777
     23 H          -0.9713    1.8349    2.2920 H       1  UNL1        0.0777
     24 H           0.5272    1.2429    3.0469 H       1  UNL1        0.0777
     25 H           1.0209   -1.1817    1.4068 H       1  UNL1        0.0777
     26 H           1.8546   -0.3526    0.0472 H       1  UNL1        0.0777
     27 H           2.2139    0.1315    1.7347 H       1  UNL1        0.0777
     28 H          -0.0810    0.1983   -0.9928 H       1  UNL1        0.0817
     29 H          -1.2011   -0.4421    0.2197 H       1  UNL1        0.0817
     30 H          -2.2441    1.3047   -1.2759 H       1  UNL1        0.0366
     31 H          -2.3343    1.6780    0.4289 H       1  UNL1        0.0366
     32 H          -2.5650    4.2966    0.2972 H       1  UNL1        0.0810
     33 H           1.1235    1.5921   -2.2333 H       1  UNL1        0.0627
     34 H           3.1950    5.3321   -2.8151 H       1  UNL1        0.0622
     35 H           1.3291    6.5549   -1.7672 H       1  UNL1        0.0638
     36 H           3.2001    2.1347   -4.0625 H       1  UNL1        0.0559
     37 H           4.3298    3.3009   -3.3372 H       1  UNL1        0.0559
     38 H           4.3968    2.7766   -0.4133 H       1  UNL1        0.1044
     39 H           4.6417   -1.2888   -1.3160 H       1  UNL1        0.1065
     40 H           0.7871    1.6764    0.7251 H       1  UNL1        0.2028
@<TRIPOS>UNITY_ATOM_ATTR
2 1
charge 1
@<TRIPOS>BOND
     1     1     2    1
     2     1    22    1
     3     1    23    1
     4     1    24    1
     5     2     3    1
     6     2     4    1
     7     2    40    1
     8     3    25    1
     9     3    26    1
    10     3    27    1
    11     4     5    1
    12     4    28    1
    13     4    29    1
    14     5     6    1
    15     5    30    1
    16     5    31    1
    17     6    11   ar
    18     6     7   ar
    19     7     8   ar
    20     7    32    1
    21     8     9    1
    22     8    10   ar
    23    10    15   ar
    24    10    11   ar
    25    11    12   ar
    26    12    13   ar
    27    12    33    1
    28    13    14   ar
    29    13    16    1
    30    14    15   ar
    31    14    34    1
    32    15    35    1
    33    16    17    1
    34    16    36    1
    35    16    37    1
    36    17    21   ar
    37    17    18   ar
    38    18    19   ar
    39    18    38    1
    40    19    20   ar
    41    20    21   ar
    42    20    39    1
