@<TRIPOS>MOLECULE
ZINC01533874
 38 40 0 0 0
SMALL
GASTEIGER

@<TRIPOS>ATOM
      1 C          -0.1431    1.2285   -0.0782 C.ar    1  UNL1       -0.0610
      2 C          -1.3579    1.1053   -0.7527 C.ar    1  UNL1       -0.0590
      3 C          -1.8238   -0.1558   -1.1238 C.ar    1  UNL1       -0.0258
      4 C          -1.0633   -1.2856   -0.8361 C.ar    1  UNL1        0.1325
      5 C           0.1807   -1.1737   -0.2167 C.ar    1  UNL1        0.0358
      6 C           0.6251    0.0932    0.1917 C.ar    1  UNL1       -0.0498
      7 C           1.0782   -2.3567   -0.0054 C.2     1  UNL1        0.0807
      8 N           1.8086   -2.3288    1.0578 N.2     1  UNL1       -0.2427
      9 C           2.7094   -3.4382    1.3101 C.3     1  UNL1        0.2248
     10 H           3.3257   -3.6843    0.4391 H       1  UNL1        0.0952
     11 C           1.8043   -4.6525    1.6648 C.2     1  UNL1        0.2712
     12 O           1.5875   -5.0031    2.8280 O.2     1  UNL1       -0.2702
     13 N           1.2899   -5.3634    0.5676 N.am    1  UNL1       -0.2661
     14 C           1.2311   -4.8227   -0.7647 C.ar    1  UNL1        0.0457
     15 C           1.1435   -3.4353   -1.0509 C.ar    1  UNL1        0.0235
     16 C           1.1050   -2.9907   -2.3904 C.ar    1  UNL1       -0.0324
     17 C           1.1051   -3.8965   -3.4421 C.ar    1  UNL1        0.0417
     18 C           1.1963   -5.2532   -3.1841 C.ar    1  UNL1       -0.0416
     19 C           1.2636   -5.7074   -1.8621 C.ar    1  UNL1       -0.0383
     20 CL          0.9916   -3.3315   -5.0606 Cl      1  UNL1       -0.0835
     21 C           0.7086   -6.6852    0.8673 C.3     1  UNL1        0.0327
     22 C          -0.7979   -6.6261    1.1262 C.3     1  UNL1        0.0509
     23 C          -1.3248   -7.9772    1.3797 C.1     1  UNL1        0.0641
     24 N          -1.7308   -9.0501    1.5547 N.1     1  UNL1       -0.1965
     25 O           3.6293   -3.1151    2.3316 O.3     1  UNL1       -0.3636
     26 F          -1.5517   -2.4868   -1.1883 F       1  UNL1       -0.2048
     27 H           0.2129    2.2095    0.2297 H       1  UNL1        0.0618
     28 H          -1.9442    1.9925   -0.9820 H       1  UNL1        0.0618
     29 H          -2.7733   -0.2633   -1.6395 H       1  UNL1        0.0646
     30 H           1.5779    0.2047    0.7066 H       1  UNL1        0.0625
     31 H           1.0599   -1.9292   -2.6254 H       1  UNL1        0.0639
     32 H           1.2317   -5.9681   -4.0029 H       1  UNL1        0.0633
     33 H           1.3973   -6.7775   -1.7354 H       1  UNL1        0.0637
     34 H           0.9411   -7.4069    0.0818 H       1  UNL1        0.0478
     35 H           1.2055   -7.0930    1.7583 H       1  UNL1        0.0478
     36 H          -1.0125   -5.9750    1.9773 H       1  UNL1        0.0433
     37 H          -1.3099   -6.1967    0.2579 H       1  UNL1        0.0433
     38 H           3.1415   -2.4582    2.8574 H       1  UNL1        0.2125
@<TRIPOS>BOND
     1     1     6   ar
     2     1     2   ar
     3     1    27    1
     4     2     3   ar
     5     2    28    1
     6     3     4   ar
     7     3    29    1
     8     4     5   ar
     9     4    26    1
    10     5     6   ar
    11     5     7    1
    12     6    30    1
    13     7    15    1
    14     7     8    2
    15     8     9    1
    16     9    10    1
    17     9    11    1
    18     9    25    1
    19    11    12    2
    20    11    13   am
    21    13    14    1
    22    13    21    1
    23    14    19   ar
    24    14    15   ar
    25    15    16   ar
    26    16    17   ar
    27    16    31    1
    28    17    18   ar
    29    17    20    1
    30    18    19   ar
    31    18    32    1
    32    19    33    1
    33    21    22    1
    34    21    34    1
    35    21    35    1
    36    22    23    1
    37    22    36    1
    38    22    37    1
    39    23    24    3
    40    25    38    1
