@<TRIPOS>MOLECULE
ZINC01530703
 35 35 0 0 0
SMALL
GASTEIGER

@<TRIPOS>ATOM
      1 C          -0.8783   -3.6781    3.7315 C.3     1  UNL1       -0.0652
      2 C          -0.8329   -2.3102    3.0582 C.3     1  UNL1       -0.0545
      3 C           0.1663   -1.3779    3.7469 C.3     1  UNL1       -0.0377
      4 C           0.2817    0.0152    3.1104 C.3     1  UNL1        0.0094
      5 N          -0.9404    0.7782    3.1127 N.pl3   1  UNL1       -0.3394
      6 C          -1.7083    1.0551    4.1973 C.2     1  UNL1        0.0682
      7 O          -2.8483    1.0573    3.7203 O.co2   1  UNL1       -0.8485
      8 N          -1.2065    1.2425    5.3692 N.2     1  UNL1       -0.1295
      9 S          -2.1169    1.5492    6.6698 S.O2    1  UNL1        0.0993
     10 O          -1.2182    1.8078    7.7990 O.2     1  UNL1       -0.1463
     11 O          -3.1860    2.5157    6.4523 O.2     1  UNL1       -0.1463
     12 C          -2.8893   -0.0155    7.0705 C.ar    1  UNL1        0.1125
     13 C          -2.2333   -0.9156    7.9118 C.ar    1  UNL1       -0.0346
     14 C          -2.8430   -2.1169    8.2598 C.ar    1  UNL1       -0.0570
     15 C          -4.1178   -2.4284    7.7662 C.ar    1  UNL1       -0.0503
     16 C          -4.7646   -1.5238    6.9120 C.ar    1  UNL1       -0.0570
     17 C          -4.1558   -0.3156    6.5682 C.ar    1  UNL1       -0.0346
     18 C          -4.7926   -3.7139    8.1336 C.3     1  UNL1       -0.0397
     19 H           0.0907   -4.1843    3.6706 H       1  UNL1        0.0230
     20 H          -1.6238   -4.3156    3.2446 H       1  UNL1        0.0230
     21 H          -1.1518   -3.5869    4.7876 H       1  UNL1        0.0230
     22 H          -0.5646   -2.4406    2.0041 H       1  UNL1        0.0263
     23 H          -1.8380   -1.8788    3.0895 H       1  UNL1        0.0263
     24 H          -0.0949   -1.2844    4.8079 H       1  UNL1        0.0280
     25 H           1.1603   -1.8437    3.7153 H       1  UNL1        0.0280
     26 H           1.0583    0.5832    3.6318 H       1  UNL1        0.0461
     27 H           0.6123   -0.0914    2.0712 H       1  UNL1        0.0461
     28 H          -1.5099    0.7878    2.2820 H       1  UNL1        0.1464
     29 H          -1.2395   -0.6773    8.2923 H       1  UNL1        0.0637
     30 H          -2.3193   -2.8069    8.9164 H       1  UNL1        0.0621
     31 H          -5.7437   -1.7528    6.5005 H       1  UNL1        0.0621
     32 H          -4.6483    0.3759    5.8872 H       1  UNL1        0.0637
     33 H          -5.7471   -3.5065    8.6279 H       1  UNL1        0.0278
     34 H          -4.9727   -4.3160    7.2374 H       1  UNL1        0.0278
     35 H          -4.1810   -4.3064    8.8218 H       1  UNL1        0.0278
@<TRIPOS>UNITY_ATOM_ATTR
7 1
charge -1
@<TRIPOS>BOND
     1     1     2    1
     2     1    19    1
     3     1    20    1
     4     1    21    1
     5     2     3    1
     6     2    22    1
     7     2    23    1
     8     3     4    1
     9     3    24    1
    10     3    25    1
    11     4     5    1
    12     4    26    1
    13     4    27    1
    14     5     6    1
    15     5    28    1
    16     6     7    1
    17     6     8    2
    18     8     9    1
    19     9    10    2
    20     9    11    2
    21     9    12    1
    22    12    17   ar
    23    12    13   ar
    24    13    14   ar
    25    13    29    1
    26    14    15   ar
    27    14    30    1
    28    15    16   ar
    29    15    18    1
    30    16    17   ar
    31    16    31    1
    32    17    32    1
    33    18    33    1
    34    18    34    1
    35    18    35    1
