@<TRIPOS>MOLECULE
ZINC00000637
 38 38 0 0 0
SMALL
GASTEIGER

@<TRIPOS>ATOM
      1 C           0.7238   -4.0933    2.7165 C.3     0  UNK0       -0.0193
      2 C           0.3138   -2.6283    2.5428 C.3     0  UNK0       -0.0203
      3 C          -1.2088   -2.4637    2.5481 C.3     0  UNK0       -0.0193
      4 C           0.9214   -1.7938    3.6800 C.3     0  UNK0       -0.0193
      5 N           0.8745   -2.0826    1.2479 N.4     0  UNK0        0.2329
      6 C           0.3874   -2.6949   -0.0542 C.3     0  UNK0       -0.0009
      7 C           1.1683   -2.0928   -1.2425 C.3     0  UNK0        0.1363
      8 H           0.8569   -1.0529   -1.3988 H       0  UNK0        0.0713
      9 C           0.9097   -2.8953   -2.5071 C.ar    0  UNK0        0.0755
     10 C           1.5195   -2.5872   -3.7180 C.ar    1  UNK1       -0.0342
     11 C           1.2610   -3.3823   -4.8352 C.ar    1  UNK1       -0.0165
     12 C           0.4049   -4.4721   -4.7137 C.ar    1  UNK1        0.1403
     13 C          -0.2115   -4.7074   -3.4902 C.ar    1  UNK1        0.1081
     14 N           0.0284   -3.9233   -2.3999 N.ar    1  UNK1       -0.2477
     15 C          -1.1331   -5.8921   -3.2949 C.3     1  UNK1        0.0897
     16 O          -0.4377   -6.9570   -2.6481 O.3     1  UNK1       -0.3888
     17 O           0.1775   -5.3037   -5.7706 O.3     1  UNK1       -0.5049
     18 O           2.5529   -2.0705   -0.8458 O.3     0  UNK0       -0.3803
     19 H           0.2998   -4.5032    3.6405 H       0  UNK0        0.0287
     20 H           1.8128   -4.1972    2.7790 H       0  UNK0        0.0287
     21 H           0.3681   -4.7294    1.9013 H       0  UNK0        0.0287
     22 H          -1.6337   -2.8155    3.4950 H       0  UNK0        0.0287
     23 H          -1.4958   -1.4126    2.4276 H       0  UNK0        0.0287
     24 H          -1.6898   -3.0390    1.7509 H       0  UNK0        0.0287
     25 H           2.0164   -1.7908    3.6366 H       0  UNK0        0.0287
     26 H           0.5818   -0.7526    3.6411 H       0  UNK0        0.0287
     27 H           0.6304   -2.1981    4.6568 H       0  UNK0        0.0287
     28 H           0.7336   -1.0665    1.2096 H       0  UNK0        0.2020
     29 H           0.5891   -3.7652    0.0302 H       0  UNK0        0.0843
     30 H          -0.6850   -2.5060   -0.1469 H       0  UNK0        0.0843
     31 H           2.1931   -1.7405   -3.8127 H       1  UNK1        0.0637
     32 H           1.7372   -3.1492   -5.7820 H       1  UNK1        0.0655
     33 H          -1.9689   -5.5996   -2.6518 H       1  UNK1        0.0624
     34 H          -1.5588   -6.2610   -4.2331 H       1  UNK1        0.0624
     35 H           0.1852   -7.3104   -3.3072 H       1  UNK1        0.2099
     36 H           3.0286   -1.4722   -1.4529 H       0  UNK0        0.2106
     37 H           0.7312   -5.0394   -6.5259 H       1  UNK1        0.2922
     38 H           1.9017   -2.2109    1.2224 H       0  UNK0        0.2020
@<TRIPOS>UNITY_ATOM_ATTR
5 1
charge 1
@<TRIPOS>BOND
     1     1     2    1
     2     1    19    1
     3     1    20    1
     4     1    21    1
     5     2     3    1
     6     2     4    1
     7     2     5    1
     8     3    22    1
     9     3    23    1
    10     3    24    1
    11     4    25    1
    12     4    26    1
    13     4    27    1
    14     5     6    1
    15     5    28    1
    16     5    38    1
    17     6     7    1
    18     6    29    1
    19     6    30    1
    20     7     8    1
    21     7    18    1
    22     7     9    1
    23     9    14   ar
    24     9    10   ar
    25    10    31    1
    26    10    11   ar
    27    11    12   ar
    28    11    32    1
    29    12    17    1
    30    12    13   ar
    31    13    15    1
    32    13    14   ar
    33    15    16    1
    34    15    33    1
    35    15    34    1
    36    16    35    1
    37    17    37    1
    38    18    36    1
