@<TRIPOS>MOLECULE
ZINC00057494
 33 34 0 0 0
SMALL
GASTEIGER

@<TRIPOS>ATOM
      1 C           1.8813    0.7774   -2.1047 C.3     1  UNL1       -0.0222
      2 C           1.0003    0.2878   -0.9979 C.ar    1  UNL1        0.0436
      3 C           0.4568    1.1738   -0.0901 C.ar    1  UNL1       -0.0194
      4 C          -0.3918    0.6438    0.8668 C.ar    1  UNL1        0.0436
      5 N          -0.6675   -0.6795    0.9366 N.ar    1  UNL1       -0.2185
      6 C          -0.0694   -1.4415    0.0208 C.ar    1  UNL1        0.2352
      7 N           0.7660   -1.0348   -0.9386 N.ar    1  UNL1       -0.2185
      8 N          -0.0905   -2.8230    0.1176 N.pl3   1  UNL1       -0.1836
      9 S          -1.5254   -3.6411    0.1264 S.O2    1  UNL1        0.0746
     10 O          -1.1807   -5.0133   -0.2063 O.2     1  UNL1       -0.1499
     11 O          -2.2525   -3.3634    1.3448 O.2     1  UNL1       -0.1499
     12 C          -2.4947   -3.0330   -1.2451 C.ar    1  UNL1        0.1087
     13 C          -2.3017   -3.5537   -2.5286 C.ar    1  UNL1       -0.0333
     14 C          -3.2364   -3.2655   -3.5358 C.ar    1  UNL1       -0.0392
     15 C          -4.3920   -2.5230   -3.2596 C.ar    1  UNL1        0.0247
     16 C          -4.5236   -1.9471   -1.9980 C.ar    1  UNL1       -0.0392
     17 C          -3.5945   -2.2122   -0.9816 C.ar    1  UNL1       -0.0333
     18 N          -5.2897   -2.1975   -4.2767 N.pl3   1  UNL1       -0.3580
     19 C          -1.0069    1.5475    1.8973 C.3     1  UNL1       -0.0222
     20 H           1.3417    1.5084   -2.7158 H       1  UNL1        0.0293
     21 H           2.7852    1.2403   -1.6983 H       1  UNL1        0.0293
     22 H           2.1808   -0.0508   -2.7562 H       1  UNL1        0.0293
     23 H           0.6770    2.2338   -0.1346 H       1  UNL1        0.0653
     24 H           0.6235   -3.2553   -0.4551 H       1  UNL1        0.1767
     25 H          -1.4672   -4.2078   -2.7496 H       1  UNL1        0.0638
     26 H          -3.0758   -3.6660   -4.5385 H       1  UNL1        0.0636
     27 H          -5.3798   -1.3159   -1.7690 H       1  UNL1        0.0636
     28 H          -3.7625   -1.8104    0.0187 H       1  UNL1        0.0638
     29 H          -6.2245   -1.9726   -3.9348 H       1  UNL1        0.1423
     30 H          -5.3287   -2.8818   -5.0304 H       1  UNL1        0.1423
     31 H          -0.4750    1.4570    2.8495 H       1  UNL1        0.0293
     32 H          -0.9627    2.5962    1.5806 H       1  UNL1        0.0293
     33 H          -2.0597    1.2921    2.0465 H       1  UNL1        0.0293
@<TRIPOS>BOND
     1     1     2    1
     2     1    20    1
     3     1    21    1
     4     1    22    1
     5     2     7   ar
     6     2     3   ar
     7     3     4   ar
     8     3    23    1
     9     4     5   ar
    10     4    19    1
    11     5     6   ar
    12     6     7   ar
    13     6     8    1
    14     8     9    1
    15     8    24    1
    16     9    10    2
    17     9    11    2
    18     9    12    1
    19    12    17   ar
    20    12    13   ar
    21    13    14   ar
    22    13    25    1
    23    14    15   ar
    24    14    26    1
    25    15    16   ar
    26    15    18    1
    27    16    17   ar
    28    16    27    1
    29    17    28    1
    30    18    29    1
    31    18    30    1
    32    19    31    1
    33    19    32    1
    34    19    33    1
