@<TRIPOS>MOLECULE
ZINC00896595
 31 33 0 0 0
SMALL
GASTEIGER

@<TRIPOS>ATOM
      1 C           2.3002    0.1915    0.4902 C.ar    1  UNL1       -0.0611
      2 C           1.6776    1.3947    0.1888 C.ar    1  UNL1       -0.0603
      3 C           0.3135    1.4108   -0.0979 C.ar    1  UNL1       -0.0427
      4 C          -0.4301    0.2196   -0.1432 C.ar    1  UNL1        0.0501
      5 C           0.1988   -1.0115    0.1127 C.ar    1  UNL1        0.0190
      6 C           1.5614   -0.9943    0.4845 C.ar    1  UNL1       -0.0512
      7 C          -0.4925   -2.3537   -0.0469 C.2     1  UNL1        0.0793
      8 N          -1.7534   -2.4370    0.1984 N.2     1  UNL1       -0.2428
      9 C          -2.4514   -3.6975   -0.0246 C.3     1  UNL1        0.2246
     10 H          -2.1809   -4.1377   -0.9902 H       1  UNL1        0.0952
     11 C          -2.0399   -4.6901    1.0896 C.2     1  UNL1        0.2686
     12 O          -2.8740   -5.2216    1.8313 O.2     1  UNL1       -0.2705
     13 N          -0.7280   -5.0936    1.1556 N.am    1  UNL1       -0.2812
     14 C           0.2948   -4.7419    0.2611 C.ar    1  UNL1        0.0428
     15 C           0.3446   -3.5327   -0.4515 C.ar    1  UNL1        0.0232
     16 C           1.3141   -3.3490   -1.4529 C.ar    1  UNL1       -0.0324
     17 C           2.3048   -4.3101   -1.6416 C.ar    1  UNL1        0.0417
     18 C           2.3235   -5.4645   -0.8647 C.ar    1  UNL1       -0.0416
     19 C           1.3178   -5.6803    0.0797 C.ar    1  UNL1       -0.0385
     20 CL          3.5503   -4.0366   -2.7951 Cl      1  UNL1       -0.0835
     21 O          -3.8672   -3.5614   -0.0693 O.3     1  UNL1       -0.3636
     22 CL         -2.0919    0.3973   -0.5833 Cl      1  UNL1       -0.0829
     23 H           3.3628    0.1706    0.7231 H       1  UNL1        0.0618
     24 H           2.2479    2.3205    0.1818 H       1  UNL1        0.0618
     25 H          -0.1696    2.3631   -0.3085 H       1  UNL1        0.0632
     26 H           2.0841   -1.9088    0.7548 H       1  UNL1        0.0625
     27 H          -0.5975   -5.8866    1.7735 H       1  UNL1        0.1550
     28 H           1.3391   -2.4339   -2.0420 H       1  UNL1        0.0639
     29 H           3.1092   -6.2051   -0.9963 H       1  UNL1        0.0633
     30 H           1.3264   -6.6110    0.6453 H       1  UNL1        0.0637
     31 H          -4.2244   -4.3104    0.4423 H       1  UNL1        0.2125
@<TRIPOS>BOND
     1     1     6   ar
     2     1     2   ar
     3     1    23    1
     4     2     3   ar
     5     2    24    1
     6     3     4   ar
     7     3    25    1
     8     4     5   ar
     9     4    22    1
    10     5     6   ar
    11     5     7    1
    12     6    26    1
    13     7    15    1
    14     7     8    2
    15     8     9    1
    16     9    10    1
    17     9    11    1
    18     9    21    1
    19    11    12    2
    20    11    13   am
    21    13    14    1
    22    13    27    1
    23    14    19   ar
    24    14    15   ar
    25    15    16   ar
    26    16    17   ar
    27    16    28    1
    28    17    18   ar
    29    17    20    1
    30    18    19   ar
    31    18    29    1
    32    19    30    1
    33    21    31    1
