@<TRIPOS>MOLECULE
ZINC03830569
 22 23 0 0 0
SMALL
GASTEIGER

@<TRIPOS>ATOM
      1 C           1.0833   -1.3912    0.5025 C.3     1  UNL1        0.0786
      2 C          -0.1178   -0.8717   -0.3043 C.3     1  UNL1        0.1784
      3 H          -0.3178   -1.4152   -1.2342 H       1  UNL1        0.0957
      4 N           0.6422    0.3690   -0.5119 N.am    1  UNL1       -0.2450
      5 C           1.5573    0.0681    0.4548 C.2     1  UNL1        0.2244
      6 O           2.3245    0.7430    1.0985 O.2     1  UNL1       -0.2753
      7 C          -0.2908    1.4831   -0.3382 C.3     1  UNL1        0.1873
      8 H           0.2057    2.3135    0.1748 H       1  UNL1        0.0702
      9 C          -1.3372    0.8011    0.5478 C.2     1  UNL1        0.1301
     10 C          -2.0823    1.4168    1.4791 C.2     1  UNL1       -0.0188
     11 C          -3.0728    0.7454    2.3668 C.3     1  UNL1        0.0658
     12 O          -2.6435    0.8657    3.7174 O.3     1  UNL1       -0.3909
     13 O          -1.3349   -0.6001    0.4400 O.2     1  UNL1       -0.4723
     14 C          -1.0087    1.9467   -1.6479 C.2     1  UNL1        0.3836
     15 O          -1.1825    1.0642   -2.5440 O.co2   1  UNL1       -0.2438
     16 O          -1.3339    3.1715   -1.6717 O.co2   1  UNL1       -0.2438
     17 H           0.8477   -1.7500    1.5073 H       1  UNL1        0.0412
     18 H           1.7409   -2.0928   -0.0142 H       1  UNL1        0.0412
     19 H          -1.9910    2.4951    1.5881 H       1  UNL1        0.0628
     20 H          -4.0473    1.2328    2.2718 H       1  UNL1        0.0602
     21 H          -3.2040   -0.3170    2.1419 H       1  UNL1        0.0602
     22 H          -1.7504    0.4806    3.7431 H       1  UNL1        0.2098
@<TRIPOS>BOND
     1     1     5    1
     2     1     2    1
     3     1    17    1
     4     1    18    1
     5     2     3    1
     6     2    13    1
     7     2     4    1
     8     4     5   am
     9     4     7    1
    10     5     6    2
    11     7     9    1
    12     9    10    2
    13     9    13    1
    14    10    11    1
    15    10    19    1
    16    11    12    1
    17    11    20    1
    18    11    21    1
    19    12    22    1
    20    14    15   ar
    21    14    16   ar
    22     7    14    1
    23     7     8    1
