@<TRIPOS>MOLECULE
ZINC03830206
 45 47 0 0 0
SMALL
GASTEIGER

@<TRIPOS>ATOM
      1 C          -6.1022    1.1774   -0.3667 C.3     1  UNL1       -0.0484
      2 C          -4.7478    1.1399    0.3450 C.3     1  UNL1        0.0419
      3 CA         -4.6075   -0.0832    1.2754 C.3     1  UNL1        0.1423
      4 HA         -5.1739   -0.9139    0.8244 H       1  UNL1        0.0632
      5 N          -3.1928   -0.5026    1.2230 N.am    1  UNL1       -0.2703
      6 C          -2.3026    0.0936    0.2361 C.3     1  UNL1        0.1024
      7 H          -1.5898    0.7879    0.6878 H       1  UNL1        0.0642
      8 S          -3.4305    0.8380   -0.9889 S.3     1  UNL1       -0.1271
      9 CA         -1.7255   -1.3317   -0.0337 C.3     1  UNL1        0.1326
     10 HA         -0.7471   -1.5453    0.4113 H       1  UNL1        0.0646
     11 C          -2.8683   -1.7762    0.8954 C.2     1  UNL1        0.2423
     12 O          -3.4093   -2.8531    1.0676 O.2     1  UNL1       -0.2732
     13 C          -1.0177   -2.7462   -1.8971 C.2     1  UNL1        0.0566
     14 N          -0.9617   -3.1888   -3.1545 N.pl3   1  UNL1       -0.3228
     15 C           0.0549   -4.2158   -3.5044 C.3     1  UNL1        0.0129
     16 C           1.2847   -3.5554   -4.1191 C.3     1  UNL1       -0.0372
     17 C           1.1187   -3.2027   -5.5936 C.3     1  UNL1       -0.0516
     18 C          -0.0252   -2.2349   -5.8849 C.3     1  UNL1       -0.0516
     19 C          -1.4035   -2.8407   -5.6263 C.3     1  UNL1       -0.0372
     20 C          -1.8976   -2.6858   -4.1916 C.3     1  UNL1        0.0129
     21 C          -5.2075    0.0222    2.6996 C.2     1  UNL1        0.3774
     22 O          -6.4511    0.2366    2.7369 O.co2   1  UNL1       -0.2442
     23 C          -4.4378    2.4997    0.9906 C.3     1  UNL1       -0.0484
     24 H          -6.9226    1.3285    0.3427 H       1  UNL1        0.0244
     25 H          -6.1518    1.9918   -1.0979 H       1  UNL1        0.0244
     26 H          -6.3007    0.2392   -0.8986 H       1  UNL1        0.0244
     27 H          -0.2989   -3.1674   -1.2054 H       1  UNL1        0.0975
     28 H          -0.3855   -4.9702   -4.1640 H       1  UNL1        0.0464
     29 H           0.3546   -4.7374   -2.5887 H       1  UNL1        0.0464
     30 H           2.1280   -4.2531   -4.0406 H       1  UNL1        0.0280
     31 H           1.5653   -2.6578   -3.5540 H       1  UNL1        0.0280
     32 H           2.0552   -2.7564   -5.9526 H       1  UNL1        0.0266
     33 H           0.9782   -4.1226   -6.1752 H       1  UNL1        0.0266
     34 H           0.1062   -1.3040   -5.3205 H       1  UNL1        0.0266
     35 H           0.0360   -1.9680   -6.9473 H       1  UNL1        0.0266
     36 H          -2.1265   -2.3313   -6.2756 H       1  UNL1        0.0280
     37 H          -1.4218   -3.8941   -5.9294 H       1  UNL1        0.0280
     38 H          -2.0824   -1.6223   -4.0050 H       1  UNL1        0.0464
     39 H          -2.8483   -3.2165   -4.0711 H       1  UNL1        0.0464
     40 H          -4.3170    3.2826    0.2294 H       1  UNL1        0.0244
     41 H          -5.2484    2.8332    1.6485 H       1  UNL1        0.0244
     42 H          -3.5182    2.4781    1.5865 H       1  UNL1        0.0244
     43 N          -1.8474   -1.8383   -1.4127 N.2     1  UNL1       -0.3659
     44 H          -2.6665   -1.5400   -1.9419 H       1  UNL1        0.1611
     45 OXT        -4.3873   -0.1357    3.6542 O.co2   1  UNL1       -0.2442
@<TRIPOS>BOND
     1     1     2    1
     2     1    24    1
     3     1    25    1
     4     1    26    1
     5     2     8    1
     6     2     3    1
     7     2    23    1
     8     3     4    1
     9     3     5    1
    10     3    21    1
    11     5    11   am
    12     5     6    1
    13     6     7    1
    14     6     8    1
    15     6     9    1
    16     9    10    1
    17     9    11    1
    18     9    43    1
    19    11    12    2
    20    13    14    1
    21    13    27    1
    22    13    43    2
    23    14    20    1
    24    14    15    1
    25    15    16    1
    26    15    28    1
    27    15    29    1
    28    16    17    1
    29    16    30    1
    30    16    31    1
    31    17    18    1
    32    17    32    1
    33    17    33    1
    34    18    19    1
    35    18    34    1
    36    18    35    1
    37    19    20    1
    38    19    36    1
    39    19    37    1
    40    20    38    1
    41    20    39    1
    42    21    22   ar
    43    21    45   ar
    44    23    40    1
    45    23    41    1
    46    23    42    1
    47    43    44    1
