@<TRIPOS>MOLECULE
ZINC00000416
 49 50 0 0 0
SMALL
GASTEIGER

@<TRIPOS>ATOM
      1 C           3.3514    2.0854    1.5057 C.3     1  UNL1       -0.0216
      2 C           2.6272    1.2919    0.4138 C.3     1  UNL1       -0.0251
      3 H           1.5458    1.3138    0.5973 H       1  UNL1        0.0848
      4 C           3.1474   -0.1573    0.2812 C.3     1  UNL1       -0.0060
      5 C           2.8759   -1.0001    1.5355 C.3     1  UNL1       -0.0226
      6 C           3.4218   -2.4138    1.5386 C.ar    1  UNL1       -0.0472
      7 C           2.6312   -3.4574    2.0496 C.ar    1  UNL1       -0.0586
      8 C           3.1845   -4.7170    2.3159 C.ar    1  UNL1       -0.0615
      9 C           4.5298   -4.9516    2.0601 C.ar    1  UNL1       -0.0617
     10 C           5.3116   -3.9500    1.4908 C.ar    1  UNL1       -0.0615
     11 C           4.7620   -2.6902    1.2270 C.ar    1  UNL1       -0.0586
     12 N           2.8425    2.0302   -0.8809 N.4     1  UNL1        0.2310
     13 C           2.0211    1.5839   -2.0730 C.3     1  UNL1       -0.0026
     14 C           2.3519    2.4613   -3.3095 C.3     1  UNL1        0.1197
     15 H           1.7367    2.1384   -4.1566 H       1  UNL1        0.0698
     16 C           3.8210    2.3867   -3.6770 C.ar    1  UNL1       -0.0131
     17 C           4.7167    3.3959   -3.2845 C.ar    1  UNL1       -0.0524
     18 C           6.0781    3.2737   -3.5480 C.ar    1  UNL1       -0.0191
     19 C           6.5619    2.1448   -4.2028 C.ar    1  UNL1        0.1290
     20 C           5.6948    1.1276   -4.6292 C.ar    1  UNL1        0.0781
     21 C           4.3201    1.2600   -4.3615 C.ar    1  UNL1       -0.0403
     22 C           6.2683   -0.0716   -5.3029 C.2     1  UNL1        0.2451
     23 O           7.4779   -0.1806   -5.4362 O.2     1  UNL1       -0.2703
     24 N           5.4360   -1.0508   -5.7669 N.am    1  UNL1       -0.3252
     25 O           7.9191    2.1122   -4.3794 O.3     1  UNL1       -0.5060
     26 O           1.9877    3.8062   -2.9897 O.3     1  UNL1       -0.3819
     27 H           2.8579    1.9408    2.4719 H       1  UNL1        0.0284
     28 H           3.3548    3.1631    1.3047 H       1  UNL1        0.0284
     29 H           4.3941    1.7671    1.6141 H       1  UNL1        0.0284
     30 H           2.6665   -0.6603   -0.5645 H       1  UNL1        0.0323
     31 H           4.2204   -0.1330    0.0555 H       1  UNL1        0.0323
     32 H           3.3013   -0.5068    2.4176 H       1  UNL1        0.0315
     33 H           1.7895   -1.0332    1.6903 H       1  UNL1        0.0315
     34 H           1.5848   -3.2932    2.2985 H       1  UNL1        0.0620
     35 H           2.5718   -5.4974    2.7582 H       1  UNL1        0.0618
     36 H           4.9736   -5.9108    2.3185 H       1  UNL1        0.0618
     37 H           6.3640   -4.1392    1.2897 H       1  UNL1        0.0618
     38 H           5.4191   -1.9233    0.8266 H       1  UNL1        0.0620
     39 H           2.6143    3.0260   -0.7680 H       1  UNL1        0.2017
     40 H           2.2455    0.5330   -2.2660 H       1  UNL1        0.0843
     41 H           0.9754    1.7086   -1.7791 H       1  UNL1        0.0843
     42 H           4.3795    4.2908   -2.7649 H       1  UNL1        0.0622
     43 H           6.7706    4.0557   -3.2410 H       1  UNL1        0.0654
     44 H           3.6273    0.4833   -4.6697 H       1  UNL1        0.0630
     45 H           4.4328   -0.9973   -5.8410 H       1  UNL1        0.1453
     46 H           5.8856   -1.8126   -6.2654 H       1  UNL1        0.1453
     47 H           8.1577    1.2768   -4.8453 H       1  UNL1        0.2922
     48 H           2.1980    4.3470   -3.7784 H       1  UNL1        0.2105
     49 H           3.8448    2.0141   -1.1176 H       1  UNL1        0.2017
@<TRIPOS>UNITY_ATOM_ATTR
12 1
charge 1
@<TRIPOS>BOND
     1     1    27    1
     2     1    28    1
     3     1    29    1
     4     2     4    1
     5     2    12    1
     6     4     5    1
     7     4    30    1
     8     4    31    1
     9     5     6    1
    10     5    32    1
    11     5    33    1
    12     6    11   ar
    13     6     7   ar
    14     7     8   ar
    15     7    34    1
    16     8     9   ar
    17     8    35    1
    18     9    10   ar
    19     9    36    1
    20    10    11   ar
    21    10    37    1
    22    11    38    1
    23    12    13    1
    24    12    39    1
    25    12    49    1
    26    13    40    1
    27    13    41    1
    28    14    16    1
    29    14    26    1
    30    16    21   ar
    31    16    17   ar
    32    17    18   ar
    33    17    42    1
    34    18    19   ar
    35    18    43    1
    36    19    20   ar
    37    19    25    1
    38    20    21   ar
    39    20    22    1
    40    21    44    1
    41    22    23    2
    42    22    24   am
    43    24    45    1
    44    24    46    1
    45    25    47    1
    46    26    48    1
    47     2     3    1
    48     2     1    1
    49    14    15    1
    50    14    13    1
