@<TRIPOS>MOLECULE
ZINC00020252
 44 45 0 0 0
SMALL
GASTEIGER

@<TRIPOS>ATOM
      1 C           3.4155   -1.9284    1.6666 C.3     1  UNL1       -0.0213
      2 C           2.6738   -2.2480    0.3650 C.3     1  UNL1       -0.0214
      3 H           1.5932   -2.1866    0.5358 H       1  UNL1        0.0851
      4 C           3.0703   -3.6350   -0.1937 C.3     1  UNL1        0.0152
      5 C           2.7286   -4.7766    0.7446 C.ar    1  UNL1       -0.0418
      6 C           3.7393   -5.6111    1.2502 C.ar    1  UNL1       -0.0549
      7 C           3.4416   -6.6096    2.1847 C.ar    1  UNL1       -0.0199
      8 C           2.1317   -6.7737    2.6155 C.ar    1  UNL1        0.1169
      9 C           1.1084   -6.0049    2.0798 C.ar    1  UNL1       -0.0199
     10 C           1.4024   -5.0115    1.1423 C.ar    1  UNL1       -0.0549
     11 O           1.8054   -7.6761    3.5823 O.3     1  UNL1       -0.5068
     12 N           2.9982   -1.1264   -0.5974 N.4     1  UNL1        0.2313
     13 C           2.3491   -1.1323   -1.9694 C.3     1  UNL1       -0.0025
     14 C           2.8568    0.1025   -2.7556 C.3     1  UNL1        0.1199
     15 H           2.5605    1.0149   -2.2244 H       1  UNL1        0.0698
     16 C           2.3718    0.1653   -4.1877 C.ar    1  UNL1       -0.0072
     17 C           1.6233    1.2578   -4.6609 C.ar    1  UNL1       -0.0141
     18 C           1.1980    1.3125   -5.9882 C.ar    1  UNL1        0.1207
     19 C           1.5328    0.3081   -6.8939 C.ar    1  UNL1        0.0213
     20 C           2.2811   -0.7679   -6.4269 C.ar    1  UNL1        0.1207
     21 C           2.6780   -0.8536   -5.0951 C.ar    1  UNL1       -0.0141
     22 O           2.6732   -1.7789   -7.2564 O.3     1  UNL1       -0.5066
     23 O           0.4436    2.3787   -6.3722 O.3     1  UNL1       -0.5066
     24 O           4.2912    0.0364   -2.6856 O.3     1  UNL1       -0.3819
     25 H           3.1863   -2.6590    2.4491 H       1  UNL1        0.0284
     26 H           3.1291   -0.9439    2.0517 H       1  UNL1        0.0284
     27 H           4.5008   -1.9289    1.5144 H       1  UNL1        0.0284
     28 H           2.5595   -3.8321   -1.1430 H       1  UNL1        0.0368
     29 H           4.1459   -3.6435   -0.4125 H       1  UNL1        0.0368
     30 H           4.7738   -5.4926    0.9339 H       1  UNL1        0.0621
     31 H           4.2359   -7.2476    2.5623 H       1  UNL1        0.0654
     32 H           0.0849   -6.1712    2.4074 H       1  UNL1        0.0654
     33 H           0.5775   -4.4260    0.7444 H       1  UNL1        0.0621
     34 H           2.6078   -7.9107    4.0783 H       1  UNL1        0.2921
     35 H           2.7531   -0.2354   -0.1442 H       1  UNL1        0.2017
     36 H           2.6923   -2.0514   -2.4517 H       1  UNL1        0.0843
     37 H           1.2641   -1.1431   -1.8386 H       1  UNL1        0.0843
     38 H           1.3566    2.0917   -4.0050 H       1  UNL1        0.0658
     39 H           1.2189    0.3627   -7.9269 H       1  UNL1        0.0691
     40 H           3.2605   -1.7285   -4.7957 H       1  UNL1        0.0658
     41 H           2.5061   -1.5170   -8.1773 H       1  UNL1        0.2921
     42 H           0.1690    2.2808   -7.3051 H       1  UNL1        0.2921
     43 H           4.6443   -0.0001   -3.5971 H       1  UNL1        0.2105
     44 H           4.0183   -1.0480   -0.7616 H       1  UNL1        0.2017
@<TRIPOS>UNITY_ATOM_ATTR
12 1
charge 1
@<TRIPOS>BOND
     1     1    25    1
     2     1    26    1
     3     1    27    1
     4     2     4    1
     5     2    12    1
     6     4     5    1
     7     4    28    1
     8     4    29    1
     9     5    10   ar
    10     5     6   ar
    11     6     7   ar
    12     6    30    1
    13     7     8   ar
    14     7    31    1
    15     8     9   ar
    16     8    11    1
    17     9    10   ar
    18     9    32    1
    19    10    33    1
    20    11    34    1
    21    12    13    1
    22    12    35    1
    23    12    44    1
    24    13    36    1
    25    13    37    1
    26    14    16    1
    27    14    24    1
    28    16    21   ar
    29    16    17   ar
    30    17    18   ar
    31    17    38    1
    32    18    19   ar
    33    18    23    1
    34    19    20   ar
    35    19    39    1
    36    20    21   ar
    37    20    22    1
    38    21    40    1
    39    22    41    1
    40    23    42    1
    41    24    43    1
    42     2     3    1
    43     2     1    1
    44    14    15    1
    45    14    13    1
