@<TRIPOS>MOLECULE
ZINC00000808
 44 46 0 0 0
SMALL
GASTEIGER

@<TRIPOS>ATOM
      1 C           0.6969    0.6618    0.4458 C.3     1  UNL1       -0.0561
      2 C           0.2792   -0.5245    1.3225 C.3     1  UNL1        0.0124
      3 H           0.1893   -0.1239    2.3399 H       1  UNL1        0.0365
      4 C          -1.1513   -1.0475    1.0041 C.3     1  UNL1        0.0247
      5 N          -1.4854   -1.2417   -0.4354 N.pl3   1  UNL1       -0.2979
      6 C          -2.9239   -1.1599   -0.5725 C.ar    1  UNL1        0.0479
      7 C          -3.5211    0.0929   -0.7405 C.ar    1  UNL1       -0.0393
      8 C          -4.8643    0.1907   -1.0977 C.ar    1  UNL1       -0.0599
      9 C          -5.6338   -0.9529   -1.2953 C.ar    1  UNL1       -0.0606
     10 C          -5.0703   -2.2071   -1.0674 C.ar    1  UNL1       -0.0462
     11 C          -3.7311   -2.3164   -0.6771 C.ar    1  UNL1        0.0341
     12 S          -3.0497   -3.9312   -0.3118 S.3     1  UNL1       -0.0857
     13 C          -1.4292   -3.6669   -1.0114 C.ar    1  UNL1        0.0341
     14 C          -0.8591   -2.3759   -1.0370 C.ar    1  UNL1        0.0479
     15 C           0.2477   -2.1659   -1.8724 C.ar    1  UNL1       -0.0393
     16 C           0.8271   -3.2206   -2.5820 C.ar    1  UNL1       -0.0599
     17 C           0.3136   -4.5087   -2.4632 C.ar    1  UNL1       -0.0606
     18 C          -0.8179   -4.7335   -1.6830 C.ar    1  UNL1       -0.0462
     19 C           1.3316   -1.6474    1.4097 C.3     1  UNL1       -0.0283
     20 N           2.6480   -1.1686    2.0426 N.4     1  UNL1        0.2311
     21 C           2.5375   -0.7068    3.4739 C.3     1  UNL1       -0.0433
     22 C           3.7558   -2.1881    1.9160 C.3     1  UNL1       -0.0433
     23 H           0.1755    1.5691    0.7718 H       1  UNL1        0.0235
     24 H           0.4588    0.5156   -0.6098 H       1  UNL1        0.0235
     25 H           1.7684    0.8777    0.5041 H       1  UNL1        0.0235
     26 H          -1.3590   -1.9517    1.5908 H       1  UNL1        0.0472
     27 H          -1.8183   -0.2727    1.4143 H       1  UNL1        0.0472
     28 H          -2.9254    1.0015   -0.6395 H       1  UNL1        0.0636
     29 H          -5.3119    1.1725   -1.2606 H       1  UNL1        0.0618
     30 H          -6.6614   -0.8663   -1.6338 H       1  UNL1        0.0618
     31 H          -5.6787   -3.0950   -1.2227 H       1  UNL1        0.0629
     32 H           0.6091   -1.1575   -2.0480 H       1  UNL1        0.0636
     33 H           1.6437   -3.0261   -3.2735 H       1  UNL1        0.0618
     34 H           0.7441   -5.3254   -3.0388 H       1  UNL1        0.0618
     35 H          -1.2652   -5.7257   -1.6668 H       1  UNL1        0.0629
     36 H           0.9855   -2.4852    2.0256 H       1  UNL1        0.0817
     37 H           1.6004   -2.0139    0.4168 H       1  UNL1        0.0817
     38 H           2.1174   -1.5230    4.0714 H       1  UNL1        0.0777
     39 H           3.5402   -0.4469    3.8281 H       1  UNL1        0.0777
     40 H           1.9073    0.1814    3.5153 H       1  UNL1        0.0777
     41 H           3.6514   -2.7153    0.9668 H       1  UNL1        0.0777
     42 H           4.7048   -1.6428    1.9348 H       1  UNL1        0.0777
     43 H           3.6968   -2.8830    2.7585 H       1  UNL1        0.0777
     44 H           2.9684   -0.3592    1.4969 H       1  UNL1        0.2028
@<TRIPOS>UNITY_ATOM_ATTR
20 1
charge 1
@<TRIPOS>BOND
     1     1     2    1
     2     1    23    1
     3     1    24    1
     4     1    25    1
     5     2     3    1
     6     2     4    1
     7     2    19    1
     8     4     5    1
     9     4    26    1
    10     4    27    1
    11     5    14    1
    12     5     6    1
    13     6    11   ar
    14     6     7   ar
    15     7     8   ar
    16     7    28    1
    17     8     9   ar
    18     8    29    1
    19     9    10   ar
    20     9    30    1
    21    10    11   ar
    22    10    31    1
    23    11    12    1
    24    12    13    1
    25    13    18   ar
    26    13    14   ar
    27    14    15   ar
    28    15    16   ar
    29    15    32    1
    30    16    17   ar
    31    16    33    1
    32    17    18   ar
    33    17    34    1
    34    18    35    1
    35    19    20    1
    36    19    36    1
    37    19    37    1
    38    20    21    1
    39    20    22    1
    40    20    44    1
    41    21    38    1
    42    21    39    1
    43    21    40    1
    44    22    41    1
    45    22    42    1
    46    22    43    1
