@<TRIPOS>MOLECULE
ZINC03798763
 65 66 0 0 0
SMALL
GASTEIGER

@<TRIPOS>ATOM
      1 C           0.7510    6.3515   -9.6423 C.3     1  UNL1       -0.0645
      2 C           0.8328    4.9028  -10.1068 C.3     1  UNL1       -0.0432
      3 C          -0.5096    4.1417  -10.0900 C.3     1  UNL1        0.0534
      4 H          -0.3256    3.1788  -10.5820 H       1  UNL1        0.0410
      5 C          -1.5705    4.8815  -10.9158 C.3     1  UNL1       -0.0523
      6 C          -1.0290    3.7730   -8.6898 C.2     1  UNL1        0.3102
      7 O          -2.2063    3.5298   -8.4540 O.2     1  UNL1       -0.2505
      8 O          -0.0139    3.6568   -7.7991 O.3     1  UNL1       -0.4604
      9 C          -0.1916    3.2119   -6.4222 C.3     1  UNL1        0.1127
     10 H           0.8025    3.4245   -5.9876 H       1  UNL1        0.0741
     11 C          -1.1472    4.1681   -5.6674 C.3     1  UNL1        0.0146
     12 C          -1.7598    3.5801   -4.4050 C.3     1  UNL1        0.0773
     13 H          -2.6074    4.2146   -4.1170 H       1  UNL1        0.0639
     14 C          -2.2713    2.2010   -4.6425 C.2     1  UNL1       -0.0522
     15 C          -1.7436    1.3725   -5.5620 C.2     1  UNL1       -0.0423
     16 C          -0.3922    1.6694   -6.2175 C.3     1  UNL1        0.0245
     17 H           0.3443    1.3709   -5.4535 H       1  UNL1        0.0388
     18 C          -0.0896    0.7613   -7.4557 C.3     1  UNL1       -0.0247
     19 H          -0.7656    1.1650   -8.2269 H       1  UNL1        0.0313
     20 C          -0.6665   -0.7163   -7.3517 C.3     1  UNL1       -0.0219
     21 H          -0.6624   -1.1294   -8.3683 H       1  UNL1        0.0343
     22 C          -2.0886   -0.6773   -6.8616 C.2     1  UNL1       -0.0806
     23 C          -2.5123    0.2158   -5.9646 C.2     1  UNL1       -0.0621
     24 C          -0.0961   -1.7999   -6.4276 C.3     1  UNL1       -0.0587
     25 C           1.3033    0.9618   -8.1587 C.3     1  UNL1       -0.0467
     26 C           2.6492    1.1708   -7.4163 C.3     1  UNL1       -0.0265
     27 C           3.4515   -0.1208   -7.2047 C.3     1  UNL1        0.0576
     28 H           3.3497   -0.7146   -8.1243 H       1  UNL1        0.0594
     29 C           2.8997   -0.9454   -6.0653 C.3     1  UNL1       -0.0002
     30 C           2.9586   -0.5665   -4.5903 C.3     1  UNL1        0.0678
     31 H           2.4767    0.4024   -4.4182 H       1  UNL1        0.0599
     32 C           4.3493   -0.6231   -3.9988 C.3     1  UNL1        0.0752
     33 C           4.2410   -0.1522   -2.5438 C.2     1  UNL1        0.3585
     34 O           3.4102   -0.7987   -1.8315 O.co2   1  UNL1       -0.2463
     35 O           4.9809    0.8203   -2.2387 O.co2   1  UNL1       -0.2463
     36 O           2.1304   -1.5652   -3.9464 O.3     1  UNL1       -0.3912
     37 O           4.8352    0.1435   -7.0766 O.3     1  UNL1       -0.3917
     38 O          -0.8366    3.6002   -3.3366 O.3     1  UNL1       -0.3876
     39 H           0.1994    6.9674  -10.3613 H       1  UNL1        0.0230
     40 H           1.7579    6.7739   -9.5558 H       1  UNL1        0.0230
     41 H           0.2606    6.4370   -8.6690 H       1  UNL1        0.0230
     42 H           1.2308    4.8936  -11.1303 H       1  UNL1        0.0270
     43 H           1.5743    4.3768   -9.4949 H       1  UNL1        0.0270
     44 H          -2.4601    4.2629  -11.0558 H       1  UNL1        0.0238
     45 H          -1.8891    5.8094  -10.4307 H       1  UNL1        0.0238
     46 H          -1.1813    5.1317  -11.9119 H       1  UNL1        0.0238
     47 H          -1.9684    4.4814   -6.3190 H       1  UNL1        0.0329
     48 H          -0.6081    5.0932   -5.4270 H       1  UNL1        0.0329
     49 H          -3.1913    1.9372   -4.1287 H       1  UNL1        0.0600
     50 H          -2.7222   -1.5257   -7.1077 H       1  UNL1        0.0575
     51 H          -3.4920    0.0693   -5.5187 H       1  UNL1        0.0617
     52 H           0.1220   -1.3986   -5.4306 H       1  UNL1        0.0235
     53 H          -0.8022   -2.6241   -6.2491 H       1  UNL1        0.0235
     54 H           0.7686   -2.3047   -6.8674 H       1  UNL1        0.0235
     55 H           1.4240    0.1984   -8.9359 H       1  UNL1        0.0269
     56 H           1.2024    1.8871   -8.7412 H       1  UNL1        0.0269
     57 H           3.2741    1.8146   -8.0563 H       1  UNL1        0.0290
     58 H           2.5368    1.7335   -6.4854 H       1  UNL1        0.0290
     59 H           1.8544   -0.8924   -6.2750 H       1  UNL1        0.0315
     60 H           3.1865   -1.9961   -6.1889 H       1  UNL1        0.0315
     61 H           4.7375   -1.6470   -3.9992 H       1  UNL1        0.0404
     62 H           5.0358    0.0236   -4.5482 H       1  UNL1        0.0404
     63 H           2.3149   -1.4591   -2.9763 H       1  UNL1        0.2098
     64 H           5.2946   -0.7089   -7.1800 H       1  UNL1        0.2098
     65 H          -1.2751    3.2116   -2.5603 H       1  UNL1        0.2102
@<TRIPOS>BOND
     1     1     2    1
     2     1    39    1
     3     1    40    1
     4     1    41    1
     5     2    42    1
     6     2    43    1
     7     3     5    1
     8     3     6    1
     9     5    44    1
    10     5    45    1
    11     5    46    1
    12     6     7    2
    13     6     8    1
    14     9    16    1
    15     9    11    1
    16    11    12    1
    17    11    47    1
    18    11    48    1
    19    12    14    1
    20    14    15    2
    21    14    49    1
    22    15    23    1
    23    15    16    1
    24    16    17    1
    25    16    18    1
    26    18    19    1
    27    18    20    1
    28    18    25    1
    29    20    21    1
    30    20    22    1
    31    20    24    1
    32    22    23    2
    33    22    50    1
    34    23    51    1
    35    24    52    1
    36    24    53    1
    37    24    54    1
    38    25    26    1
    39    25    55    1
    40    25    56    1
    41    26    57    1
    42    26    58    1
    43    27    29    1
    44    27    37    1
    45    29    59    1
    46    29    60    1
    47    30    32    1
    48    30    36    1
    49    32    33    1
    50    32    61    1
    51    32    62    1
    52    33    34   ar
    53    33    35   ar
    54    36    63    1
    55    37    64    1
    56    38    65    1
    57     3     4    1
    58     3     2    1
    59     9    10    1
    60     9     8    1
    61    12    38    1
    62    12    13    1
    63    27    28    1
    64    27    26    1
    65    30    31    1
    66    30    29    1
