@<TRIPOS>MOLECULE
ZINC00608179
 55 57 0 0 0
SMALL
GASTEIGER

@<TRIPOS>ATOM
      1 C           5.6432   -3.2248   -0.1931 C.3     1  UNL1       -0.0306
      2 C           5.2733   -4.2742   -1.2237 C.3     1  UNL1        0.0897
      3 O           4.6449   -3.5887   -2.3204 O.3     1  UNL1       -0.4643
      4 C           3.2982   -3.4521   -2.2083 C.2     1  UNL1        0.3181
      5 O           2.5906   -4.0872   -1.4390 O.2     1  UNL1       -0.2498
      6 C           2.7492   -2.3501   -3.1362 C.3     1  UNL1        0.1021
      7 C           3.7871   -1.8376   -4.1768 C.3     1  UNL1        0.0075
      8 C           3.1608   -0.8699   -5.1831 C.3     1  UNL1       -0.0306
      9 C           0.9913   -2.0932   -4.9634 C.3     1  UNL1       -0.0306
     10 C           1.6463   -3.0460   -3.9806 C.3     1  UNL1        0.0075
     11 C           2.4795   -2.4262   -7.0620 C.3     1  UNL1       -0.0278
     12 C           1.3132   -3.0614   -7.8240 C.3     1  UNL1        0.0127
     13 C           1.7734   -3.8365   -9.0308 C.ar    1  UNL1       -0.0422
     14 C           1.8702   -3.2206  -10.2815 C.ar    1  UNL1       -0.0567
     15 C           2.2964   -3.9515  -11.3985 C.ar    1  UNL1       -0.0408
     16 C           2.5948   -5.3085  -11.2935 C.ar    1  UNL1        0.0246
     17 C           2.5511   -5.9085  -10.0354 C.ar    1  UNL1       -0.0408
     18 C           2.1242   -5.1889   -8.9126 C.ar    1  UNL1       -0.0567
     19 N           3.1517   -5.9929  -12.3801 N.pl3   1  UNL1       -0.3580
     20 C           2.2239   -1.2099   -2.2306 C.ar    1  UNL1       -0.0302
     21 C           3.0312   -0.1100   -1.8765 C.ar    1  UNL1       -0.0575
     22 C           2.5346    0.9346   -1.0903 C.ar    1  UNL1       -0.0615
     23 C           1.2335    0.8867   -0.6062 C.ar    1  UNL1       -0.0617
     24 C           0.4396   -0.2197   -0.8811 C.ar    1  UNL1       -0.0615
     25 C           0.9332   -1.2609   -1.6716 C.ar    1  UNL1       -0.0575
     26 H           6.2929   -2.4674   -0.6445 H       1  UNL1        0.0262
     27 H           6.1531   -3.6687    0.6650 H       1  UNL1        0.0262
     28 H           4.7495   -2.6973    0.1596 H       1  UNL1        0.0262
     29 H           6.1722   -4.7674   -1.6077 H       1  UNL1        0.0694
     30 H           4.6330   -5.0525   -0.7932 H       1  UNL1        0.0694
     31 H           4.6453   -1.3537   -3.6969 H       1  UNL1        0.0331
     32 H           4.2230   -2.6881   -4.7174 H       1  UNL1        0.0331
     33 H           2.7509    0.0232   -4.7000 H       1  UNL1        0.0815
     34 H           3.8894   -0.5374   -5.9297 H       1  UNL1        0.0815
     35 H           0.2026   -2.5848   -5.5359 H       1  UNL1        0.0815
     36 H           0.5256   -1.2385   -4.4624 H       1  UNL1        0.0815
     37 H           2.0862   -3.8918   -4.5288 H       1  UNL1        0.0331
     38 H           0.8741   -3.4990   -3.3486 H       1  UNL1        0.0331
     39 H           3.0612   -1.7787   -7.7294 H       1  UNL1        0.0818
     40 H           3.1478   -3.1832   -6.6408 H       1  UNL1        0.0818
     41 H           0.7633   -3.7535   -7.1765 H       1  UNL1        0.0365
     42 H           0.5950   -2.2919   -8.1344 H       1  UNL1        0.0365
     43 H           1.6170   -2.1723  -10.4156 H       1  UNL1        0.0621
     44 H           2.3853   -3.4479  -12.3576 H       1  UNL1        0.0636
     45 H           2.8402   -6.9499   -9.9173 H       1  UNL1        0.0636
     46 H           2.0712   -5.7027   -7.9583 H       1  UNL1        0.0621
     47 H           3.0653   -7.0030  -12.3305 H       1  UNL1        0.1423
     48 H           2.8708   -5.6337  -13.2875 H       1  UNL1        0.1423
     49 H           4.0722   -0.0339   -2.1796 H       1  UNL1        0.0621
     50 H           3.1719    1.7799   -0.8381 H       1  UNL1        0.0618
     51 H           0.8503    1.6931    0.0150 H       1  UNL1        0.0618
     52 H          -0.5613   -0.2844   -0.4594 H       1  UNL1        0.0618
     53 H           0.2866   -2.1254   -1.8061 H       1  UNL1        0.0621
     54 N           2.0079   -1.5222   -5.9217 N.4     1  UNL1        0.2355
     55 H           1.5202   -0.7466   -6.3933 H       1  UNL1        0.2033
@<TRIPOS>UNITY_ATOM_ATTR
54 1
charge 1
@<TRIPOS>BOND
     1     1     2    1
     2     1    26    1
     3     1    27    1
     4     1    28    1
     5     2     3    1
     6     2    29    1
     7     2    30    1
     8     3     4    1
     9     4     5    2
    10     6    10    1
    11     6     7    1
    12     7     8    1
    13     7    31    1
    14     7    32    1
    15     8    33    1
    16     8    34    1
    17     8    54    1
    18     9    10    1
    19     9    35    1
    20     9    36    1
    21     9    54    1
    22    10    37    1
    23    10    38    1
    24    11    12    1
    25    11    39    1
    26    11    40    1
    27    11    54    1
    28    12    13    1
    29    12    41    1
    30    12    42    1
    31    13    18   ar
    32    13    14   ar
    33    14    15   ar
    34    14    43    1
    35    15    16   ar
    36    15    44    1
    37    16    17   ar
    38    16    19    1
    39    17    18   ar
    40    17    45    1
    41    18    46    1
    42    19    47    1
    43    19    48    1
    44    20    25   ar
    45    20    21   ar
    46    21    22   ar
    47    21    49    1
    48    22    23   ar
    49    22    50    1
    50    23    24   ar
    51    23    51    1
    52    24    25   ar
    53    24    52    1
    54    25    53    1
    55    54    55    1
    56     6    20    1
    57     6     4    1
