@<TRIPOS>MOLECULE
ZINC03830283
 62 64 0 0 0
SMALL
GASTEIGER

@<TRIPOS>ATOM
      1 C          -1.7280    2.7216    2.8489 C.3     1  UNL1       -0.0606
      2 C          -1.7222    3.6056    1.6011 C.3     1  UNL1       -0.0232
      3 C          -1.1978    5.0004    1.9295 C.3     1  UNL1       -0.0606
      4 C          -0.9053    2.9843    0.4616 C.3     1  UNL1        0.0502
      5 O          -1.3813    1.6568    0.2256 O.3     1  UNL1       -0.3739
      6 C          -0.8528    1.0956   -0.9716 C.3     1  UNL1        0.0918
      7 C          -1.4746   -0.2957   -1.2497 C.3     1  UNL1        0.0190
      8 H          -1.3500   -0.9440   -0.3745 H       1  UNL1        0.0890
      9 C          -0.8028   -0.9243   -2.5287 C.3     1  UNL1        0.0576
     10 N           0.6688   -0.9601   -2.4692 N.pl3   1  UNL1       -0.3201
     11 C           1.2736   -2.1338   -1.8023 C.3     1  UNL1        0.0374
     12 C           1.5310   -3.3234   -2.7079 C.ar    1  UNL1       -0.0302
     13 C           1.4835   -4.6150   -2.1496 C.ar    1  UNL1       -0.0571
     14 C           1.8458   -5.7404   -2.8923 C.ar    1  UNL1       -0.0615
     15 C           2.2594   -5.5968   -4.2105 C.ar    1  UNL1       -0.0617
     16 C           2.3124   -4.3275   -4.7863 C.ar    1  UNL1       -0.0615
     17 C           1.9548   -3.1996   -4.0383 C.ar    1  UNL1       -0.0571
     18 C           1.4682    0.0446   -3.0171 C.ar    1  UNL1        0.0301
     19 C           1.0401    0.8555   -4.0842 C.ar    1  UNL1       -0.0406
     20 C           1.8597    1.8451   -4.6515 C.ar    1  UNL1       -0.0600
     21 C           3.1393    2.0624   -4.1611 C.ar    1  UNL1       -0.0616
     22 C           3.5876    1.3025   -3.0925 C.ar    1  UNL1       -0.0600
     23 C           2.7625    0.3160   -2.5338 C.ar    1  UNL1       -0.0406
     24 N          -3.0360   -0.2073   -1.4889 N.4     1  UNL1        0.2401
     25 C          -3.8999    0.5439   -0.4864 C.3     1  UNL1       -0.0313
     26 C          -4.2667   -0.4904    0.5460 C.3     1  UNL1       -0.0077
     27 C          -4.5200   -1.7335   -0.2806 C.3     1  UNL1       -0.0077
     28 C          -3.7128   -1.5706   -1.5651 C.3     1  UNL1       -0.0313
     29 H          -0.7113    2.5436    3.2101 H       1  UNL1        0.0233
     30 H          -2.1951    1.7514    2.6476 H       1  UNL1        0.0233
     31 H          -2.2955    3.1953    3.6568 H       1  UNL1        0.0233
     32 H          -2.7647    3.6941    1.2675 H       1  UNL1        0.0318
     33 H          -0.1471    4.9647    2.2364 H       1  UNL1        0.0233
     34 H          -1.2748    5.6591    1.0583 H       1  UNL1        0.0233
     35 H          -1.7738    5.4524    2.7436 H       1  UNL1        0.0233
     36 H          -1.0332    3.5883   -0.4456 H       1  UNL1        0.0562
     37 H           0.1609    2.9446    0.7103 H       1  UNL1        0.0562
     38 H          -1.0397    1.7662   -1.8178 H       1  UNL1        0.0617
     39 H           0.2261    1.0017   -0.8175 H       1  UNL1        0.0617
     40 H          -1.1580   -1.9526   -2.6588 H       1  UNL1        0.0520
     41 H          -1.1705   -0.3999   -3.4150 H       1  UNL1        0.0520
     42 H           2.2062   -1.9023   -1.2819 H       1  UNL1        0.0513
     43 H           0.5851   -2.4513   -1.0080 H       1  UNL1        0.0513
     44 H           1.1984   -4.7530   -1.1062 H       1  UNL1        0.0621
     45 H           1.8216   -6.7280   -2.4374 H       1  UNL1        0.0618
     46 H           2.5645   -6.4669   -4.7864 H       1  UNL1        0.0618
     47 H           2.6587   -4.2149   -5.8119 H       1  UNL1        0.0618
     48 H           2.0459   -2.2216   -4.5068 H       1  UNL1        0.0621
     49 H           0.0735    0.7168   -4.5550 H       1  UNL1        0.0636
     50 H           1.5027    2.4320   -5.4951 H       1  UNL1        0.0618
     51 H           3.7861    2.8111   -4.6120 H       1  UNL1        0.0618
     52 H           4.5849    1.4663   -2.6895 H       1  UNL1        0.0618
     53 H           3.1776   -0.2162   -1.6842 H       1  UNL1        0.0636
     54 H          -4.7897    0.8653   -1.0429 H       1  UNL1        0.0814
     55 H          -3.4384    1.4412   -0.0965 H       1  UNL1        0.0814
     56 H          -3.4436   -0.6548    1.2496 H       1  UNL1        0.0319
     57 H          -5.1500   -0.1985    1.1240 H       1  UNL1        0.0319
     58 H          -4.2335   -2.6380    0.2660 H       1  UNL1        0.0319
     59 H          -5.5861   -1.8298   -0.5193 H       1  UNL1        0.0319
     60 H          -2.9692   -2.3589   -1.6805 H       1  UNL1        0.0814
     61 H          -4.3676   -1.5430   -2.4423 H       1  UNL1        0.0814
     62 H          -3.1560    0.2834   -2.3832 H       1  UNL1        0.2038
@<TRIPOS>UNITY_ATOM_ATTR
24 1
charge 1
@<TRIPOS>BOND
     1     1     2    1
     2     1    29    1
     3     1    30    1
     4     1    31    1
     5     2     3    1
     6     2     4    1
     7     2    32    1
     8     3    33    1
     9     3    34    1
    10     3    35    1
    11     4     5    1
    12     4    36    1
    13     4    37    1
    14     5     6    1
    15     6    38    1
    16     6    39    1
    17     7     9    1
    18     7    24    1
    19     9    10    1
    20     9    40    1
    21     9    41    1
    22    10    11    1
    23    10    18    1
    24    11    12    1
    25    11    42    1
    26    11    43    1
    27    12    17   ar
    28    12    13   ar
    29    13    14   ar
    30    13    44    1
    31    14    15   ar
    32    14    45    1
    33    15    16   ar
    34    15    46    1
    35    16    17   ar
    36    16    47    1
    37    17    48    1
    38    18    23   ar
    39    18    19   ar
    40    19    20   ar
    41    19    49    1
    42    20    21   ar
    43    20    50    1
    44    21    22   ar
    45    21    51    1
    46    22    23   ar
    47    22    52    1
    48    23    53    1
    49    24    28    1
    50    24    25    1
    51    24    62    1
    52    25    26    1
    53    25    54    1
    54    25    55    1
    55    26    27    1
    56    26    56    1
    57    26    57    1
    58    27    28    1
    59    27    58    1
    60    27    59    1
    61    28    60    1
    62    28    61    1
    63     7     8    1
    64     7     6    1
