@<TRIPOS>MOLECULE
ZINC00403566
 47 50 0 0 0
SMALL
GASTEIGER

@<TRIPOS>ATOM
      1 C           3.7710   -0.3254    0.1750 C.ar    1  UNL1       -0.0615
      2 C           3.1369   -1.5002   -0.1934 C.ar    1  UNL1       -0.0614
      3 C           1.7615   -1.5068   -0.4257 C.ar    1  UNL1       -0.0565
      4 C           0.9780   -0.3462   -0.2630 C.ar    1  UNL1       -0.0223
      5 C           1.6473    0.8565    0.0215 C.ar    1  UNL1       -0.0409
      6 C           3.0311    0.8484    0.2738 C.ar    1  UNL1       -0.0582
      7 C           0.9262    2.1669    0.1160 C.3     1  UNL1       -0.0115
      8 C          -0.5568    2.1375   -0.2164 C.3     1  UNL1        0.0194
      9 N          -1.2183    0.8618   -0.0488 N.am    1  UNL1       -0.2913
     10 C          -0.5353   -0.4024   -0.4080 C.3     1  UNL1        0.0672
     11 H          -0.7648   -0.5920   -1.4698 H       1  UNL1        0.0566
     12 C          -1.1446   -1.5454    0.4513 C.3     1  UNL1        0.0380
     13 N          -2.6045   -1.5923    0.3023 N.am    1  UNL1       -0.2903
     14 C          -3.2735   -0.3348    0.6094 C.3     1  UNL1        0.0913
     15 C          -2.6145    0.8904   -0.0243 C.2     1  UNL1        0.2335
     16 O          -3.2696    1.9116   -0.2506 O.2     1  UNL1       -0.2739
     17 C          -3.2000   -2.7142   -0.2570 C.2     1  UNL1        0.2191
     18 O          -2.5191   -3.6735   -0.6114 O.2     1  UNL1       -0.2753
     19 C          -4.7344   -2.7285   -0.4190 C.3     1  UNL1        0.0358
     20 C          -5.2096   -3.8884   -1.3124 C.3     1  UNL1       -0.0419
     21 C          -5.1766   -5.2519   -0.6228 C.3     1  UNL1       -0.0524
     22 C          -5.8815   -5.2523    0.7274 C.3     1  UNL1       -0.0530
     23 C          -5.4583   -4.0935    1.6213 C.3     1  UNL1       -0.0524
     24 C          -5.5087   -2.7454    0.9090 C.3     1  UNL1       -0.0419
     25 H           4.8386   -0.3128    0.3810 H       1  UNL1        0.0618
     26 H           3.7122   -2.4177   -0.2973 H       1  UNL1        0.0618
     27 H           1.2993   -2.4518   -0.7231 H       1  UNL1        0.0621
     28 H           3.5376    1.7736    0.5414 H       1  UNL1        0.0620
     29 H           1.4063    2.8837   -0.5621 H       1  UNL1        0.0328
     30 H           1.0568    2.5568    1.1330 H       1  UNL1        0.0328
     31 H          -0.7503    2.5134   -1.2276 H       1  UNL1        0.0468
     32 H          -1.0546    2.8444    0.4655 H       1  UNL1        0.0468
     33 H          -0.9374   -1.3588    1.5137 H       1  UNL1        0.0486
     34 H          -0.7032   -2.5168    0.2106 H       1  UNL1        0.0486
     35 H          -4.3240   -0.3347    0.3256 H       1  UNL1        0.0560
     36 H          -3.2043   -0.1935    1.6946 H       1  UNL1        0.0560
     37 H          -4.9888   -1.8138   -0.9682 H       1  UNL1        0.0394
     38 H          -6.2416   -3.6825   -1.6273 H       1  UNL1        0.0272
     39 H          -4.6094   -3.9308   -2.2299 H       1  UNL1        0.0272
     40 H          -4.1401   -5.5782   -0.4890 H       1  UNL1        0.0265
     41 H          -5.6486   -5.9943   -1.2772 H       1  UNL1        0.0265
     42 H          -5.6760   -6.1991    1.2415 H       1  UNL1        0.0265
     43 H          -6.9647   -5.2090    0.5683 H       1  UNL1        0.0265
     44 H          -4.4443   -4.2690    1.9984 H       1  UNL1        0.0265
     45 H          -6.1175   -4.0601    2.4974 H       1  UNL1        0.0265
     46 H          -5.1441   -1.9808    1.6004 H       1  UNL1        0.0272
     47 H          -6.5581   -2.4980    0.7010 H       1  UNL1        0.0272
@<TRIPOS>BOND
     1     1     6   ar
     2     1     2   ar
     3     1    25    1
     4     2     3   ar
     5     2    26    1
     6     3     4   ar
     7     3    27    1
     8     4    10    1
     9     4     5   ar
    10     5     6   ar
    11     5     7    1
    12     6    28    1
    13     7     8    1
    14     7    29    1
    15     7    30    1
    16     8     9    1
    17     8    31    1
    18     8    32    1
    19     9    15   am
    20     9    10    1
    21    10    11    1
    22    10    12    1
    23    12    13    1
    24    12    33    1
    25    12    34    1
    26    13    14    1
    27    13    17   am
    28    14    15    1
    29    14    35    1
    30    14    36    1
    31    15    16    2
    32    17    18    2
    33    17    19    1
    34    19    24    1
    35    19    20    1
    36    19    37    1
    37    20    21    1
    38    20    38    1
    39    20    39    1
    40    21    22    1
    41    21    40    1
    42    21    41    1
    43    22    23    1
    44    22    42    1
    45    22    43    1
    46    23    24    1
    47    23    44    1
    48    23    45    1
    49    24    46    1
    50    24    47    1
