@<TRIPOS>MOLECULE
ZINC00057175
 26 27 0 0 0
SMALL
GASTEIGER

@<TRIPOS>ATOM
      1 C          -0.6837    1.1667    0.0160 C.ar    1  UNL1       -0.0194
      2 C           0.7031    1.3024    0.0379 C.ar    1  UNL1        0.0275
      3 C           1.4844    0.1525   -0.0676 C.ar    1  UNL1       -0.0194
      4 C           0.8965   -1.1181   -0.1145 C.ar    1  UNL1        0.0805
      5 C          -0.5009   -1.2801   -0.0878 C.ar    1  UNL1        0.1283
      6 C          -1.2749   -0.1010   -0.0237 C.ar    1  UNL1        0.0805
      7 CL         -3.0055   -0.1950   -0.0084 Cl      1  UNL1       -0.0801
      8 N          -1.1499   -2.5366   -0.1021 N.pl3   1  UNL1       -0.2063
      9 C          -0.7516   -3.7738    0.3938 C.cat   1  UNL1        0.3340
     10 C           0.4375   -5.3643    1.5753 C.3     1  UNL1        0.0929
     11 C          -0.5262   -6.0650    0.6055 C.3     1  UNL1        0.0883
     12 N          -1.1954   -4.9764   -0.1134 N.pl3   1  UNL1       -0.2377
     13 CL          1.9826   -2.4455   -0.3606 Cl      1  UNL1       -0.0801
     14 N           1.2948    2.5538   -0.0982 N.pl3   1  UNL1       -0.3579
     15 H          -1.3124    2.0549    0.0201 H       1  UNL1        0.0652
     16 H           2.5640    0.2484   -0.1461 H       1  UNL1        0.0652
     17 H          -1.9835   -2.5420   -0.6827 H       1  UNL1        0.2512
     18 H           0.2929   -5.6849    2.6095 H       1  UNL1        0.0685
     19 H           1.4798   -5.5179    1.2811 H       1  UNL1        0.0685
     20 H           0.0029   -6.7075   -0.1042 H       1  UNL1        0.0664
     21 H          -1.2797   -6.6440    1.1432 H       1  UNL1        0.0664
     22 H          -1.8017   -5.0554   -0.9218 H       1  UNL1        0.2444
     23 H           2.2695    2.6237    0.1812 H       1  UNL1        0.1423
     24 H           0.7464    3.3450    0.2408 H       1  UNL1        0.1423
     25 N           0.1298   -3.9459    1.4371 N.2     1  UNL1       -0.2788
     26 H           0.5395   -3.1608    1.9330 H       1  UNL1        0.2575
@<TRIPOS>BOND
     1     1     6   ar
     2     1     2   ar
     3     1    15    1
     4     2     3   ar
     5     2    14    1
     6     3     4   ar
     7     3    16    1
     8     4     5   ar
     9     4    13    1
    10     5     6   ar
    11     5     8    1
    12     6     7    1
    13     8     9    1
    14     8    17    1
    15     9    12    1
    16     9    25    2
    17    10    11    1
    18    10    18    1
    19    10    19    1
    20    10    25    1
    21    11    12    1
    22    11    20    1
    23    11    21    1
    24    12    22    1
    25    14    23    1
    26    14    24    1
    27    25    26    1
