@<TRIPOS>MOLECULE
ZINC00389149
 50 50 0 0 0
SMALL
GASTEIGER

@<TRIPOS>ATOM
      1 C           2.5410   -7.4313   -2.9788 C.3     1  UNL1       -0.0361
      2 C           2.6293   -6.1872   -3.8152 C.ar    1  UNL1       -0.0043
      3 C           1.9622   -5.0547   -3.3612 C.ar    1  UNL1       -0.0133
      4 C           2.2338   -3.7749   -3.8656 C.ar    1  UNL1        0.1242
      5 C           3.0857   -3.6416   -4.9814 C.ar    1  UNL1       -0.0024
      6 C           3.5939   -4.8170   -5.6028 C.ar    1  UNL1       -0.0015
      7 C           3.3733   -6.0751   -4.9890 C.ar    1  UNL1        0.1379
      8 O           4.0467   -7.1906   -5.5345 O.3     1  UNL1       -0.4255
      9 C           3.2912   -8.2908   -5.9404 C.2     1  UNL1        0.3092
     10 O           2.0776   -8.4204   -5.8524 O.2     1  UNL1       -0.2507
     11 C           4.2110   -9.3299   -6.5128 C.3     1  UNL1        0.0336
     12 C           4.3355   -4.7780   -6.9179 C.3     1  UNL1       -0.0359
     13 C           3.4528   -2.2743   -5.4985 C.3     1  UNL1       -0.0359
     14 O           1.7257   -2.6272   -3.2745 O.3     1  UNL1       -0.4889
     15 C           1.0883   -2.8684   -2.0141 C.3     1  UNL1        0.1204
     16 C           0.8984   -1.5956   -1.1884 C.3     1  UNL1        0.1285
     17 H           1.8445   -1.0540   -1.0902 H       1  UNL1        0.0681
     18 C           0.3467   -2.0260    0.1827 C.3     1  UNL1       -0.0035
     19 C          -0.3925   -1.1537    2.4448 C.3     1  UNL1       -0.0283
     20 C          -0.3142    0.1052    3.2985 C.3     1  UNL1       -0.0219
     21 C          -1.8258   -1.6653    2.3581 C.3     1  UNL1       -0.0219
     22 O          -0.0514   -0.7085   -1.7825 O.3     1  UNL1       -0.3831
     23 H           1.8969   -8.1877   -3.4261 H       1  UNL1        0.0279
     24 H           3.5421   -7.8350   -2.8005 H       1  UNL1        0.0279
     25 H           2.1256   -7.2000   -1.9889 H       1  UNL1        0.0279
     26 H           1.2568   -5.2097   -2.5502 H       1  UNL1        0.0658
     27 H           4.7805   -8.9022   -7.3412 H       1  UNL1        0.0342
     28 H           4.8833   -9.7107   -5.7397 H       1  UNL1        0.0342
     29 H           3.6165  -10.1623   -6.9016 H       1  UNL1        0.0342
     30 H           5.2901   -5.3084   -6.8438 H       1  UNL1        0.0279
     31 H           3.7221   -5.2532   -7.6922 H       1  UNL1        0.0279
     32 H           4.5570   -3.7662   -7.2644 H       1  UNL1        0.0279
     33 H           4.5260   -2.2246   -5.7150 H       1  UNL1        0.0279
     34 H           2.8852   -2.0397   -6.4029 H       1  UNL1        0.0279
     35 H           3.2715   -1.4879   -4.7586 H       1  UNL1        0.0279
     36 H           0.1079   -3.3220   -2.2069 H       1  UNL1        0.0725
     37 H           1.7158   -3.5284   -1.4018 H       1  UNL1        0.0725
     38 H          -0.6363   -2.4895    0.0505 H       1  UNL1        0.0841
     39 H           1.0216   -2.7117    0.7034 H       1  UNL1        0.0841
     40 H           0.2654   -1.9214    2.8692 H       1  UNL1        0.0845
     41 H          -0.9512    0.9013    2.8989 H       1  UNL1        0.0284
     42 H          -0.6451   -0.1080    4.3216 H       1  UNL1        0.0284
     43 H           0.7119    0.4829    3.3559 H       1  UNL1        0.0284
     44 H          -1.8804   -2.6288    1.8426 H       1  UNL1        0.0284
     45 H          -2.2387   -1.8200    3.3606 H       1  UNL1        0.0284
     46 H          -2.4748   -0.9578    1.8314 H       1  UNL1        0.0284
     47 H           0.1145   -0.7186   -2.7503 H       1  UNL1        0.2102
     48 N           0.1363   -0.8357    1.0717 N.4     1  UNL1        0.2307
     49 H           1.0288   -0.3306    1.1587 H       1  UNL1        0.2017
     50 H          -0.4885   -0.1857    0.5659 H       1  UNL1        0.2017
@<TRIPOS>UNITY_ATOM_ATTR
48 1
charge 1
@<TRIPOS>BOND
     1     1     2    1
     2     1    23    1
     3     1    24    1
     4     1    25    1
     5     2     7   ar
     6     2     3   ar
     7     3     4   ar
     8     3    26    1
     9     4     5   ar
    10     4    14    1
    11     5     6   ar
    12     5    13    1
    13     6     7   ar
    14     6    12    1
    15     7     8    1
    16     8     9    1
    17     9    10    2
    18     9    11    1
    19    11    27    1
    20    11    28    1
    21    11    29    1
    22    12    30    1
    23    12    31    1
    24    12    32    1
    25    13    33    1
    26    13    34    1
    27    13    35    1
    28    14    15    1
    29    15    36    1
    30    15    37    1
    31    16    18    1
    32    16    22    1
    33    18    38    1
    34    18    39    1
    35    18    48    1
    36    19    20    1
    37    19    21    1
    38    19    40    1
    39    19    48    1
    40    20    41    1
    41    20    42    1
    42    20    43    1
    43    21    44    1
    44    21    45    1
    45    21    46    1
    46    22    47    1
    47    48    49    1
    48    48    50    1
    49    16    17    1
    50    16    15    1
