@<TRIPOS>MOLECULE
ZINC02008866
 44 46 0 0 0
SMALL
GASTEIGER

@<TRIPOS>ATOM
      1 C           4.6028   -1.1481    0.6565 C.3     1  UNL1        0.0121
      2 C           3.7477   -1.5857   -0.5054 C.2     1  UNL1        0.2100
      3 O           3.6395   -2.7572   -0.8501 O.2     1  UNL1       -0.2761
      4 N           3.0971   -0.5523   -1.1354 N.am    1  UNL1       -0.3120
      5 C           2.2572   -0.7679   -2.3049 C.3     1  UNL1        0.0503
      6 C           3.0498   -0.7583   -3.6127 C.3     1  UNL1        0.1361
      7 H           3.8124   -1.5459   -3.6189 H       1  UNL1        0.0766
      8 C           2.1538   -0.8460   -4.8352 C.3     1  UNL1        0.0616
      9 N           2.7759    0.0590   -5.7541 N.am    1  UNL1       -0.2336
     10 C           3.6697    0.8747   -5.0776 C.2     1  UNL1        0.4077
     11 O           4.3000    1.8266   -5.5016 O.2     1  UNL1       -0.2259
     12 O           3.7280    0.4990   -3.7616 O.3     1  UNL1       -0.4436
     13 C           2.4280    0.1449   -7.1234 C.ar    1  UNL1        0.0424
     14 C           1.2425   -0.4267   -7.5943 C.ar    1  UNL1       -0.0382
     15 C           0.9032   -0.3645   -8.9536 C.ar    1  UNL1       -0.0361
     16 C           1.7405    0.2364   -9.9045 C.ar    1  UNL1        0.0656
     17 C           2.9235    0.8057   -9.4080 C.ar    1  UNL1        0.1461
     18 C           3.2588    0.7752   -8.0503 C.ar    1  UNL1       -0.0031
     19 F           3.8179    1.3555  -10.2467 F       1  UNL1       -0.2035
     20 N           1.3591    0.2606  -11.2344 N.pl3   1  UNL1       -0.3233
     21 C           0.8417   -0.9586  -11.8799 C.3     1  UNL1        0.0358
     22 C           1.7927   -1.4301  -12.9932 C.3     1  UNL1        0.0634
     23 O           2.0845   -0.3810  -13.9290 O.3     1  UNL1       -0.3767
     24 C           2.7206    0.7178  -13.2518 C.3     1  UNL1        0.0634
     25 C           1.8080    1.3058  -12.1682 C.3     1  UNL1        0.0358
     26 H           5.0440   -2.0250    1.1374 H       1  UNL1        0.0322
     27 H           3.9950   -0.6167    1.3916 H       1  UNL1        0.0322
     28 H           5.4095   -0.4977    0.3031 H       1  UNL1        0.0322
     29 H           3.3718    0.3991   -0.9213 H       1  UNL1        0.1488
     30 H           1.7273   -1.7191   -2.1949 H       1  UNL1        0.0499
     31 H           1.5226    0.0448   -2.2953 H       1  UNL1        0.0499
     32 H           1.1352   -0.5021   -4.6329 H       1  UNL1        0.0507
     33 H           2.1250   -1.8638   -5.2365 H       1  UNL1        0.0507
     34 H           0.5315   -0.8987   -6.9231 H       1  UNL1        0.0637
     35 H          -0.0597   -0.7675   -9.2615 H       1  UNL1        0.0637
     36 H           4.2072    1.2205   -7.7659 H       1  UNL1        0.0665
     37 H          -0.1363   -0.7206  -12.3118 H       1  UNL1        0.0486
     38 H           0.7003   -1.7868  -11.1758 H       1  UNL1        0.0486
     39 H           2.7346   -1.8053  -12.5757 H       1  UNL1        0.0575
     40 H           1.3272   -2.2502  -13.5495 H       1  UNL1        0.0575
     41 H           2.9403    1.4822  -14.0037 H       1  UNL1        0.0575
     42 H           3.6733    0.3748  -12.8324 H       1  UNL1        0.0575
     43 H           0.9097    1.7127  -12.6485 H       1  UNL1        0.0486
     44 H           2.2919    2.1519  -11.6707 H       1  UNL1        0.0486
@<TRIPOS>BOND
     1     1     2    1
     2     1    26    1
     3     1    27    1
     4     1    28    1
     5     2     3    2
     6     2     4   am
     7     4     5    1
     8     4    29    1
     9     5    30    1
    10     5    31    1
    11     6    12    1
    12     6     8    1
    13     8     9    1
    14     8    32    1
    15     8    33    1
    16     9    10   am
    17     9    13    1
    18    10    11    2
    19    10    12    1
    20    13    18   ar
    21    13    14   ar
    22    14    15   ar
    23    14    34    1
    24    15    16   ar
    25    15    35    1
    26    16    17   ar
    27    16    20    1
    28    17    18   ar
    29    17    19    1
    30    18    36    1
    31    20    25    1
    32    20    21    1
    33    21    22    1
    34    21    37    1
    35    21    38    1
    36    22    23    1
    37    22    39    1
    38    22    40    1
    39    23    24    1
    40    24    25    1
    41    24    41    1
    42    24    42    1
    43    25    43    1
    44    25    44    1
    45     6     7    1
    46     6     5    1
