@<TRIPOS>MOLECULE
ZINC00968255
 53 53 0 0 0
SMALL
GASTEIGER

@<TRIPOS>ATOM
      1 C          -1.2440    4.2897    1.2171 C.3     1  UNL1       -0.0648
      2 C          -1.7806    4.3838   -0.2056 C.3     1  UNL1       -0.0476
      3 C          -0.7510    3.9886   -1.2723 C.3     1  UNL1        0.0240
      4 C          -0.2880    2.5390   -1.1607 C.2     1  UNL1        0.2172
      5 O          -0.9798    1.7036   -0.5845 O.2     1  UNL1       -0.2755
      6 N           0.9024    2.2726   -1.8194 N.am    1  UNL1       -0.2855
      7 C           1.5130    1.0004   -1.9657 C.ar    1  UNL1        0.0343
      8 C           2.7278    0.9289   -2.6379 C.ar    1  UNL1       -0.0370
      9 C           3.4208   -0.2756   -2.7036 C.ar    1  UNL1       -0.0175
     10 C           3.0028   -1.4078   -1.9987 C.ar    1  UNL1        0.1312
     11 C           1.7056   -1.3970   -1.4250 C.ar    1  UNL1        0.0605
     12 C           0.9625   -0.1904   -1.4646 C.ar    1  UNL1       -0.0265
     13 C           1.1034   -2.5736   -0.6991 C.2     1  UNL1        0.1637
     14 O           1.8508   -3.4835   -0.3103 O.2     1  UNL1       -0.2922
     15 C          -0.3957   -2.6753   -0.4554 C.3     1  UNL1       -0.0013
     16 O           3.8504   -2.5012   -1.8714 O.3     1  UNL1       -0.4885
     17 C           5.2521   -2.1770   -2.0032 C.3     1  UNL1        0.1204
     18 C           6.1646   -3.2257   -1.3532 C.3     1  UNL1        0.1285
     19 H           5.9524   -3.2401   -0.2797 H       1  UNL1        0.0681
     20 C           5.9570   -4.6055   -1.9820 C.3     1  UNL1       -0.0035
     21 N           6.8812   -5.6332   -1.3515 N.4     1  UNL1        0.2307
     22 C           6.7332   -5.8759    0.1270 C.3     1  UNL1       -0.0283
     23 C           5.3192   -6.3402    0.4409 C.3     1  UNL1       -0.0219
     24 C           7.7761   -6.9052    0.5483 C.3     1  UNL1       -0.0219
     25 O           7.5442   -2.8675   -1.5451 O.3     1  UNL1       -0.3831
     26 H          -1.1117    3.2479    1.5228 H       1  UNL1        0.0230
     27 H          -1.9477    4.7487    1.9208 H       1  UNL1        0.0230
     28 H          -0.2832    4.8037    1.3117 H       1  UNL1        0.0230
     29 H          -2.6750    3.7557   -0.2920 H       1  UNL1        0.0267
     30 H          -2.1001    5.4163   -0.3910 H       1  UNL1        0.0267
     31 H          -1.2286    4.0879   -2.2544 H       1  UNL1        0.0358
     32 H           0.1028    4.6739   -1.2420 H       1  UNL1        0.0358
     33 H           1.4365    3.0705   -2.1488 H       1  UNL1        0.1548
     34 H           3.1610    1.8016   -3.1229 H       1  UNL1        0.0637
     35 H           4.3324   -0.2867   -3.3016 H       1  UNL1        0.0655
     36 H          -0.0359   -0.1730   -1.0762 H       1  UNL1        0.0644
     37 H          -0.8715   -1.7329   -0.1720 H       1  UNL1        0.0309
     38 H          -0.8952   -3.0942   -1.3288 H       1  UNL1        0.0309
     39 H          -0.5770   -3.3489    0.3954 H       1  UNL1        0.0309
     40 H           5.5115   -2.0903   -3.0661 H       1  UNL1        0.0725
     41 H           5.4775   -1.2197   -1.5127 H       1  UNL1        0.0725
     42 H           4.9352   -4.9710   -1.8988 H       1  UNL1        0.0841
     43 H           6.2500   -4.5915   -3.0388 H       1  UNL1        0.0841
     44 H           6.7412   -6.5219   -1.8523 H       1  UNL1        0.2017
     45 H           6.9556   -4.9325    0.6346 H       1  UNL1        0.0845
     46 H           5.0723   -7.2631   -0.0941 H       1  UNL1        0.0284
     47 H           5.2046   -6.5241    1.5133 H       1  UNL1        0.0284
     48 H           4.5775   -5.5819    0.1703 H       1  UNL1        0.0284
     49 H           8.7884   -6.5582    0.3130 H       1  UNL1        0.0284
     50 H           7.7292   -7.0732    1.6301 H       1  UNL1        0.0284
     51 H           7.6225   -7.8680    0.0500 H       1  UNL1        0.0284
     52 H           8.0367   -3.0141   -0.7169 H       1  UNL1        0.2102
     53 H           7.8468   -5.3479   -1.5661 H       1  UNL1        0.2017
@<TRIPOS>UNITY_ATOM_ATTR
21 1
charge 1
@<TRIPOS>BOND
     1     1     2    1
     2     1    26    1
     3     1    27    1
     4     1    28    1
     5     2     3    1
     6     2    29    1
     7     2    30    1
     8     3     4    1
     9     3    31    1
    10     3    32    1
    11     4     5    2
    12     4     6   am
    13     6     7    1
    14     6    33    1
    15     7    12   ar
    16     7     8   ar
    17     8     9   ar
    18     8    34    1
    19     9    10   ar
    20     9    35    1
    21    10    11   ar
    22    10    16    1
    23    11    12   ar
    24    11    13    1
    25    12    36    1
    26    13    14    2
    27    13    15    1
    28    15    37    1
    29    15    38    1
    30    15    39    1
    31    16    17    1
    32    17    18    1
    33    17    40    1
    34    17    41    1
    35    18    19    1
    36    18    20    1
    37    18    25    1
    38    20    21    1
    39    20    42    1
    40    20    43    1
    41    21    22    1
    42    21    44    1
    43    21    53    1
    44    22    23    1
    45    22    24    1
    46    22    45    1
    47    23    46    1
    48    23    47    1
    49    23    48    1
    50    24    49    1
    51    24    50    1
    52    24    51    1
    53    25    52    1
