@<TRIPOS>MOLECULE
ZINC00002101
 19 19 0 0 0
SMALL
GASTEIGER

@<TRIPOS>ATOM
      1 C           0.1996    1.2043    0.0054 C.ar    1  UNL1       -0.0392
      2 C          -1.1988    1.1939    0.0342 C.ar    1  UNL1       -0.0336
      3 C          -1.8725   -0.0282    0.0292 C.ar    1  UNL1        0.1051
      4 C          -1.1634   -1.2297    0.0069 C.ar    1  UNL1       -0.0336
      5 C           0.2321   -1.2043   -0.0223 C.ar    1  UNL1       -0.0392
      6 C           0.9269    0.0083    0.0183 C.ar    1  UNL1        0.0247
      7 N           2.3138    0.0239   -0.1679 N.pl3   1  UNL1       -0.3580
      8 S          -3.6370   -0.0605   -0.0099 S.O2    1  UNL1        0.0559
      9 O          -4.0928   -1.4258   -0.1305 O.2     1  UNL1       -0.1533
     10 O          -4.1413    0.8369    1.0005 O.2     1  UNL1       -0.1533
     11 N          -3.9743    0.6525   -1.4900 N.3     1  UNL1       -0.2035
     12 H           0.7202    2.1578   -0.0358 H       1  UNL1        0.0636
     13 H          -1.7483    2.1322    0.0334 H       1  UNL1        0.0638
     14 H          -1.6824   -2.1848   -0.0148 H       1  UNL1        0.0638
     15 H           0.7744   -2.1444   -0.0842 H       1  UNL1        0.0636
     16 H           2.7816   -0.8208    0.1459 H       1  UNL1        0.1423
     17 H           2.7682    0.8651    0.1726 H       1  UNL1        0.1423
     18 H          -4.2914   -0.0544   -2.1534 H       1  UNL1        0.1442
     19 H          -4.6345    1.4187   -1.3584 H       1  UNL1        0.1442
@<TRIPOS>BOND
     1     1     6   ar
     2     1     2   ar
     3     1    12    1
     4     2     3   ar
     5     2    13    1
     6     3     4   ar
     7     3     8    1
     8     4     5   ar
     9     4    14    1
    10     5     6   ar
    11     5    15    1
    12     6     7    1
    13     7    16    1
    14     7    17    1
    15     8     9    2
    16     8    10    2
    17     8    11    1
    18    11    18    1
    19    11    19    1
