@<TRIPOS>MOLECULE
ZINC00000449
 51 53 0 0 0
SMALL
GASTEIGER

@<TRIPOS>ATOM
      1 C           1.3515   -2.3648    0.9656 C.3     1  UNL1       -0.0414
      2 N           0.8818   -1.2030    0.0818 N.4     1  UNL1        0.2416
      3 C           1.3575   -1.4658   -1.3523 C.3     1  UNL1       -0.0304
      4 C           1.1113   -0.2681   -2.2618 C.3     1  UNL1       -0.0089
      5 C           1.7154    1.0130   -1.7066 C.3     1  UNL1       -0.0058
      6 C           1.2106    1.3051   -0.2954 C.3     1  UNL1        0.1427
      7 H           0.1329    1.4976   -0.2932 H       1  UNL1        0.0788
      8 C           1.5046    0.1012    0.6185 C.3     1  UNL1        0.0074
      9 O           1.8927    2.4496    0.2334 O.3     1  UNL1       -0.4535
     10 C           1.4655    3.6790   -0.2177 C.2     1  UNL1        0.3489
     11 O           0.5442    3.8009   -1.0125 O.2     1  UNL1       -0.2468
     12 C           2.2889    4.8469    0.4392 C.3     1  UNL1        0.2134
     13 C           2.9424    5.7316   -0.6480 C.ar    1  UNL1       -0.0008
     14 C           4.2194    5.4421   -1.1610 C.ar    1  UNL1       -0.0550
     15 C           4.8353    6.2735   -2.1036 C.ar    1  UNL1       -0.0614
     16 C           4.1707    7.4014   -2.5851 C.ar    1  UNL1       -0.0617
     17 C           2.8841    7.6806   -2.1333 C.ar    1  UNL1       -0.0614
     18 C           2.2736    6.8512   -1.1860 C.ar    1  UNL1       -0.0550
     19 C           1.4423    5.6689    1.4409 C.ar    1  UNL1       -0.0008
     20 C           0.0579    5.8632    1.2637 C.ar    1  UNL1       -0.0550
     21 C          -0.6803    6.6824    2.1234 C.ar    1  UNL1       -0.0614
     22 C          -0.0541    7.3305    3.1816 C.ar    1  UNL1       -0.0617
     23 C           1.3113    7.1647    3.3773 C.ar    1  UNL1       -0.0614
     24 C           2.0524    6.3522    2.5152 C.ar    1  UNL1       -0.0550
     25 O           3.3309    4.2029    1.2159 O.3     1  UNL1       -0.3698
     26 C          -0.6443   -1.1541    0.1670 C.3     1  UNL1       -0.0414
     27 H           0.9143   -3.2903    0.5787 H       1  UNL1        0.0778
     28 H           2.4439   -2.4145    0.9267 H       1  UNL1        0.0778
     29 H           1.0133   -2.1793    1.9893 H       1  UNL1        0.0778
     30 H           2.4316   -1.6834   -1.2992 H       1  UNL1        0.0815
     31 H           0.8359   -2.3565   -1.7194 H       1  UNL1        0.0815
     32 H           0.0376   -0.1270   -2.4271 H       1  UNL1        0.0318
     33 H           1.5488   -0.4703   -3.2467 H       1  UNL1        0.0318
     34 H           1.4845    1.8480   -2.3775 H       1  UNL1        0.0305
     35 H           2.8109    0.9398   -1.6969 H       1  UNL1        0.0305
     36 H           1.1246    0.2645    1.6339 H       1  UNL1        0.0852
     37 H           2.5874   -0.0649    0.6966 H       1  UNL1        0.0852
     38 H           4.7711    4.5652   -0.8212 H       1  UNL1        0.0621
     39 H           5.8351    6.0522   -2.4668 H       1  UNL1        0.0618
     40 H           4.6483    8.0536   -3.3085 H       1  UNL1        0.0618
     41 H           2.3548    8.5492   -2.5157 H       1  UNL1        0.0618
     42 H           1.2668    7.1154   -0.8691 H       1  UNL1        0.0621
     43 H          -0.4764    5.4205    0.4254 H       1  UNL1        0.0621
     44 H          -1.7432    6.8325    1.9506 H       1  UNL1        0.0618
     45 H          -0.6250    7.9786    3.8411 H       1  UNL1        0.0618
     46 H           1.8085    7.6842    4.1949 H       1  UNL1        0.0618
     47 H           3.1220    6.2896    2.6957 H       1  UNL1        0.0621
     48 H           3.9612    4.8955    1.4775 H       1  UNL1        0.2117
     49 H          -1.0235   -0.3572   -0.4744 H       1  UNL1        0.0778
     50 H          -1.0397   -2.1188   -0.1644 H       1  UNL1        0.0778
     51 H          -0.9233   -0.9627    1.2075 H       1  UNL1        0.0778
@<TRIPOS>UNITY_ATOM_ATTR
2 1
charge 1
@<TRIPOS>BOND
     1     1     2    1
     2     1    27    1
     3     1    28    1
     4     1    29    1
     5     2     8    1
     6     2     3    1
     7     2    26    1
     8     3     4    1
     9     3    30    1
    10     3    31    1
    11     4     5    1
    12     4    32    1
    13     4    33    1
    14     5     6    1
    15     5    34    1
    16     5    35    1
    17     6     7    1
    18     6     8    1
    19     6     9    1
    20     8    36    1
    21     8    37    1
    22     9    10    1
    23    10    11    2
    24    10    12    1
    25    12    13    1
    26    12    19    1
    27    12    25    1
    28    13    18   ar
    29    13    14   ar
    30    14    15   ar
    31    14    38    1
    32    15    16   ar
    33    15    39    1
    34    16    17   ar
    35    16    40    1
    36    17    18   ar
    37    17    41    1
    38    18    42    1
    39    19    24   ar
    40    19    20   ar
    41    20    21   ar
    42    20    43    1
    43    21    22   ar
    44    21    44    1
    45    22    23   ar
    46    22    45    1
    47    23    24   ar
    48    23    46    1
    49    24    47    1
    50    25    48    1
    51    26    49    1
    52    26    50    1
    53    26    51    1
