@<TRIPOS>MOLECULE
ZINC03871923
 56 59 0 0 0
SMALL
GASTEIGER

@<TRIPOS>ATOM
      1 C           1.1499    1.4375   -2.7346 C.3     1  UNL1       -0.0410
      2 N           0.6103    1.0998   -1.3320 N.4     1  UNL1        0.2443
      3 C          -0.1035    2.3200   -0.7576 C.3     1  UNL1       -0.0298
      4 C           1.0346    3.2258   -0.3330 C.3     1  UNL1       -0.0076
      5 C           2.1229    2.2766    0.1482 C.3     1  UNL1       -0.0076
      6 C           1.7542    0.8868   -0.3673 C.3     1  UNL1       -0.0298
      7 C          -0.3904   -0.0829   -1.4077 C.3     1  UNL1       -0.0054
      8 C           0.1278   -1.4179   -1.9192 C.2     1  UNL1        0.0131
      9 CA         -0.0201   -1.8538   -3.2016 C.2     1  UNL1        0.1314
     10 N           0.4041   -3.1194   -3.5540 N.am    1  UNL1       -0.2487
     11 C           0.8148   -4.1741   -2.6357 C.3     1  UNL1        0.1042
     12 H          -0.0374   -4.6636   -2.1496 H       1  UNL1        0.0644
     13 CA          1.3136   -4.9353   -3.8968 C.3     1  UNL1        0.1286
     14 HA          0.5493   -5.6263   -4.2844 H       1  UNL1        0.0622
     15 C           1.1891   -3.5446   -4.5867 C.2     1  UNL1        0.2440
     16 O           1.6919   -3.0160   -5.5509 O.2     1  UNL1       -0.2731
     17 N           2.6345   -5.6370   -3.9426 N.am    1  UNL1       -0.2963
     18 C           2.8934   -6.7136   -3.1057 C.2     1  UNL1        0.2684
     19 O           2.3331   -6.8336   -2.0230 O.2     1  UNL1       -0.2683
     20 C           3.8672   -7.7957   -3.6447 C.2     1  UNL1        0.1897
     21 N           3.8788   -9.0417   -3.2504 N.2     1  UNL1       -0.0779
     22 O           2.9498   -9.3681   -2.2678 O.2     1  UNL1       -0.3964
     23 C           3.0938  -10.7600   -1.9914 C.3     1  UNL1        0.1072
     24 C           4.8442   -7.5484   -4.7138 C.ar    1  UNL1        0.1067
     25 C           5.7512   -8.5065   -5.1479 C.ar    1  UNL1        0.0067
     26 S           6.6786   -7.9226   -6.4509 S.2     1  UNL1       -0.0604
     27 C           5.8411   -6.4319   -6.3526 C.ar    1  UNL1        0.1562
     28 N           4.9092   -6.3512   -5.4306 N.ar    1  UNL1       -0.2233
     29 N           6.1452   -5.4379   -7.2029 N.pl3   1  UNL1       -0.3375
     30 S           2.0012   -3.4370   -1.4737 S.3     1  UNL1       -0.1309
     31 C           0.7338   -2.2981   -0.8401 C.3     1  UNL1        0.0238
     32 C          -0.7511   -0.9993   -4.3456 C.2     1  UNL1        0.4008
     33 O          -1.1859   -1.6717   -5.3168 O.co2   1  UNL1       -0.2392
     34 OXT        -0.8890    0.2323   -4.0925 O.co2   1  UNL1       -0.2392
     35 H           1.3731    0.5214   -3.2784 H       1  UNL1        0.0778
     36 H           2.0921    1.9835   -2.6209 H       1  UNL1        0.0778
     37 H           0.4320    2.0806   -3.2503 H       1  UNL1        0.0778
     38 H          -0.6792    1.9916    0.1167 H       1  UNL1        0.0815
     39 H          -0.7765    2.7552   -1.5025 H       1  UNL1        0.0815
     40 H           1.3962    3.8088   -1.1883 H       1  UNL1        0.0319
     41 H           0.7320    3.9382    0.4401 H       1  UNL1        0.0319
     42 H           3.1057    2.5907   -0.2184 H       1  UNL1        0.0319
     43 H           2.1761    2.2656    1.2427 H       1  UNL1        0.0319
     44 H           2.5732    0.3667   -0.8734 H       1  UNL1        0.0815
     45 H           1.3841    0.2912    0.4720 H       1  UNL1        0.0815
     46 H          -0.7389   -0.2339   -0.3757 H       1  UNL1        0.0865
     47 H          -1.2848    0.2774   -1.9217 H       1  UNL1        0.0865
     48 H           3.1780   -5.5844   -4.8066 H       1  UNL1        0.1499
     49 H           2.5162  -11.3391   -2.7183 H       1  UNL1        0.0687
     50 H           4.1460  -11.0666   -2.0364 H       1  UNL1        0.0687
     51 H           2.7176  -10.9632   -0.9864 H       1  UNL1        0.0687
     52 H           5.8855   -9.5124   -4.7727 H       1  UNL1        0.0716
     53 H           6.6070   -5.6772   -8.0663 H       1  UNL1        0.1442
     54 H           5.4590   -4.6927   -7.2928 H       1  UNL1        0.1442
     55 H          -0.0626   -2.8618   -0.3398 H       1  UNL1        0.0425
     56 H           1.2273   -1.7098   -0.0679 H       1  UNL1        0.0425
@<TRIPOS>UNITY_ATOM_ATTR
2 1
charge 1
@<TRIPOS>BOND
     1     1     2    1
     2     1    35    1
     3     1    36    1
     4     1    37    1
     5     2     6    1
     6     2     3    1
     7     2     7    1
     8     3     4    1
     9     3    38    1
    10     3    39    1
    11     4     5    1
    12     4    40    1
    13     4    41    1
    14     5     6    1
    15     5    42    1
    16     5    43    1
    17     6    44    1
    18     6    45    1
    19     7     8    1
    20     7    46    1
    21     7    47    1
    22     8    31    1
    23     8     9    2
    24     9    10    1
    25     9    32    1
    26    10    15   am
    27    10    11    1
    28    11    12    1
    29    11    13    1
    30    11    30    1
    31    13    15    1
    32    15    16    2
    33    17    18   am
    34    17    48    1
    35    18    19    2
    36    18    20    1
    37    20    21    2
    38    20    24    1
    39    21    22    1
    40    22    23    1
    41    23    49    1
    42    23    50    1
    43    23    51    1
    44    24    28   ar
    45    24    25   ar
    46    25    26   ar
    47    25    52    1
    48    26    27   ar
    49    27    28   ar
    50    27    29    1
    51    29    53    1
    52    29    54    1
    53    30    31    1
    54    31    55    1
    55    31    56    1
    56    32    33   ar
    57    32    34   ar
    58    13    17    1
    59    13    14    1
