@<TRIPOS>MOLECULE
ZINC00509440
 31 33 0 0 0
SMALL
GASTEIGER

@<TRIPOS>ATOM
      1 C           1.2195   -0.4614   -0.1370 C.ar    1  UNL1       -0.0617
      2 C           0.8386    0.5335    0.7582 C.ar    1  UNL1       -0.0611
      3 C          -0.5181    0.7908    1.0101 C.ar    1  UNL1       -0.0526
      4 C          -1.5109    0.0475    0.3531 C.ar    1  UNL1        0.0007
      5 C          -1.1067   -0.9442   -0.5514 C.ar    1  UNL1       -0.0526
      6 C           0.2434   -1.2033   -0.7958 C.ar    1  UNL1       -0.0611
      7 C          -2.9946    0.3693    0.3878 C.2     1  UNL1        0.0780
      8 N          -3.8309   -0.5862    0.1290 N.2     1  UNL1       -0.2428
      9 C          -5.1753   -0.1949   -0.2913 C.3     1  UNL1        0.2246
     10 H          -5.6410    0.4972    0.4246 H       1  UNL1        0.0952
     11 C          -5.0951    0.5073   -1.7013 C.2     1  UNL1        0.2686
     12 O          -5.8896    0.1926   -2.6034 O.2     1  UNL1       -0.2705
     13 N          -4.1885    1.5237   -1.9571 N.am    1  UNL1       -0.2812
     14 C          -3.3952    2.2082   -1.0106 C.ar    1  UNL1        0.0428
     15 C          -3.4004    1.7998    0.3164 C.ar    1  UNL1        0.0232
     16 C          -3.0613    2.6806    1.3404 C.ar    1  UNL1       -0.0324
     17 C          -2.3284    3.7981    1.0004 C.ar    1  UNL1        0.0417
     18 C          -1.9772    4.0241   -0.3422 C.ar    1  UNL1       -0.0416
     19 C          -2.5861    3.2726   -1.3558 C.ar    1  UNL1       -0.0385
     20 CL         -1.7066    4.8135    2.2356 Cl      1  UNL1       -0.0835
     21 O          -6.0622   -1.3130   -0.3589 O.3     1  UNL1       -0.3636
     22 H           2.2735   -0.6534   -0.3295 H       1  UNL1        0.0618
     23 H           1.6058    1.1197    1.2636 H       1  UNL1        0.0618
     24 H          -0.7562    1.5749    1.7200 H       1  UNL1        0.0624
     25 H          -1.8521   -1.5099   -1.1082 H       1  UNL1        0.0624
     26 H           0.5290   -1.9735   -1.5030 H       1  UNL1        0.0618
     27 H          -4.2404    1.8907   -2.9021 H       1  UNL1        0.1550
     28 H          -3.2895    2.4308    2.3722 H       1  UNL1        0.0639
     29 H          -1.2481    4.7938   -0.5914 H       1  UNL1        0.0633
     30 H          -2.3720    3.5053   -2.3937 H       1  UNL1        0.0637
     31 H          -6.5432   -1.2182   -1.2024 H       1  UNL1        0.2125
@<TRIPOS>BOND
     1     1     6   ar
     2     1     2   ar
     3     1    22    1
     4     2     3   ar
     5     2    23    1
     6     3     4   ar
     7     3    24    1
     8     4     5   ar
     9     4     7    1
    10     5     6   ar
    11     5    25    1
    12     6    26    1
    13     7    15    1
    14     7     8    2
    15     8     9    1
    16     9    10    1
    17     9    11    1
    18     9    21    1
    19    11    12    2
    20    11    13   am
    21    13    14    1
    22    13    27    1
    23    14    19   ar
    24    14    15   ar
    25    15    16   ar
    26    16    17   ar
    27    16    28    1
    28    17    18   ar
    29    17    20    1
    30    18    19   ar
    31    18    29    1
    32    19    30    1
    33    21    31    1
