@<TRIPOS>MOLECULE
ZINC00897089
 43 45 0 0 0
SMALL
GASTEIGER

@<TRIPOS>ATOM
      1 C          -1.7917   -7.2985    0.9600 C.ar    1  UNL1       -0.0605
      2 C          -1.5909   -5.9558    0.6562 C.ar    1  UNL1       -0.0522
      3 C          -2.1286   -4.9197    1.4562 C.ar    1  UNL1        0.0068
      4 C          -1.9594   -3.5267    1.1833 C.ar    1  UNL1       -0.0026
      5 C          -2.5124   -2.5935    2.0755 C.ar    1  UNL1       -0.0252
      6 C          -3.2420   -3.0324    3.1704 C.ar    1  UNL1        0.1446
      7 N          -3.4093   -4.3547    3.4093 N.ar    1  UNL1       -0.2421
      8 C          -2.8826   -5.2847    2.6014 C.ar    1  UNL1        0.0836
      9 C          -3.0841   -6.6313    2.9000 C.ar    1  UNL1        0.0807
     10 C          -2.5382   -7.6349    2.0764 C.ar    1  UNL1       -0.0480
     11 C          -3.8834   -7.0781    4.1029 C.3     1  UNL1        0.4194
     12 F          -4.4063   -6.1096    4.8978 F       1  UNL1       -0.1658
     13 F          -4.9410   -7.8596    3.7329 F       1  UNL1       -0.1658
     14 F          -3.1317   -7.8618    4.9308 F       1  UNL1       -0.1658
     15 C          -3.8923   -2.0298    4.1208 C.3     1  UNL1        0.4342
     16 F          -3.6130   -0.7361    3.7779 F       1  UNL1       -0.1644
     17 F          -5.2491   -2.1186    4.1350 F       1  UNL1       -0.1644
     18 F          -3.4734   -2.1642    5.4078 F       1  UNL1       -0.1644
     19 C          -1.1797   -3.0253   -0.0219 C.3     1  UNL1        0.1232
     20 H          -1.3490   -3.7092   -0.8601 H       1  UNL1        0.0701
     21 C           0.3512   -2.8850    0.2311 C.3     1  UNL1        0.0081
     22 H           0.8011   -3.8476    0.4991 H       1  UNL1        0.0880
     23 C           0.6802   -1.8046    1.2759 C.3     1  UNL1       -0.0068
     24 C           2.1756   -1.5270    1.3775 C.3     1  UNL1       -0.0431
     25 C           2.7598   -1.1552    0.0198 C.3     1  UNL1       -0.0124
     26 C           2.4607   -2.2243   -1.0160 C.3     1  UNL1       -0.0333
     27 N           0.9900   -2.4511   -1.0812 N.4     1  UNL1        0.2312
     28 O          -1.6384   -1.7551   -0.5186 O.3     1  UNL1       -0.3815
     29 H          -1.3738   -8.0833    0.3303 H       1  UNL1        0.0618
     30 H          -1.0012   -5.7496   -0.2345 H       1  UNL1        0.0624
     31 H          -2.3781   -1.5227    1.9283 H       1  UNL1        0.0642
     32 H          -2.7032   -8.6863    2.3170 H       1  UNL1        0.0624
     33 H           0.3145   -2.1118    2.2614 H       1  UNL1        0.0321
     34 H           0.1690   -0.8652    1.0274 H       1  UNL1        0.0321
     35 H           2.3488   -0.7129    2.0904 H       1  UNL1        0.0269
     36 H           2.6848   -2.4146    1.7709 H       1  UNL1        0.0269
     37 H           2.3413   -0.1957   -0.3084 H       1  UNL1        0.0317
     38 H           3.8431   -1.0176    0.1103 H       1  UNL1        0.0317
     39 H           2.7835   -1.9156   -2.0168 H       1  UNL1        0.0814
     40 H           2.9265   -3.1797   -0.7650 H       1  UNL1        0.0814
     41 H           0.4966   -1.5908   -1.3773 H       1  UNL1        0.2017
     42 H          -2.5909   -1.6658   -0.3170 H       1  UNL1        0.2105
     43 H           0.7836   -3.1362   -1.8185 H       1  UNL1        0.2017
@<TRIPOS>UNITY_ATOM_ATTR
27 1
charge 1
@<TRIPOS>BOND
     1     1    10   ar
     2     1     2   ar
     3     1    29    1
     4     2     3   ar
     5     2    30    1
     6     3     8   ar
     7     3     4   ar
     8     4     5   ar
     9     5     6   ar
    10     5    31    1
    11     6     7   ar
    12     6    15    1
    13     7     8   ar
    14     8     9   ar
    15     9    10   ar
    16     9    11    1
    17    10    32    1
    18    11    12    1
    19    11    13    1
    20    11    14    1
    21    15    16    1
    22    15    17    1
    23    15    18    1
    24    19    21    1
    25    19    28    1
    26    21    22    1
    27    21    27    1
    28    21    23    1
    29    23    24    1
    30    23    33    1
    31    23    34    1
    32    24    25    1
    33    24    35    1
    34    24    36    1
    35    25    26    1
    36    25    37    1
    37    25    38    1
    38    26    27    1
    39    26    39    1
    40    26    40    1
    41    27    41    1
    42    27    43    1
    43    28    42    1
    44    19    20    1
    45    19     4    1
