@<TRIPOS>MOLECULE
ZINC00004009
 34 36 0 0 0
SMALL
GASTEIGER

@<TRIPOS>ATOM
      1 C           0.5611    0.2882   -1.1815 C.ar    1  UNL1       -0.0259
      2 C          -0.7304   -0.2492   -1.1555 C.ar    1  UNL1       -0.0503
      3 C          -1.1411   -1.1068   -0.1145 C.ar    1  UNL1        0.0228
      4 C          -0.2008   -1.3677    0.9029 C.ar    1  UNL1        0.1321
      5 C           1.0880   -0.8409    0.8802 C.ar    1  UNL1        0.0092
      6 C           1.4599   -0.0210   -0.1705 C.ar    1  UNL1        0.1261
      7 F           2.7009    0.4790   -0.2150 F       1  UNL1       -0.2054
      8 F          -0.5302   -2.1500    1.9410 F       1  UNL1       -0.2050
      9 C          -2.5182   -1.7919   -0.0891 C.3     1  UNL1        0.1323
     10 C          -3.3074   -1.4790    1.2093 C.3     1  UNL1        0.0780
     11 N          -3.6205   -0.0839    1.4138 N.ar    1  UNL1       -0.2489
     12 C          -3.2441    0.7106    2.4502 C.ar    1  UNL1        0.1144
     13 N          -3.8205    1.8848    2.3318 N.ar    1  UNL1       -0.2228
     14 C          -4.5617    1.7528    1.1944 C.ar    1  UNL1        0.1379
     15 N          -4.4582    0.5679    0.5840 N.ar    1  UNL1       -0.1583
     16 C          -3.3585   -1.5278   -1.3728 C.3     1  UNL1        0.0780
     17 N          -4.6513   -2.1811   -1.3763 N.ar    1  UNL1       -0.2489
     18 C          -5.8812   -1.6229   -1.5104 C.ar    1  UNL1        0.1144
     19 N          -6.7924   -2.5681   -1.4893 N.ar    1  UNL1       -0.2228
     20 C          -6.0565   -3.7059   -1.3256 C.ar    1  UNL1        0.1379
     21 N          -4.7363   -3.5192   -1.2272 N.ar    1  UNL1       -0.1583
     22 O          -2.1907   -3.2053   -0.0732 O.3     1  UNL1       -0.3802
     23 H           0.8743    0.9374   -1.9944 H       1  UNL1        0.0646
     24 H          -1.3877    0.0149   -1.9791 H       1  UNL1        0.0623
     25 H           1.7929   -1.0781    1.6685 H       1  UNL1        0.0675
     26 H          -4.2584   -2.0239    1.2385 H       1  UNL1        0.0542
     27 H          -2.7706   -1.8288    2.0980 H       1  UNL1        0.0542
     28 H          -2.5844    0.3943    3.2467 H       1  UNL1        0.1044
     29 H          -5.1933    2.5404    0.8024 H       1  UNL1        0.1065
     30 H          -3.5300   -0.4623   -1.5530 H       1  UNL1        0.0542
     31 H          -2.8374   -1.9297   -2.2525 H       1  UNL1        0.0542
     32 H          -6.0542   -0.5594   -1.6107 H       1  UNL1        0.1044
     33 H          -6.4955   -4.6945   -1.2724 H       1  UNL1        0.1065
     34 H          -2.9913   -3.7064   -0.3480 H       1  UNL1        0.2108
@<TRIPOS>BOND
     1     1     6   ar
     2     1     2   ar
     3     1    23    1
     4     2     3   ar
     5     2    24    1
     6     3     4   ar
     7     3     9    1
     8     4     5   ar
     9     4     8    1
    10     5     6   ar
    11     5    25    1
    12     6     7    1
    13     9    10    1
    14     9    16    1
    15     9    22    1
    16    10    11    1
    17    10    26    1
    18    10    27    1
    19    11    15   ar
    20    11    12   ar
    21    12    13   ar
    22    12    28    1
    23    13    14   ar
    24    14    15   ar
    25    14    29    1
    26    16    17    1
    27    16    30    1
    28    16    31    1
    29    17    21   ar
    30    17    18   ar
    31    18    19   ar
    32    18    32    1
    33    19    20   ar
    34    20    21   ar
    35    20    33    1
    36    22    34    1
