@<TRIPOS>MOLECULE
ZINC00155269
 44 45 0 0 0
SMALL
GASTEIGER

@<TRIPOS>ATOM
      1 C          -0.1071    4.1531    3.0590 C.3     1  UNL1       -0.0394
      2 C           1.2735    3.6209    2.7791 C.ar    1  UNL1       -0.0445
      3 C           2.1431    3.6315    3.9080 C.ar    1  UNL1       -0.0585
      4 C           3.4209    3.0811    3.8696 C.ar    1  UNL1       -0.0615
      5 C           3.8521    2.4854    2.6969 C.ar    1  UNL1       -0.0614
      6 C           3.0041    2.4550    1.5802 C.ar    1  UNL1       -0.0555
      7 C           1.7087    3.0430    1.5557 C.ar    1  UNL1       -0.0116
      8 C           0.8545    2.8203    0.2614 C.3     1  UNL1        0.1091
      9 H           0.3439    1.8677    0.4588 H       1  UNL1        0.0697
     10 C           1.6877    2.6605   -1.0354 C.ar    1  UNL1       -0.0145
     11 C           1.8269    1.4047   -1.6512 C.ar    1  UNL1       -0.0558
     12 C           2.4793    1.2781   -2.8892 C.ar    1  UNL1       -0.0614
     13 C           3.0046    2.4048   -3.5181 C.ar    1  UNL1       -0.0617
     14 C           2.9077    3.6501   -2.8970 C.ar    1  UNL1       -0.0614
     15 C           2.2602    3.7799   -1.6603 C.ar    1  UNL1       -0.0558
     16 O          -0.2015    3.8080   -0.0123 O.3     1  UNL1       -0.3621
     17 C          -1.0841    3.3423   -1.0624 C.3     1  UNL1        0.0887
     18 C          -2.3817    4.1566   -1.2278 C.3     1  UNL1       -0.0084
     19 N          -2.2221    5.6035   -1.6712 N.4     1  UNL1        0.2325
     20 C          -1.6001    5.8222   -3.0261 C.3     1  UNL1       -0.0433
     21 C          -3.5550    6.3220   -1.6199 C.3     1  UNL1       -0.0433
     22 H          -0.7881    3.3321    3.3011 H       1  UNL1        0.0278
     23 H          -0.0877    4.8168    3.9391 H       1  UNL1        0.0278
     24 H          -0.4996    4.7554    2.2437 H       1  UNL1        0.0278
     25 H           1.8119    4.0553    4.8562 H       1  UNL1        0.0620
     26 H           4.0557    3.0975    4.7490 H       1  UNL1        0.0618
     27 H           4.8262    2.0122    2.6566 H       1  UNL1        0.0618
     28 H           3.3932    1.9248    0.7120 H       1  UNL1        0.0621
     29 H           1.4389    0.4991   -1.1833 H       1  UNL1        0.0621
     30 H           2.5799    0.3038   -3.3636 H       1  UNL1        0.0618
     31 H           3.5050    2.3113   -4.4790 H       1  UNL1        0.0618
     32 H           3.3405    4.5243   -3.3796 H       1  UNL1        0.0618
     33 H           2.2022    4.7586   -1.1900 H       1  UNL1        0.0621
     34 H          -0.5604    3.3137   -2.0224 H       1  UNL1        0.0614
     35 H          -1.3942    2.3193   -0.8146 H       1  UNL1        0.0614
     36 H          -3.0379    3.6771   -1.9635 H       1  UNL1        0.0837
     37 H          -2.8900    4.1975   -0.2585 H       1  UNL1        0.0837
     38 H          -2.1524    5.2387   -3.7686 H       1  UNL1        0.0777
     39 H          -1.6770    6.8891   -3.2626 H       1  UNL1        0.0777
     40 H          -0.5484    5.5343   -2.9840 H       1  UNL1        0.0777
     41 H          -4.1015    6.0022   -0.7297 H       1  UNL1        0.0777
     42 H          -3.3575    7.3961   -1.5734 H       1  UNL1        0.0777
     43 H          -4.1219    6.0715   -2.5229 H       1  UNL1        0.0777
     44 H          -1.5993    6.0389   -0.9754 H       1  UNL1        0.2028
@<TRIPOS>UNITY_ATOM_ATTR
19 1
charge 1
@<TRIPOS>BOND
     1     1     2    1
     2     1    22    1
     3     1    23    1
     4     1    24    1
     5     2     7   ar
     6     2     3   ar
     7     3     4   ar
     8     3    25    1
     9     4     5   ar
    10     4    26    1
    11     5     6   ar
    12     5    27    1
    13     6     7   ar
    14     6    28    1
    15     8    10    1
    16     8    16    1
    17    10    15   ar
    18    10    11   ar
    19    11    12   ar
    20    11    29    1
    21    12    13   ar
    22    12    30    1
    23    13    14   ar
    24    13    31    1
    25    14    15   ar
    26    14    32    1
    27    15    33    1
    28    16    17    1
    29    17    18    1
    30    17    34    1
    31    17    35    1
    32    18    19    1
    33    18    36    1
    34    18    37    1
    35    19    20    1
    36    19    21    1
    37    19    44    1
    38    20    38    1
    39    20    39    1
    40    20    40    1
    41    21    41    1
    42    21    42    1
    43    21    43    1
    44     8     9    1
    45     8     7    1
