@<TRIPOS>MOLECULE
ZINC01542002
 56 56 0 0 0
SMALL
GASTEIGER

@<TRIPOS>ATOM
      1 C           4.8208   -7.8896   -0.4438 C.3     1  UNL1       -0.0653
      2 C           4.4159   -6.9796    0.7021 C.3     1  UNL1       -0.0559
      3 C           2.8950   -6.8782    0.8298 C.3     1  UNL1       -0.0533
      4 C           2.4836   -5.9543    1.9804 C.3     1  UNL1       -0.0531
      5 C           0.9632   -5.8430    2.0882 C.3     1  UNL1       -0.0530
      6 C           0.5394   -4.9242    3.2395 C.3     1  UNL1       -0.0528
      7 C          -0.9817   -4.8342    3.3119 C.3     1  UNL1       -0.0491
      8 C          -1.4678   -3.9444    4.4545 C.3     1  UNL1       -0.0277
      9 C          -2.9823   -3.8818    4.4541 C.ar    1  UNL1       -0.0473
     10 C          -3.6554   -2.7009    4.1419 C.ar    1  UNL1       -0.0583
     11 C          -5.0530   -2.6647    4.1559 C.ar    1  UNL1       -0.0583
     12 C          -5.7936   -3.8130    4.4702 C.ar    1  UNL1       -0.0471
     13 C          -5.1173   -5.0052    4.7518 C.ar    1  UNL1       -0.0583
     14 C          -3.7244   -5.0332    4.7391 C.ar    1  UNL1       -0.0583
     15 C          -7.2979   -3.7705    4.5339 C.3     1  UNL1       -0.0222
     16 C          -8.0032   -3.3386    3.2393 C.3     1  UNL1        0.0014
     17 C          -7.8415   -4.2299    1.9879 C.3     1  UNL1        0.0338
     18 C          -8.2866   -5.6863    2.2181 C.3     1  UNL1        0.0917
     19 O          -8.0438   -6.4297    1.0230 O.3     1  UNL1       -0.3891
     20 C          -8.6273   -3.6205    0.7932 C.3     1  UNL1        0.0917
     21 O          -8.0455   -2.3493    0.4919 O.3     1  UNL1       -0.3891
     22 H           4.4711   -8.9180   -0.2722 H       1  UNL1        0.0230
     23 H           5.9146   -7.9251   -0.5337 H       1  UNL1        0.0230
     24 H           4.4135   -7.5437   -1.3939 H       1  UNL1        0.0230
     25 H           4.8442   -7.3601    1.6369 H       1  UNL1        0.0263
     26 H           4.8413   -5.9839    0.5328 H       1  UNL1        0.0263
     27 H           2.4751   -6.5014   -0.1104 H       1  UNL1        0.0265
     28 H           2.4736   -7.8772    0.9938 H       1  UNL1        0.0265
     29 H           2.8897   -6.3390    2.9239 H       1  UNL1        0.0265
     30 H           2.9145   -4.9571    1.8242 H       1  UNL1        0.0265
     31 H           0.5545   -5.4572    1.1448 H       1  UNL1        0.0265
     32 H           0.5325   -6.8397    2.2394 H       1  UNL1        0.0265
     33 H           0.9312   -5.3141    4.1864 H       1  UNL1        0.0265
     34 H           0.9632   -3.9234    3.0955 H       1  UNL1        0.0265
     35 H          -1.3746   -4.4480    2.3631 H       1  UNL1        0.0268
     36 H          -1.3886   -5.8465    3.4308 H       1  UNL1        0.0268
     37 H          -1.1327   -4.3292    5.4262 H       1  UNL1        0.0313
     38 H          -1.0518   -2.9361    4.3594 H       1  UNL1        0.0313
     39 H          -3.0969   -1.7972    3.9248 H       1  UNL1        0.0620
     40 H          -5.5467   -1.7238    3.9206 H       1  UNL1        0.0620
     41 H          -5.6549   -5.9161    5.0016 H       1  UNL1        0.0620
     42 H          -3.2058   -5.9681    4.9738 H       1  UNL1        0.0620
     43 H          -7.6950   -4.7371    4.8679 H       1  UNL1        0.0315
     44 H          -7.5644   -3.0573    5.3268 H       1  UNL1        0.0315
     45 H          -9.0764   -3.2920    3.4730 H       1  UNL1        0.0327
     46 H          -7.7110   -2.3077    3.0040 H       1  UNL1        0.0327
     47 H          -7.7090   -6.1624    3.0160 H       1  UNL1        0.0617
     48 H          -9.3468   -5.7476    2.4811 H       1  UNL1        0.0617
     49 H          -8.9016   -6.5728    0.5716 H       1  UNL1        0.2097
     50 H          -8.5137   -4.2321   -0.1074 H       1  UNL1        0.0617
     51 H          -9.6968   -3.5148    1.0004 H       1  UNL1        0.0617
     52 H          -8.7005   -1.6582    0.7174 H       1  UNL1        0.2097
     53 H          -6.3079   -3.4601    0.8103 H       1  UNL1        0.2001
     54 H          -5.6889   -4.0773    2.2100 H       1  UNL1        0.2001
     55 N          -6.4080   -4.2259    1.5029 N.4     1  UNL1        0.2262
     56 H          -6.1982   -5.1129    1.0165 H       1  UNL1        0.2001
@<TRIPOS>UNITY_ATOM_ATTR
55 1
charge 1
@<TRIPOS>BOND
     1     1     2    1
     2     1    22    1
     3     1    23    1
     4     1    24    1
     5     2     3    1
     6     2    25    1
     7     2    26    1
     8     3     4    1
     9     3    27    1
    10     3    28    1
    11     4     5    1
    12     4    29    1
    13     4    30    1
    14     5     6    1
    15     5    31    1
    16     5    32    1
    17     6     7    1
    18     6    33    1
    19     6    34    1
    20     7     8    1
    21     7    35    1
    22     7    36    1
    23     8     9    1
    24     8    37    1
    25     8    38    1
    26     9    14   ar
    27     9    10   ar
    28    10    11   ar
    29    10    39    1
    30    11    12   ar
    31    11    40    1
    32    12    13   ar
    33    12    15    1
    34    13    14   ar
    35    13    41    1
    36    14    42    1
    37    15    16    1
    38    15    43    1
    39    15    44    1
    40    16    17    1
    41    16    45    1
    42    16    46    1
    43    17    18    1
    44    17    20    1
    45    17    55    1
    46    18    19    1
    47    18    47    1
    48    18    48    1
    49    19    49    1
    50    20    21    1
    51    20    50    1
    52    20    51    1
    53    21    52    1
    54    53    55    1
    55    54    55    1
    56    55    56    1
