@<TRIPOS>MOLECULE
ZINC03871723
 43 46 0 0 0
SMALL
GASTEIGER

@<TRIPOS>ATOM
      1 C           1.5256    0.1591    0.2805 C.ar    1  UNL1       -0.0617
      2 C           0.7708   -0.7282   -0.4735 C.ar    1  UNL1       -0.0612
      3 C          -0.6055   -0.5370   -0.6109 C.ar    1  UNL1       -0.0540
      4 C          -1.2648    0.5361    0.0195 C.ar    1  UNL1       -0.0179
      5 C          -0.4732    1.4205    0.7746 C.ar    1  UNL1       -0.0540
      6 C           0.9082    1.2403    0.8997 C.ar    1  UNL1       -0.0612
      7 C          -2.7285    0.7199   -0.0987 C.ar    1  UNL1       -0.0179
      8 C          -3.3145    1.9964   -0.0797 C.ar    1  UNL1       -0.0537
      9 C          -4.6973    2.1722   -0.1855 C.ar    1  UNL1       -0.0559
     10 C          -5.5462    1.0706   -0.3509 C.ar    1  UNL1       -0.0223
     11 C          -4.9708   -0.2087   -0.3891 C.ar    1  UNL1       -0.0559
     12 C          -3.5931   -0.3777   -0.2470 C.ar    1  UNL1       -0.0537
     13 C          -7.0339    1.2895   -0.5547 C.3     1  UNL1        0.0789
     14 H          -7.2395    2.3709   -0.5474 H       1  UNL1        0.0604
     15 C          -7.5209    0.7258   -1.8787 C.ar    1  UNL1       -0.0224
     16 C          -7.4271    1.5054   -3.0450 C.ar    1  UNL1       -0.0565
     17 C          -7.8298    0.9882   -4.2751 C.ar    1  UNL1       -0.0614
     18 C          -8.3257   -0.3125   -4.3583 C.ar    1  UNL1       -0.0617
     19 C          -8.4083   -1.1028   -3.2160 C.ar    1  UNL1       -0.0614
     20 C          -8.0020   -0.5908   -1.9859 C.ar    1  UNL1       -0.0565
     21 N          -7.8424    0.7575    0.5728 N.pl3   1  UNL1       -0.2862
     22 C          -9.2319    0.8778    0.6750 C.2     1  UNL1        0.0144
     23 C          -9.5960    0.3417    1.8736 C.2     1  UNL1        0.0167
     24 N          -8.4349   -0.0905    2.4678 N.2     1  UNL1       -0.3541
     25 C          -7.3805    0.1592    1.6824 C.2     1  UNL1        0.0647
     26 H           2.5994    0.0139    0.3852 H       1  UNL1        0.0618
     27 H           1.2518   -1.5745   -0.9625 H       1  UNL1        0.0618
     28 H          -1.1544   -1.2412   -1.2326 H       1  UNL1        0.0624
     29 H          -0.9202    2.2672    1.2918 H       1  UNL1        0.0624
     30 H           1.4945    1.9418    1.4859 H       1  UNL1        0.0618
     31 H          -2.6893    2.8858   -0.0099 H       1  UNL1        0.0624
     32 H          -5.0873    3.1890   -0.1746 H       1  UNL1        0.0621
     33 H          -5.5775   -1.0976   -0.5537 H       1  UNL1        0.0621
     34 H          -3.1967   -1.3924   -0.2695 H       1  UNL1        0.0624
     35 H          -7.0202    2.5160   -3.0135 H       1  UNL1        0.0621
     36 H          -7.7474    1.5918   -5.1764 H       1  UNL1        0.0618
     37 H          -8.6338   -0.7155   -5.3195 H       1  UNL1        0.0618
     38 H          -8.7762   -2.1229   -3.2862 H       1  UNL1        0.0618
     39 H          -8.0512   -1.2393   -1.1157 H       1  UNL1        0.0621
     40 H          -9.7834    1.3233   -0.1384 H       1  UNL1        0.0799
     41 H         -10.5307    0.2065    2.3901 H       1  UNL1        0.0820
     42 H          -6.3544   -0.0889    1.9289 H       1  UNL1        0.0982
     43 H          -8.3697   -0.5337    3.3800 H       1  UNL1        0.1660
@<TRIPOS>BOND
     1     1     6   ar
     2     1     2   ar
     3     1    26    1
     4     2     3   ar
     5     2    27    1
     6     3     4   ar
     7     3    28    1
     8     4     5   ar
     9     4     7    1
    10     5     6   ar
    11     5    29    1
    12     6    30    1
    13     7    12   ar
    14     7     8   ar
    15     8     9   ar
    16     8    31    1
    17     9    10   ar
    18     9    32    1
    19    10    11   ar
    20    10    13    1
    21    11    12   ar
    22    11    33    1
    23    12    34    1
    24    13    14    1
    25    13    15    1
    26    13    21    1
    27    15    20   ar
    28    15    16   ar
    29    16    17   ar
    30    16    35    1
    31    17    18   ar
    32    17    36    1
    33    18    19   ar
    34    18    37    1
    35    19    20   ar
    36    19    38    1
    37    20    39    1
    38    21    25    1
    39    21    22    1
    40    22    23    2
    41    22    40    1
    42    23    24    1
    43    23    41    1
    44    24    25    2
    45    24    43    1
    46    25    42    1
