@<TRIPOS>MOLECULE
ZINC00002055
 17 17 0 0 0
SMALL
GASTEIGER

@<TRIPOS>ATOM
      1 C          -1.8418    0.0589   -0.0075 C.ar    1  UNL1       -0.0608
      2 C          -1.1899   -1.1714   -0.0032 C.ar    1  UNL1       -0.0583
      3 C           0.2041   -1.2232    0.0096 C.ar    1  UNL1       -0.0194
      4 C           0.9497   -0.0391    0.0199 C.ar    1  UNL1        0.1289
      5 C           0.3062    1.2090    0.0221 C.ar    1  UNL1        0.0778
      6 C          -1.0987    1.2418    0.0055 C.ar    1  UNL1       -0.0461
      7 C           1.0142    2.5257    0.0431 C.2     1  UNL1        0.2451
      8 O           0.4047    3.5887    0.0437 O.2     1  UNL1       -0.2703
      9 N           2.3779    2.5111    0.0668 N.am    1  UNL1       -0.3252
     10 O           2.3189   -0.1313    0.0285 O.3     1  UNL1       -0.5060
     11 H          -2.9284    0.1020   -0.0192 H       1  UNL1        0.0618
     12 H          -1.7690   -2.0918   -0.0098 H       1  UNL1        0.0619
     13 H           0.6899   -2.1948    0.0135 H       1  UNL1        0.0654
     14 H          -1.6221    2.1968    0.0041 H       1  UNL1        0.0626
     15 H           2.8849    1.6327    0.0740 H       1  UNL1        0.1453
     16 H           2.8792    3.3861    0.0924 H       1  UNL1        0.1453
     17 H           2.5694   -1.0708   -0.0037 H       1  UNL1        0.2922
@<TRIPOS>BOND
     1     1     6   ar
     2     1     2   ar
     3     1    11    1
     4     2     3   ar
     5     2    12    1
     6     3     4   ar
     7     3    13    1
     8     4     5   ar
     9     4    10    1
    10     5     6   ar
    11     5     7    1
    12     6    14    1
    13     7     8    2
    14     7     9   am
    15     9    15    1
    16     9    16    1
    17    10    17    1
