@<TRIPOS>MOLECULE
ZINC03831107
 30 30 0 0 0
SMALL
GASTEIGER

@<TRIPOS>ATOM
      1 C           1.7632    0.7698    1.1938 C.3     1  UNL1       -0.0639
      2 C           0.7183    1.0801    0.1275 C.3     1  UNL1       -0.0351
      3 C           1.1134    2.1274   -0.9547 C.3     1  UNL1        0.1045
      4 C          -0.1116    2.2648   -1.8700 C.2     1  UNL1        0.1524
      5 O          -0.2992    1.4983   -2.8206 O.2     1  UNL1       -0.2960
      6 C          -1.1809    3.2874   -1.5215 C.3     1  UNL1        0.0312
      7 H          -1.7611    3.4705   -2.4358 H       1  UNL1        0.0390
      8 C          -0.5021    4.5823   -1.1326 C.3     1  UNL1        0.0209
      9 N           0.5190    4.3945   -0.1321 N.am    1  UNL1       -0.3138
     10 C           1.4895    3.4435   -0.2689 C.2     1  UNL1        0.2264
     11 O           2.5904    3.6500    0.2395 O.2     1  UNL1       -0.2747
     12 C          -2.1542    2.7879   -0.4580 C.3     1  UNL1       -0.0542
     13 C           2.3353    1.6032   -1.7603 C.3     1  UNL1       -0.0351
     14 C           2.7756    2.4895   -2.9224 C.3     1  UNL1       -0.0639
     15 H           2.6936    0.3945    0.7641 H       1  UNL1        0.0230
     16 H           1.3776   -0.0017    1.8678 H       1  UNL1        0.0230
     17 H           1.9830    1.6503    1.8054 H       1  UNL1        0.0230
     18 H           0.4455    0.1386   -0.3679 H       1  UNL1        0.0277
     19 H          -0.1793    1.4015    0.6606 H       1  UNL1        0.0277
     20 H          -1.2211    5.3106   -0.7432 H       1  UNL1        0.0469
     21 H          -0.0112    5.0275   -2.0074 H       1  UNL1        0.0469
     22 H           0.8807    5.2290    0.3207 H       1  UNL1        0.1487
     23 H          -3.0480    3.4198   -0.4332 H       1  UNL1        0.0237
     24 H          -2.4712    1.7598   -0.6616 H       1  UNL1        0.0237
     25 H          -1.7232    2.8183    0.5468 H       1  UNL1        0.0237
     26 H           3.2008    1.4929   -1.0957 H       1  UNL1        0.0277
     27 H           2.1256    0.6025   -2.1544 H       1  UNL1        0.0277
     28 H           2.8221    3.5454   -2.6430 H       1  UNL1        0.0230
     29 H           3.7765    2.1897   -3.2540 H       1  UNL1        0.0230
     30 H           2.1034    2.3855   -3.7790 H       1  UNL1        0.0230
@<TRIPOS>BOND
     1     1     2    1
     2     1    15    1
     3     1    16    1
     4     1    17    1
     5     2     3    1
     6     2    18    1
     7     2    19    1
     8     3    10    1
     9     3     4    1
    10     3    13    1
    11     4     5    2
    12     4     6    1
    13     6     8    1
    14     8     9    1
    15     8    20    1
    16     8    21    1
    17     9    10   am
    18     9    22    1
    19    10    11    2
    20    12    23    1
    21    12    24    1
    22    12    25    1
    23    13    14    1
    24    13    26    1
    25    13    27    1
    26    14    28    1
    27    14    29    1
    28    14    30    1
    29     6    12    1
    30     6     7    1
