@<TRIPOS>MOLECULE
ZINC02522669
 54 56 0 0 0
SMALL
GASTEIGER

@<TRIPOS>ATOM
      1 C          -1.4133   -1.3640   -1.8112 C.3     1  UNL1       -0.0570
      2 C          -0.0038   -1.7511   -2.2366 C.3     1  UNL1        0.0217
      3 C           1.0799   -0.7571   -1.8318 C.2     1  UNL1        0.2198
      4 O           0.8112    0.0152   -0.9042 O.2     1  UNL1       -0.2753
      5 N           2.3551   -0.7743   -2.4658 N.am    1  UNL1       -0.2680
      6 C           3.4190   -0.0921   -1.7249 C.ar    1  UNL1        0.0366
      7 C           3.2586    1.2240   -1.2626 C.ar    1  UNL1       -0.0403
      8 C           4.2734    1.8690   -0.5439 C.ar    1  UNL1       -0.0600
      9 C           5.4685    1.2092   -0.2735 C.ar    1  UNL1       -0.0616
     10 C           5.6480   -0.0960   -0.7230 C.ar    1  UNL1       -0.0600
     11 C           4.6354   -0.7414   -1.4410 C.ar    1  UNL1       -0.0403
     12 C           2.8489   -1.6340   -3.6213 C.3     1  UNL1        0.0407
     13 C           3.8156   -0.8606   -4.5734 C.3     1  UNL1        0.0067
     14 C           3.1034    0.2409   -5.3615 C.3     1  UNL1       -0.0302
     15 N           1.9164   -0.3039   -6.1416 N.4     1  UNL1        0.2356
     16 C           1.0209   -1.1074   -5.2475 C.3     1  UNL1       -0.0302
     17 C           1.8097   -2.2262   -4.5770 C.3     1  UNL1        0.0067
     18 C           2.2782   -0.9567   -7.4709 C.3     1  UNL1       -0.0278
     19 C           1.0247   -1.4431   -8.2091 C.3     1  UNL1        0.0127
     20 C           1.3422   -2.0624   -9.5374 C.ar    1  UNL1       -0.0423
     21 C           1.3263   -1.2913  -10.7041 C.ar    1  UNL1       -0.0584
     22 C           1.5785   -1.8896  -11.9354 C.ar    1  UNL1       -0.0615
     23 C           1.8552   -3.2550  -12.0105 C.ar    1  UNL1       -0.0617
     24 C           1.8868   -4.0255  -10.8522 C.ar    1  UNL1       -0.0615
     25 C           1.6362   -3.4335   -9.6176 C.ar    1  UNL1       -0.0584
     26 H          -1.4747   -1.0221   -0.7782 H       1  UNL1        0.0234
     27 H          -2.0847   -2.2194   -1.9427 H       1  UNL1        0.0234
     28 H          -1.7867   -0.5611   -2.4616 H       1  UNL1        0.0234
     29 H           0.2649   -2.7318   -1.8262 H       1  UNL1        0.0356
     30 H          -0.1152   -1.8328   -3.3019 H       1  UNL1        0.0356
     31 H           2.3373    1.7732   -1.4416 H       1  UNL1        0.0636
     32 H           4.1219    2.8818   -0.1771 H       1  UNL1        0.0618
     33 H           6.2481    1.7017    0.3021 H       1  UNL1        0.0618
     34 H           6.5719   -0.6230   -0.4867 H       1  UNL1        0.0618
     35 H           4.8127   -1.7732   -1.7266 H       1  UNL1        0.0636
     36 H           3.3800   -2.4802   -3.1696 H       1  UNL1        0.0508
     37 H           4.6647   -0.4209   -4.0442 H       1  UNL1        0.0335
     38 H           4.2609   -1.5743   -5.2800 H       1  UNL1        0.0335
     39 H           2.7027    1.0073   -4.6881 H       1  UNL1        0.0815
     40 H           3.7723    0.7281   -6.0772 H       1  UNL1        0.0815
     41 H           0.1717   -1.4902   -5.8139 H       1  UNL1        0.0815
     42 H           0.6114   -0.3784   -4.5429 H       1  UNL1        0.0815
     43 H           2.3179   -2.8306   -5.3411 H       1  UNL1        0.0335
     44 H           1.1836   -2.9649   -4.0737 H       1  UNL1        0.0335
     45 H           2.7936   -0.1872   -8.0567 H       1  UNL1        0.0818
     46 H           2.9770   -1.7736   -7.2696 H       1  UNL1        0.0818
     47 H           0.4971   -2.2100   -7.6314 H       1  UNL1        0.0365
     48 H           0.3111   -0.6192   -8.3389 H       1  UNL1        0.0365
     49 H           1.0886   -0.2297  -10.6755 H       1  UNL1        0.0620
     50 H           1.5472   -1.2974  -12.8464 H       1  UNL1        0.0618
     51 H           2.0359   -3.7208  -12.9764 H       1  UNL1        0.0618
     52 H           2.0920   -5.0927  -10.9153 H       1  UNL1        0.0618
     53 H           1.6428   -4.0609   -8.7284 H       1  UNL1        0.0620
     54 H           1.3702    0.5299   -6.4042 H       1  UNL1        0.2033
@<TRIPOS>UNITY_ATOM_ATTR
15 1
charge 1
@<TRIPOS>BOND
     1     1     2    1
     2     1    26    1
     3     1    27    1
     4     1    28    1
     5     2     3    1
     6     2    29    1
     7     2    30    1
     8     3     4    2
     9     3     5   am
    10     5     6    1
    11     5    12    1
    12     6    11   ar
    13     6     7   ar
    14     7     8   ar
    15     7    31    1
    16     8     9   ar
    17     8    32    1
    18     9    10   ar
    19     9    33    1
    20    10    11   ar
    21    10    34    1
    22    11    35    1
    23    12    17    1
    24    12    13    1
    25    12    36    1
    26    13    14    1
    27    13    37    1
    28    13    38    1
    29    14    15    1
    30    14    39    1
    31    14    40    1
    32    15    16    1
    33    15    18    1
    34    15    54    1
    35    16    17    1
    36    16    41    1
    37    16    42    1
    38    17    43    1
    39    17    44    1
    40    18    19    1
    41    18    45    1
    42    18    46    1
    43    19    20    1
    44    19    47    1
    45    19    48    1
    46    20    25   ar
    47    20    21   ar
    48    21    22   ar
    49    21    49    1
    50    22    23   ar
    51    22    50    1
    52    23    24   ar
    53    23    51    1
    54    24    25   ar
    55    24    52    1
    56    25    53    1
