@<TRIPOS>MOLECULE
ZINC00394284
 28 28 0 0 0
SMALL
GASTEIGER

@<TRIPOS>ATOM
      1 C          -0.4483    3.9360   -1.8162 C.3     1  UNL1        0.0790
      2 O           0.3621    2.7795   -1.5894 O.3     1  UNL1       -0.4915
      3 C           1.1803    2.4555   -2.6361 C.ar    1  UNL1        0.1615
      4 C           1.9822    3.4498   -3.2276 C.ar    1  UNL1       -0.0163
      5 C           2.7825    3.1632   -4.3315 C.ar    1  UNL1       -0.0581
      6 C           2.8316    1.8673   -4.8277 C.ar    1  UNL1       -0.0581
      7 C           2.1008    0.8582   -4.1952 C.ar    1  UNL1       -0.0163
      8 C           1.2777    1.1306   -3.0907 C.ar    1  UNL1        0.1620
      9 O           0.6555    0.0058   -2.6205 O.3     1  UNL1       -0.4857
     10 C          -0.2716    0.1136   -1.5413 C.3     1  UNL1        0.1177
     11 C          -0.9767   -1.2409   -1.3691 C.3     1  UNL1        0.1120
     12 H          -1.7545   -1.1543   -0.6033 H       1  UNL1        0.0650
     13 C          -0.0320   -2.3875   -0.9957 C.3     1  UNL1        0.0733
     14 O          -0.8007   -3.5736   -0.7638 O.3     1  UNL1       -0.3923
     15 O          -1.6590   -1.6054   -2.5863 O.3     1  UNL1       -0.3861
     16 H          -1.4983    3.6392   -1.7363 H       1  UNL1        0.0660
     17 H          -0.3170    4.4077   -2.7971 H       1  UNL1        0.0660
     18 H          -0.2348    4.6711   -1.0345 H       1  UNL1        0.0660
     19 H           1.9839    4.4628   -2.8339 H       1  UNL1        0.0655
     20 H           3.3668    3.9508   -4.8017 H       1  UNL1        0.0619
     21 H           3.4400    1.6352   -5.6962 H       1  UNL1        0.0619
     22 H           2.1696   -0.1591   -4.5715 H       1  UNL1        0.0655
     23 H           0.2447    0.3886   -0.6146 H       1  UNL1        0.0723
     24 H          -1.0423    0.8475   -1.7981 H       1  UNL1        0.0723
     25 H           0.6725   -2.6160   -1.8004 H       1  UNL1        0.0584
     26 H           0.5258   -2.1648   -0.0811 H       1  UNL1        0.0584
     27 H          -1.4565   -3.6006   -1.4884 H       1  UNL1        0.2095
     28 H          -1.1829   -1.1582   -3.3133 H       1  UNL1        0.2100
@<TRIPOS>BOND
     1     1     2    1
     2     1    16    1
     3     1    17    1
     4     1    18    1
     5     2     3    1
     6     3     8   ar
     7     3     4   ar
     8     4     5   ar
     9     4    19    1
    10     5     6   ar
    11     5    20    1
    12     6     7   ar
    13     6    21    1
    14     7     8   ar
    15     7    22    1
    16     8     9    1
    17     9    10    1
    18    10    23    1
    19    10    24    1
    20    11    13    1
    21    11    15    1
    22    13    14    1
    23    13    25    1
    24    13    26    1
    25    14    27    1
    26    15    28    1
    27    11    12    1
    28    11    10    1
