@<TRIPOS>MOLECULE
ZINC00896709
 37 38 0 0 0
SMALL
GASTEIGER

@<TRIPOS>ATOM
      1 C          -2.9741   -0.4042    6.9348 C.3     1  UNL1        0.0817
      2 O          -1.5481   -0.3176    6.8414 O.3     1  UNL1       -0.4674
      3 C          -0.9269   -1.4939    6.5432 C.2     1  UNL1        0.3198
      4 O          -1.4866   -2.5536    6.3236 O.2     1  UNL1       -0.2499
      5 C           0.5657   -1.2645    6.3723 C.3     1  UNL1        0.1238
      6 H           0.7610   -0.2018    6.5653 H       1  UNL1        0.0519
      7 C           1.4070   -2.0739    7.3533 C.ar    1  UNL1       -0.0284
      8 C           2.3229   -1.4056    8.1854 C.ar    1  UNL1       -0.0576
      9 C           3.1778   -2.1189    9.0273 C.ar    1  UNL1       -0.0615
     10 C           3.1236   -3.5076    9.0645 C.ar    1  UNL1       -0.0617
     11 C           2.1924   -4.1843    8.2826 C.ar    1  UNL1       -0.0615
     12 C           1.3356   -3.4746    7.4334 C.ar    1  UNL1       -0.0576
     13 C           0.9023   -1.5744    4.8875 C.3     1  UNL1       -0.0053
     14 H           0.6684   -2.6234    4.6657 H       1  UNL1        0.0862
     15 C           0.1841   -0.6895    3.8598 C.3     1  UNL1       -0.0084
     16 C           0.6436    0.7636    3.9007 C.3     1  UNL1       -0.0431
     17 C           2.1585    0.9059    3.7860 C.3     1  UNL1       -0.0124
     18 C           2.9669   -0.0737    4.6254 C.3     1  UNL1       -0.0334
     19 N           2.3878   -1.4469    4.5923 N.4     1  UNL1        0.2300
     20 H          -3.3524    0.5828    7.2146 H       1  UNL1        0.0661
     21 H          -3.2652   -1.1227    7.7065 H       1  UNL1        0.0661
     22 H          -3.4032   -0.6776    5.9654 H       1  UNL1        0.0661
     23 H           2.3737   -0.3175    8.2063 H       1  UNL1        0.0621
     24 H           3.8799   -1.5884    9.6708 H       1  UNL1        0.0618
     25 H           3.7899   -4.0632    9.7251 H       1  UNL1        0.0618
     26 H           2.1220   -5.2692    8.3475 H       1  UNL1        0.0618
     27 H           0.6011   -4.0421    6.8613 H       1  UNL1        0.0621
     28 H          -0.9026   -0.7349    3.9937 H       1  UNL1        0.0320
     29 H           0.3774   -1.0884    2.8553 H       1  UNL1        0.0320
     30 H           0.1723    1.3122    3.0757 H       1  UNL1        0.0269
     31 H           0.2940    1.2404    4.8230 H       1  UNL1        0.0269
     32 H           2.4450    0.7985    2.7328 H       1  UNL1        0.0317
     33 H           2.4402    1.9280    4.0709 H       1  UNL1        0.0317
     34 H           3.9868   -0.1582    4.2342 H       1  UNL1        0.0814
     35 H           3.0221    0.2353    5.6719 H       1  UNL1        0.0814
     36 H           2.5712   -1.8634    3.6679 H       1  UNL1        0.2016
     37 H           2.9109   -2.0436    5.2546 H       1  UNL1        0.2016
@<TRIPOS>UNITY_ATOM_ATTR
19 1
charge 1
@<TRIPOS>BOND
     1     1     2    1
     2     1    20    1
     3     1    21    1
     4     1    22    1
     5     2     3    1
     6     3     4    2
     7     3     5    1
     8     5     6    1
     9     5     7    1
    10     7    12   ar
    11     7     8   ar
    12     8     9   ar
    13     8    23    1
    14     9    10   ar
    15     9    24    1
    16    10    11   ar
    17    10    25    1
    18    11    12   ar
    19    11    26    1
    20    12    27    1
    21    13    19    1
    22    13    15    1
    23    15    16    1
    24    15    28    1
    25    15    29    1
    26    16    17    1
    27    16    30    1
    28    16    31    1
    29    17    18    1
    30    17    32    1
    31    17    33    1
    32    18    19    1
    33    18    34    1
    34    18    35    1
    35    19    36    1
    36    19    37    1
    37    13    14    1
    38    13     5    1
