@<TRIPOS>MOLECULE
ZINC03830515
 43 45 0 0 0
SMALL
GASTEIGER

@<TRIPOS>ATOM
      1 C          -2.5453   -5.1675   -0.1410 C.3     1  UNL1       -0.0407
      2 C          -2.3152   -3.6741   -0.1098 C.2     1  UNL1       -0.0342
      3 CA         -2.5233   -2.8514   -1.1719 C.2     1  UNL1        0.1261
      4 N          -2.2318   -1.5190   -1.0649 N.am    1  UNL1       -0.2489
      5 C          -1.5490   -0.8872    0.0388 C.3     1  UNL1        0.1042
      6 H          -0.4610   -1.0132    0.0049 H       1  UNL1        0.0644
      7 CA         -2.0190    0.4681   -0.5623 C.3     1  UNL1        0.1285
      8 HA         -1.2259    1.0230   -1.0801 H       1  UNL1        0.0622
      9 C          -2.8356   -0.4056   -1.5441 C.2     1  UNL1        0.2440
     10 O          -3.7902   -0.1544   -2.2535 O.2     1  UNL1       -0.2731
     11 N          -2.8832    1.4138    0.2216 N.am    1  UNL1       -0.2968
     12 C          -2.4757    2.0493    1.3642 C.2     1  UNL1        0.2662
     13 O          -1.3538    1.9508    1.8570 O.2     1  UNL1       -0.2692
     14 CA         -3.5082    3.0215    2.0093 C.3     1  UNL1        0.0752
     15 HA         -3.7677    3.7436    1.2234 H       1  UNL1        0.0999
     16 C          -4.7406    2.3495    2.5460 C.2     1  UNL1       -0.0131
     17 C          -5.9766    2.8016    2.2444 C.2     1  UNL1       -0.0750
     18 C          -7.2467    2.0550    2.5743 C.3     1  UNL1       -0.0161
     19 C          -6.9958    0.6650    3.0736 C.2     1  UNL1       -0.0839
     20 C          -5.7813    0.2280    3.4345 C.2     1  UNL1       -0.0834
     21 C          -4.5561    1.0854    3.3723 C.3     1  UNL1       -0.0078
     22 N          -2.8374    3.8417    3.0619 N.4     1  UNL1        0.2305
     23 S          -2.3010   -1.4569    1.5854 S.3     1  UNL1       -0.1311
     24 C          -1.8744   -3.1933    1.2539 C.3     1  UNL1        0.0186
     25 C          -3.0775   -3.3762   -2.5660 C.2     1  UNL1        0.4006
     26 O          -2.4813   -2.8815   -3.5675 O.co2   1  UNL1       -0.2392
     27 OXT        -4.0160   -4.2212   -2.5018 O.co2   1  UNL1       -0.2392
     28 H          -1.7606   -5.6803    0.4275 H       1  UNL1        0.0275
     29 H          -3.5071   -5.4062    0.3254 H       1  UNL1        0.0275
     30 H          -2.5188   -5.6002   -1.1437 H       1  UNL1        0.0275
     31 H          -3.8295    1.5384   -0.1361 H       1  UNL1        0.1497
     32 H          -6.1239    3.7148    1.6710 H       1  UNL1        0.0577
     33 H          -7.8281    2.6135    3.3156 H       1  UNL1        0.0350
     34 H          -7.8459    1.9913    1.6593 H       1  UNL1        0.0350
     35 H          -7.8462   -0.0124    3.1192 H       1  UNL1        0.0572
     36 H          -5.6577   -0.8011    3.7688 H       1  UNL1        0.0572
     37 H          -3.7539    0.4816    2.9553 H       1  UNL1        0.0354
     38 H          -4.2531    1.3549    4.3912 H       1  UNL1        0.0354
     39 H1         -2.6493    3.2654    3.8878 H       1  UNL1        0.2005
     40 H2         -1.9086    4.1301    2.7114 H       1  UNL1        0.2005
     41 H          -2.3573   -3.7853    2.0381 H       1  UNL1        0.0423
     42 H          -0.7919   -3.3228    1.3578 H       1  UNL1        0.0423
     43 H3         -3.3873    4.6629    3.3222 H       1  UNL1        0.2005
@<TRIPOS>UNITY_ATOM_ATTR
22 1
charge 1
@<TRIPOS>BOND
     1     1     2    1
     2     1    28    1
     3     1    29    1
     4     1    30    1
     5     2    24    1
     6     2     3    2
     7     3     4    1
     8     3    25    1
     9     4     9   am
    10     4     5    1
    11     5     6    1
    12     5     7    1
    13     5    23    1
    14     7     9    1
    15     9    10    2
    16    11    12   am
    17    11    31    1
    18    12    13    2
    19    12    14    1
    20    14    15    1
    21    14    16    1
    22    14    22    1
    23    16    21    1
    24    16    17    2
    25    17    18    1
    26    17    32    1
    27    18    19    1
    28    18    33    1
    29    18    34    1
    30    19    20    2
    31    19    35    1
    32    20    21    1
    33    20    36    1
    34    21    37    1
    35    21    38    1
    36    22    39    1
    37    22    40    1
    38    22    43    1
    39    23    24    1
    40    24    41    1
    41    24    42    1
    42    25    26   ar
    43    25    27   ar
    44     7    11    1
    45     7     8    1
