@<TRIPOS>MOLECULE
ZINC00013156
 23 24 0 0 0
SMALL
GASTEIGER

@<TRIPOS>ATOM
      1 C          -1.0691    0.7168   -1.1910 C.ar    1  UNL1       -0.0597
      2 C          -1.1013   -0.6785   -1.1525 C.ar    1  UNL1       -0.0509
      3 C          -1.2430   -1.4035    0.0547 C.ar    1  UNL1        0.0252
      4 C          -1.3265   -0.6410    1.2509 C.ar    1  UNL1        0.0686
      5 C          -1.2518    0.7685    1.2084 C.ar    1  UNL1        0.0599
      6 C          -1.1345    1.4396   -0.0095 C.ar    1  UNL1       -0.0419
      7 CL         -1.2996    1.7562    2.6323 Cl      1  UNL1       -0.0820
      8 CL         -1.5863   -1.4074    2.7947 Cl      1  UNL1       -0.0814
      9 C          -1.2636   -2.8895    0.0149 C.ar    1  UNL1        0.1342
     10 C          -1.8771   -3.6828   -0.9638 C.ar    1  UNL1        0.1478
     11 N          -1.8098   -5.0264   -0.9649 N.ar    1  UNL1       -0.1967
     12 C          -1.1184   -5.5889    0.0282 C.ar    1  UNL1        0.2341
     13 N          -0.5237   -4.8883    1.0073 N.ar    1  UNL1       -0.1128
     14 N          -0.5814   -3.5209    0.9902 N.ar    1  UNL1       -0.1424
     15 N          -1.0592   -6.9710    0.0567 N.pl3   1  UNL1       -0.3262
     16 N          -2.5760   -3.1596   -2.0617 N.pl3   1  UNL1       -0.3413
     17 H          -0.9779    1.2324   -2.1442 H       1  UNL1        0.0618
     18 H          -0.9994   -1.2049   -2.1020 H       1  UNL1        0.0625
     19 H          -1.0906    2.5259   -0.0407 H       1  UNL1        0.0633
     20 H          -1.8224   -7.3686   -0.4717 H       1  UNL1        0.1452
     21 H          -0.9186   -7.3050    1.0007 H       1  UNL1        0.1452
     22 H          -2.9326   -3.9515   -2.5954 H       1  UNL1        0.1438
     23 H          -3.3154   -2.5261   -1.7794 H       1  UNL1        0.1438
@<TRIPOS>BOND
     1     1     6   ar
     2     1     2   ar
     3     1    17    1
     4     2     3   ar
     5     2    18    1
     6     3     4   ar
     7     3     9    1
     8     4     5   ar
     9     4     8    1
    10     5     6   ar
    11     5     7    1
    12     6    19    1
    13     9    14   ar
    14     9    10   ar
    15    10    11   ar
    16    10    16    1
    17    11    12   ar
    18    12    13   ar
    19    12    15    1
    20    13    14   ar
    21    15    20    1
    22    15    21    1
    23    16    22    1
    24    16    23    1
