@<TRIPOS>MOLECULE
ZINC00000346
 51 53 0 0 0
SMALL
GASTEIGER

@<TRIPOS>ATOM
      1 C           6.3284    2.4673   -6.9957 C.3     1  UNL1       -0.0414
      2 N           6.1899    1.3880   -5.9188 N.4     1  UNL1        0.2417
      3 C           4.9486    0.5323   -6.1828 C.3     1  UNL1       -0.0269
      4 C           3.8225    1.2841   -5.5020 C.3     1  UNL1        0.0298
      5 C           4.4553    1.7502   -4.2010 C.3     1  UNL1        0.1473
      6 H           4.4389    0.9105   -3.4941 H       1  UNL1        0.0790
      7 C           5.9334    2.0361   -4.5317 C.3     1  UNL1        0.0076
      8 O           3.7013    2.7937   -3.5553 O.3     1  UNL1       -0.4535
      9 C           3.7467    4.0626   -4.0256 C.2     1  UNL1        0.3445
     10 O           4.3677    4.3576   -5.0466 O.2     1  UNL1       -0.2472
     11 C           2.9180    5.1084   -3.2157 C.3     1  UNL1        0.1902
     12 C           3.0212    4.9950   -1.6823 C.ar    1  UNL1       -0.0051
     13 C           3.2480    6.1444   -0.8998 C.ar    1  UNL1       -0.0553
     14 C           3.4140    6.0747    0.4895 C.ar    1  UNL1       -0.0614
     15 C           3.3502    4.8488    1.1354 C.ar    1  UNL1       -0.0617
     16 C           3.0705    3.7001    0.3991 C.ar    1  UNL1       -0.0614
     17 C           2.8862    3.7790   -0.9893 C.ar    1  UNL1       -0.0553
     18 C           1.4611    5.2455   -3.7320 C.3     1  UNL1        0.0026
     19 C           1.3387    5.4477   -5.2527 C.3     1  UNL1       -0.0467
     20 C          -0.1325    5.1975   -5.5286 C.3     1  UNL1       -0.0527
     21 C          -0.4791    4.0271   -4.6208 C.3     1  UNL1       -0.0527
     22 C           0.4987    4.0867   -3.4415 C.3     1  UNL1       -0.0467
     23 O           3.5709    6.3637   -3.5699 O.3     1  UNL1       -0.3730
     24 C           7.4515    0.5438   -5.9076 C.3     1  UNL1       -0.0414
     25 H           6.6219    1.9765   -7.9301 H       1  UNL1        0.0778
     26 H           7.1006    3.1731   -6.6815 H       1  UNL1        0.0778
     27 H           5.3686    2.9709   -7.1264 H       1  UNL1        0.0778
     28 H           5.1102   -0.4437   -5.7099 H       1  UNL1        0.0816
     29 H           4.8143    0.4047   -7.2615 H       1  UNL1        0.0816
     30 H           3.4717    2.1246   -6.1118 H       1  UNL1        0.0355
     31 H           2.9526    0.6443   -5.3227 H       1  UNL1        0.0355
     32 H           6.2370    3.0838   -4.5654 H       1  UNL1        0.0852
     33 H           6.5784    1.5298   -3.8044 H       1  UNL1        0.0852
     34 H           3.2997    7.1303   -1.3637 H       1  UNL1        0.0621
     35 H           3.6004    6.9813    1.0593 H       1  UNL1        0.0618
     36 H           3.4997    4.7879    2.2109 H       1  UNL1        0.0618
     37 H           2.9922    2.7442    0.9080 H       1  UNL1        0.0618
     38 H           2.6340    2.8550   -1.4991 H       1  UNL1        0.0621
     39 H           1.0303    6.1477   -3.2694 H       1  UNL1        0.0337
     40 H           1.6429    6.4508   -5.5671 H       1  UNL1        0.0269
     41 H           1.9338    4.7178   -5.8111 H       1  UNL1        0.0269
     42 H          -0.3210    4.9722   -6.5831 H       1  UNL1        0.0265
     43 H          -0.7253    6.0788   -5.2595 H       1  UNL1        0.0265
     44 H          -0.3436    3.0816   -5.1592 H       1  UNL1        0.0265
     45 H          -1.5232    4.0708   -4.2953 H       1  UNL1        0.0265
     46 H           1.0126    3.1263   -3.3462 H       1  UNL1        0.0269
     47 H          -0.0422    4.2648   -2.5050 H       1  UNL1        0.0269
     48 H           3.7585    6.3397   -4.5274 H       1  UNL1        0.2113
     49 H           7.5561    0.0664   -6.8866 H       1  UNL1        0.0778
     50 H           8.3021    1.2005   -5.7038 H       1  UNL1        0.0778
     51 H           7.3583   -0.2156   -5.1257 H       1  UNL1        0.0778
@<TRIPOS>UNITY_ATOM_ATTR
2 1
charge 1
@<TRIPOS>BOND
     1     1     2    1
     2     1    25    1
     3     1    26    1
     4     1    27    1
     5     2     7    1
     6     2     3    1
     7     2    24    1
     8     3     4    1
     9     3    28    1
    10     3    29    1
    11     4     5    1
    12     4    30    1
    13     4    31    1
    14     5     7    1
    15     7    32    1
    16     7    33    1
    17     8     9    1
    18     9    10    2
    19    11    18    1
    20    11    23    1
    21    12    17   ar
    22    12    13   ar
    23    13    14   ar
    24    13    34    1
    25    14    15   ar
    26    14    35    1
    27    15    16   ar
    28    15    36    1
    29    16    17   ar
    30    16    37    1
    31    17    38    1
    32    18    22    1
    33    18    19    1
    34    18    39    1
    35    19    20    1
    36    19    40    1
    37    19    41    1
    38    20    21    1
    39    20    42    1
    40    20    43    1
    41    21    22    1
    42    21    44    1
    43    21    45    1
    44    22    46    1
    45    22    47    1
    46    23    48    1
    47    24    49    1
    48    24    50    1
    49    24    51    1
    50     5     8    1
    51     5     6    1
    52    11    12    1
    53    11     9    1
