@<TRIPOS>MOLECULE
ZINC01530981
 48 49 0 0 0
SMALL
GASTEIGER

@<TRIPOS>ATOM
      1 C          -4.5278   -3.5772  -13.2090 C.3     1  UNL1       -0.0491
      2 C          -5.2511   -2.8255  -12.0848 C.3     1  UNL1        0.0239
      3 C          -6.2892   -1.8681  -12.6830 C.3     1  UNL1       -0.0491
      4 C          -5.9426   -3.8260  -11.1505 C.3     1  UNL1       -0.0491
      5 C          -4.2347   -2.0227  -11.2893 C.1     1  UNL1       -0.0916
      6 C          -3.3629   -1.3340  -10.6069 C.1     1  UNL1       -0.0737
      7 C          -2.3465   -0.5312   -9.8114 C.2     1  UNL1       -0.0105
      8 C          -1.6994   -1.0932   -8.7801 C.2     1  UNL1       -0.0313
      9 C          -0.6994   -0.3548   -7.9686 C.3     1  UNL1       -0.0121
     10 N           0.6606   -0.9818   -8.0820 N.4     1  UNL1        0.2392
     11 C           1.6144   -0.3868   -7.0861 C.3     1  UNL1       -0.0425
     12 C           1.1943   -1.0192   -9.5129 C.3     1  UNL1       -0.0053
     13 C           1.5056    0.3219  -10.1335 C.ar    1  UNL1        0.0048
     14 C           0.4988    0.9918  -10.8573 C.ar    1  UNL1       -0.0529
     15 C           0.6933    2.2600  -11.3857 C.ar    1  UNL1       -0.0607
     16 C           1.9275    2.8684  -11.2463 C.ar    1  UNL1       -0.0540
     17 C           2.9673    2.2283  -10.5542 C.ar    1  UNL1       -0.0174
     18 C           2.7696    0.9434   -9.9878 C.ar    1  UNL1       -0.0097
     19 C           3.8574    0.3595   -9.2942 C.ar    1  UNL1       -0.0536
     20 C           5.0739    1.0200   -9.1419 C.ar    1  UNL1       -0.0612
     21 C           5.2483    2.2669   -9.7087 C.ar    1  UNL1       -0.0612
     22 C           4.2057    2.8655  -10.4144 C.ar    1  UNL1       -0.0540
     23 H          -5.2315   -4.1688  -13.8055 H       1  UNL1        0.0244
     24 H          -3.7708   -4.2615  -12.8083 H       1  UNL1        0.0244
     25 H          -4.0150   -2.8842  -13.8863 H       1  UNL1        0.0244
     26 H          -7.0410   -2.4130  -13.2648 H       1  UNL1        0.0244
     27 H          -6.8132   -1.3086  -11.8990 H       1  UNL1        0.0244
     28 H          -5.8185   -1.1340  -13.3477 H       1  UNL1        0.0244
     29 H          -5.2195   -4.5163  -10.7002 H       1  UNL1        0.0244
     30 H          -6.4589   -3.3141  -10.3299 H       1  UNL1        0.0244
     31 H          -6.6845   -4.4244  -11.6912 H       1  UNL1        0.0244
     32 H          -2.2826    0.5200  -10.0729 H       1  UNL1        0.0711
     33 H          -1.8995   -2.1340   -8.5352 H       1  UNL1        0.0631
     34 H          -0.6053    0.6976   -8.2564 H       1  UNL1        0.0861
     35 H          -0.9935   -0.3924   -6.9147 H       1  UNL1        0.0861
     36 H           2.4775   -1.0532   -7.0107 H       1  UNL1        0.0778
     37 H           1.8966    0.6167   -7.4067 H       1  UNL1        0.0778
     38 H           1.1198   -0.3258   -6.1141 H       1  UNL1        0.0778
     39 H           2.0691   -1.6778   -9.5041 H       1  UNL1        0.0867
     40 H           0.4601   -1.5588  -10.1230 H       1  UNL1        0.0867
     41 H          -0.4555    0.5243  -11.0480 H       1  UNL1        0.0622
     42 H          -0.1116    2.7635  -11.9227 H       1  UNL1        0.0618
     43 H           2.0793    3.8486  -11.6905 H       1  UNL1        0.0624
     44 H           3.7898   -0.6243   -8.8434 H       1  UNL1        0.0624
     45 H           5.8844    0.5478   -8.5882 H       1  UNL1        0.0618
     46 H           6.2057    2.7867   -9.6087 H       1  UNL1        0.0618
     47 H           4.3717    3.8477  -10.8541 H       1  UNL1        0.0624
     48 H           0.5395   -1.9648   -7.8076 H       1  UNL1        0.2037
@<TRIPOS>UNITY_ATOM_ATTR
10 1
charge 1
@<TRIPOS>BOND
     1     1     2    1
     2     1    23    1
     3     1    24    1
     4     1    25    1
     5     2     3    1
     6     2     4    1
     7     2     5    1
     8     3    26    1
     9     3    27    1
    10     3    28    1
    11     4    29    1
    12     4    30    1
    13     4    31    1
    14     5     6    3
    15     6     7    1
    16     7     8    2
    17     7    32    1
    18     8     9    1
    19     8    33    1
    20     9    34    1
    21     9    35    1
    22    10    12    1
    23    10    48    1
    24    11    36    1
    25    11    37    1
    26    11    38    1
    27    12    13    1
    28    12    39    1
    29    12    40    1
    30    13    18   ar
    31    13    14   ar
    32    14    15   ar
    33    14    41    1
    34    15    16   ar
    35    15    42    1
    36    16    17   ar
    37    16    43    1
    38    17    22   ar
    39    17    18   ar
    40    18    19   ar
    41    19    20   ar
    42    19    44    1
    43    20    21   ar
    44    20    45    1
    45    21    22   ar
    46    21    46    1
    47    22    47    1
    48    10    11    1
    49    10     9    1
