@<TRIPOS>MOLECULE
ZINC00001021
 28 29 0 0 0
SMALL
GASTEIGER

@<TRIPOS>ATOM
      1 C          -5.8906    0.0954   -3.1039 C.ar    1  UNL1       -0.0617
      2 C          -5.0346    1.1952   -3.1139 C.ar    1  UNL1       -0.0614
      3 C          -4.0559    1.3315   -2.1263 C.ar    1  UNL1       -0.0554
      4 C          -3.9191    0.3600   -1.1252 C.ar    1  UNL1       -0.0103
      5 C          -4.8009   -0.7307   -1.1125 C.ar    1  UNL1       -0.0554
      6 C          -5.7769   -0.8658   -2.1013 C.ar    1  UNL1       -0.0614
      7 C          -2.8357    0.4675   -0.0821 C.3     1  UNL1        0.1178
      8 O          -3.3290    1.1882    1.0553 O.3     1  UNL1       -0.4564
      9 C          -3.2291    0.5358    2.2377 C.2     1  UNL1        0.3395
     10 O          -2.7514   -0.5795    2.4036 O.2     1  UNL1       -0.2450
     11 C          -3.8109    1.3214    3.3552 C.ar    1  UNL1        0.0590
     12 C          -3.8158    0.7359    4.6312 C.ar    1  UNL1       -0.0478
     13 C          -4.4420    1.3743    5.7018 C.ar    1  UNL1       -0.0610
     14 C          -5.0569    2.6098    5.5070 C.ar    1  UNL1       -0.0617
     15 C          -5.0180    3.2204    4.2537 C.ar    1  UNL1       -0.0610
     16 C          -4.3918    2.5836    3.1773 C.ar    1  UNL1       -0.0478
     17 H          -6.6458   -0.0143   -3.8778 H       1  UNL1        0.0618
     18 H          -5.1246    1.9443   -3.8962 H       1  UNL1        0.0618
     19 H          -3.3920    2.1923   -2.1511 H       1  UNL1        0.0621
     20 H          -4.7192   -1.4909   -0.3376 H       1  UNL1        0.0621
     21 H          -6.4427   -1.7247   -2.0925 H       1  UNL1        0.0618
     22 H          -2.4729   -0.5392    0.1584 H       1  UNL1        0.0749
     23 H          -1.9774    1.0149   -0.4847 H       1  UNL1        0.0749
     24 H          -3.3480   -0.2346    4.7902 H       1  UNL1        0.0626
     25 H          -4.4638    0.8990    6.6791 H       1  UNL1        0.0618
     26 H          -5.5709    3.0942    6.3343 H       1  UNL1        0.0618
     27 H          -5.4936    4.1881    4.1088 H       1  UNL1        0.0618
     28 H          -4.3834    3.0712    2.2066 H       1  UNL1        0.0626
@<TRIPOS>BOND
     1     1     6   ar
     2     1     2   ar
     3     1    17    1
     4     2     3   ar
     5     2    18    1
     6     3     4   ar
     7     3    19    1
     8     4     5   ar
     9     4     7    1
    10     5     6   ar
    11     5    20    1
    12     6    21    1
    13     7     8    1
    14     7    22    1
    15     7    23    1
    16     8     9    1
    17     9    10    2
    18     9    11    1
    19    11    16   ar
    20    11    12   ar
    21    12    13   ar
    22    12    24    1
    23    13    14   ar
    24    13    25    1
    25    14    15   ar
    26    14    26    1
    27    15    16   ar
    28    15    27    1
    29    16    28    1
