@<TRIPOS>MOLECULE
ZINC00057319
 44 45 0 0 0
SMALL
GASTEIGER

@<TRIPOS>ATOM
      1 C           0.4200    2.1932    1.5553 C.3     1  UNL1       -0.0213
      2 C           0.1739    0.6988    1.3105 C.3     1  UNL1       -0.0214
      3 H          -0.8156    0.4217    1.6866 H       1  UNL1        0.0851
      4 C           0.3279    0.3427   -0.1891 C.3     1  UNL1        0.0152
      5 C          -0.6556    0.9408   -1.1953 C.ar    1  UNL1       -0.0418
      6 C          -1.9857    1.2673   -0.8876 C.ar    1  UNL1       -0.0549
      7 C          -2.8582    1.7408   -1.8844 C.ar    1  UNL1       -0.0199
      8 C          -2.4162    1.8861   -3.1864 C.ar    1  UNL1        0.1169
      9 C          -1.1134    1.5465   -3.5319 C.ar    1  UNL1       -0.0199
     10 C          -0.2401    1.0767   -2.5353 C.ar    1  UNL1       -0.0549
     11 O          -3.2941    2.3677   -4.1117 O.3     1  UNL1       -0.5068
     12 N           1.1643   -0.0655    2.1972 N.4     1  UNL1        0.2313
     13 C           1.1150   -1.5930    2.2292 C.3     1  UNL1       -0.0025
     14 C           1.9690   -2.1429    3.4207 C.3     1  UNL1        0.1199
     15 H           1.4893   -1.8273    4.3559 H       1  UNL1        0.0698
     16 C           2.1740   -3.6479    3.4516 C.ar    1  UNL1       -0.0072
     17 C           1.8820   -4.4001    4.6076 C.ar    1  UNL1       -0.0141
     18 C           2.1384   -5.7745    4.6521 C.ar    1  UNL1        0.1207
     19 C           2.6598   -6.4458    3.5542 C.ar    1  UNL1        0.0213
     20 C           2.9456   -5.7098    2.4111 C.ar    1  UNL1        0.1207
     21 C           2.7330   -4.3296    2.3604 C.ar    1  UNL1       -0.0141
     22 O           3.4492   -6.3039    1.2909 O.3     1  UNL1       -0.5066
     23 O           1.8700   -6.4368    5.8146 O.3     1  UNL1       -0.5066
     24 O           3.2434   -1.4840    3.3883 O.3     1  UNL1       -0.3819
     25 H          -0.4532    2.7836    1.2579 H       1  UNL1        0.0284
     26 H           1.2764    2.5593    0.9780 H       1  UNL1        0.0284
     27 H           0.6140    2.4111    2.6111 H       1  UNL1        0.0284
     28 H           1.3433    0.6323   -0.5003 H       1  UNL1        0.0368
     29 H           0.2581   -0.7427   -0.3129 H       1  UNL1        0.0368
     30 H          -2.3909    1.1698    0.1135 H       1  UNL1        0.0621
     31 H          -3.8882    1.9920   -1.6446 H       1  UNL1        0.0654
     32 H          -0.7730    1.6140   -4.5559 H       1  UNL1        0.0654
     33 H           0.7721    0.8107   -2.8340 H       1  UNL1        0.0621
     34 H          -2.7973    2.7810   -4.8382 H       1  UNL1        0.2921
     35 H           2.1429    0.1965    1.9913 H       1  UNL1        0.2017
     36 H           0.0678   -1.8945    2.3164 H       1  UNL1        0.0843
     37 H           1.5288   -1.9127    1.2692 H       1  UNL1        0.0843
     38 H           1.4717   -3.9291    5.4991 H       1  UNL1        0.0658
     39 H           2.8521   -7.5140    3.5928 H       1  UNL1        0.0691
     40 H           3.0326   -3.8018    1.4579 H       1  UNL1        0.0658
     41 H           3.4400   -7.2706    1.4062 H       1  UNL1        0.2921
     42 H           2.1849   -7.3563    5.7491 H       1  UNL1        0.2921
     43 H           3.8895   -2.0767    3.8331 H       1  UNL1        0.2105
     44 H           1.0309    0.2570    3.1657 H       1  UNL1        0.2017
@<TRIPOS>UNITY_ATOM_ATTR
12 1
charge 1
@<TRIPOS>BOND
     1     1     2    1
     2     1    25    1
     3     1    26    1
     4     1    27    1
     5     2     3    1
     6     2     4    1
     7     2    12    1
     8     4     5    1
     9     4    28    1
    10     4    29    1
    11     5    10   ar
    12     5     6   ar
    13     6     7   ar
    14     6    30    1
    15     7     8   ar
    16     7    31    1
    17     8     9   ar
    18     8    11    1
    19     9    10   ar
    20     9    32    1
    21    10    33    1
    22    11    34    1
    23    12    13    1
    24    12    35    1
    25    12    44    1
    26    13    14    1
    27    13    36    1
    28    13    37    1
    29    14    15    1
    30    14    16    1
    31    14    24    1
    32    16    21   ar
    33    16    17   ar
    34    17    18   ar
    35    17    38    1
    36    18    19   ar
    37    18    23    1
    38    19    20   ar
    39    19    39    1
    40    20    21   ar
    41    20    22    1
    42    21    40    1
    43    22    41    1
    44    23    42    1
    45    24    43    1
