@<TRIPOS>MOLECULE
ZINC00034157
 27 27 0 0 0
SMALL
GASTEIGER

@<TRIPOS>ATOM
      1 C           1.2502    1.4184   -1.9978 C.3     1  UNL1       -0.0190
      2 C           0.5878    0.1661   -1.4484 C.3     1  UNL1        0.0035
      3 H           0.9005    0.0123   -0.4089 H       1  UNL1        0.0876
      4 C          -0.9689    0.1469   -1.5097 C.3     1  UNL1        0.1223
      5 H          -1.3754    0.9362   -0.8662 H       1  UNL1        0.0701
      6 C          -1.5239    0.2793   -2.9148 C.ar    1  UNL1       -0.0101
      7 C          -1.7601   -0.8555   -3.7177 C.ar    1  UNL1       -0.0522
      8 C          -2.1633   -0.7191   -5.0465 C.ar    1  UNL1       -0.0162
      9 C          -2.3408    0.5488   -5.5734 C.ar    1  UNL1        0.1582
     10 C          -2.1534    1.6810   -4.7868 C.ar    1  UNL1        0.1586
     11 C          -1.7546    1.5569   -3.4595 C.ar    1  UNL1       -0.0107
     12 O          -2.3518    2.8968   -5.3763 O.3     1  UNL1       -0.5033
     13 O          -2.7058    0.6716   -6.8807 O.3     1  UNL1       -0.5033
     14 O          -1.3770   -1.1116   -0.9547 O.3     1  UNL1       -0.3816
     15 N           1.1262   -1.0289   -2.1792 N.4     1  UNL1        0.2226
     16 H           0.8976    2.3047   -1.4603 H       1  UNL1        0.0285
     17 H           1.0515    1.5608   -3.0643 H       1  UNL1        0.0285
     18 H           2.3377    1.3661   -1.8758 H       1  UNL1        0.0285
     19 H          -1.6395   -1.8631   -3.3251 H       1  UNL1        0.0622
     20 H          -2.3403   -1.5922   -5.6698 H       1  UNL1        0.0655
     21 H          -1.6048    2.4500   -2.8569 H       1  UNL1        0.0659
     22 H          -2.2819    3.6019   -4.7102 H       1  UNL1        0.2923
     23 H          -2.8020    1.6330   -7.0363 H       1  UNL1        0.2923
     24 H          -2.3561   -1.0930   -0.9044 H       1  UNL1        0.2105
     25 H           0.8985   -0.9972   -3.1823 H       1  UNL1        0.1998
     26 H           2.1410   -1.1399   -2.0763 H       1  UNL1        0.1998
     27 H           0.6632   -1.8672   -1.7933 H       1  UNL1        0.1998
@<TRIPOS>UNITY_ATOM_ATTR
15 1
charge 1
@<TRIPOS>BOND
     1     1     2    1
     2     1    16    1
     3     1    17    1
     4     1    18    1
     5     2     3    1
     6     2     4    1
     7     2    15    1
     8     4     5    1
     9     4     6    1
    10     4    14    1
    11     6    11   ar
    12     6     7   ar
    13     7     8   ar
    14     7    19    1
    15     8     9   ar
    16     8    20    1
    17     9    10   ar
    18     9    13    1
    19    10    11   ar
    20    10    12    1
    21    11    21    1
    22    12    22    1
    23    13    23    1
    24    14    24    1
    25    15    25    1
    26    15    26    1
    27    15    27    1
