@<TRIPOS>MOLECULE
ZINC00001290
 40 41 0 0 0
SMALL
GASTEIGER

@<TRIPOS>ATOM
      1 C           0.3586   -2.4957   -0.2590 C.3     1  UNL1       -0.0612
      2 C           0.5801   -1.1931    0.4997 C.3     1  UNL1       -0.0297
      3 C           0.9596   -1.3894    1.9563 C.2     1  UNL1       -0.0368
      4 C           0.0889   -1.4600    2.9954 C.2     1  UNL1       -0.0368
      5 C           0.4921   -1.6166    4.4530 C.3     1  UNL1       -0.0297
      6 C           0.6016   -0.2830    5.1838 C.3     1  UNL1       -0.0612
      7 C          -1.3750   -1.4803    2.7771 C.ar    1  UNL1       -0.0214
      8 C          -2.1330   -0.3008    2.8140 C.ar    1  UNL1       -0.0509
      9 C          -3.5201   -0.3399    2.6239 C.ar    1  UNL1       -0.0196
     10 C          -4.1466   -1.5602    2.3876 C.ar    1  UNL1        0.1169
     11 C          -3.4118   -2.7382    2.3456 C.ar    1  UNL1       -0.0196
     12 C          -2.0300   -2.6989    2.5453 C.ar    1  UNL1       -0.0509
     13 O          -5.4936   -1.6457    2.1926 O.3     1  UNL1       -0.5068
     14 C           2.4222   -1.4438    2.1963 C.ar    1  UNL1       -0.0214
     15 C           3.1518   -0.2732    2.4488 C.ar    1  UNL1       -0.0509
     16 C           4.5234   -0.3342    2.7223 C.ar    1  UNL1       -0.0196
     17 C           5.1639   -1.5692    2.7405 C.ar    1  UNL1        0.1169
     18 C           4.4581   -2.7384    2.4845 C.ar    1  UNL1       -0.0196
     19 C           3.0888   -2.6768    2.2128 C.ar    1  UNL1       -0.0509
     20 O           6.4951   -1.6798    3.0148 O.3     1  UNL1       -0.5068
     21 H           1.2162   -3.1695   -0.1742 H       1  UNL1        0.0233
     22 H           0.2022   -2.2850   -1.3223 H       1  UNL1        0.0233
     23 H          -0.5274   -3.0246    0.1033 H       1  UNL1        0.0233
     24 H           1.3634   -0.6187   -0.0124 H       1  UNL1        0.0311
     25 H          -0.3209   -0.5742    0.4164 H       1  UNL1        0.0311
     26 H          -0.2231   -2.2596    4.9817 H       1  UNL1        0.0311
     27 H           1.4513   -2.1389    4.5369 H       1  UNL1        0.0311
     28 H          -0.3829    0.1707    5.3341 H       1  UNL1        0.0233
     29 H           1.0533   -0.4334    6.1699 H       1  UNL1        0.0233
     30 H           1.2248    0.4321    4.6378 H       1  UNL1        0.0233
     31 H          -1.6466    0.6534    2.9952 H       1  UNL1        0.0625
     32 H          -4.0876    0.5838    2.6633 H       1  UNL1        0.0654
     33 H          -3.9127   -3.6847    2.1602 H       1  UNL1        0.0654
     34 H          -1.4628   -3.6263    2.5166 H       1  UNL1        0.0625
     35 H          -5.8750   -0.7545    2.2482 H       1  UNL1        0.2921
     36 H           2.6521    0.6921    2.4480 H       1  UNL1        0.0625
     37 H           5.0667    0.5847    2.9243 H       1  UNL1        0.0654
     38 H           4.9683   -3.6971    2.5055 H       1  UNL1        0.0654
     39 H           2.5422   -3.5974    2.0271 H       1  UNL1        0.0625
     40 H           6.8520   -0.7941    3.1907 H       1  UNL1        0.2921
@<TRIPOS>BOND
     1     1     2    1
     2     1    21    1
     3     1    22    1
     4     1    23    1
     5     2     3    1
     6     2    24    1
     7     2    25    1
     8     3     4    2
     9     3    14    1
    10     4     5    1
    11     4     7    1
    12     5     6    1
    13     5    26    1
    14     5    27    1
    15     6    28    1
    16     6    29    1
    17     6    30    1
    18     7    12   ar
    19     7     8   ar
    20     8     9   ar
    21     8    31    1
    22     9    10   ar
    23     9    32    1
    24    10    11   ar
    25    10    13    1
    26    11    12   ar
    27    11    33    1
    28    12    34    1
    29    13    35    1
    30    14    19   ar
    31    14    15   ar
    32    15    16   ar
    33    15    36    1
    34    16    17   ar
    35    16    37    1
    36    17    18   ar
    37    17    20    1
    38    18    19   ar
    39    18    38    1
    40    19    39    1
    41    20    40    1
