@<TRIPOS>MOLECULE
ZINC03830993
 35 36 0 0 0
SMALL
GASTEIGER

@<TRIPOS>ATOM
      1 C          -1.2621   -2.2182    0.0564 C.ar    1  UNL1       -0.0416
      2 C           0.0103   -2.7995    0.0253 C.ar    1  UNL1       -0.0393
      3 C           1.1310   -1.9677    0.0883 C.ar    1  UNL1       -0.0416
      4 C           0.9777   -0.5751    0.1139 C.ar    1  UNL1        0.0569
      5 C          -0.2986    0.0194    0.0893 C.ar    1  UNL1        0.1545
      6 C          -1.4225   -0.8252    0.1245 C.ar    1  UNL1        0.0569
      7 I          -3.4246   -0.2046    0.4092 I       1  UNL1       -0.0400
      8 O          -0.3267    1.3959    0.1445 O.3     1  UNL1       -0.4539
      9 C          -1.1425    2.1123   -0.7003 C.ar    1  UNL1        0.1307
     10 C          -1.5811    1.6747   -1.9515 C.ar    1  UNL1       -0.0026
     11 C          -2.6060    2.3801   -2.5992 C.ar    1  UNL1        0.0592
     12 C          -3.1181    3.5576   -2.0401 C.ar    1  UNL1        0.1432
     13 C          -2.5663    4.0561   -0.8586 C.ar    1  UNL1        0.0592
     14 C          -1.5782    3.3361   -0.1865 C.ar    1  UNL1       -0.0026
     15 I          -3.2390    5.8426   -0.0032 I       1  UNL1       -0.0399
     16 O          -4.1733    4.1900   -2.6430 O.3     1  UNL1       -0.5047
     17 I          -3.4209    1.5384   -4.3344 I       1  UNL1       -0.0399
     18 I           2.7395    0.5753    0.2166 I       1  UNL1       -0.0400
     19 C           0.1610   -4.2954   -0.1115 C.3     1  UNL1        0.0261
     20 CA         -0.3646   -4.8300   -1.4457 C.3     1  UNL1        0.0826
     21 HA         -1.4258   -4.6091   -1.6117 H       1  UNL1        0.0973
     22 C           0.5330   -4.2873   -2.5894 C.2     1  UNL1        0.4029
     23 O           1.4689   -5.1062   -2.8204 O.co2   1  UNL1       -0.2400
     24 H          -2.1402   -2.8595    0.0259 H       1  UNL1        0.0632
     25 H           2.1294   -2.4035    0.0926 H       1  UNL1        0.0632
     26 H          -1.1981    0.7547   -2.3811 H       1  UNL1        0.0666
     27 H          -1.1729    3.6858    0.7595 H       1  UNL1        0.0666
     28 H          -4.4610    4.9135   -2.0585 H       1  UNL1        0.2922
     29 H           1.2143   -4.5761    0.0249 H       1  UNL1        0.0374
     30 H          -0.3805   -4.7651    0.7201 H       1  UNL1        0.0374
     31 H1          0.7720   -6.4988   -1.5796 H       1  UNL1        0.2003
     32 H2         -0.6152   -6.8407   -0.6266 H       1  UNL1        0.2003
     33 OXT         0.1336   -3.2606   -3.1798 O.co2   1  UNL1       -0.2400
     34 N          -0.2523   -6.3489   -1.4390 N.4     1  UNL1        0.2291
     35 H3         -0.6409   -6.6973   -2.3221 H       1  UNL1        0.2003
@<TRIPOS>UNITY_ATOM_ATTR
34 1
charge 1
@<TRIPOS>BOND
     1     1     6   ar
     2     1     2   ar
     3     1    24    1
     4     2     3   ar
     5     2    19    1
     6     3     4   ar
     7     3    25    1
     8     4     5   ar
     9     4    18    1
    10     5     6   ar
    11     5     8    1
    12     6     7    1
    13     8     9    1
    14     9    14   ar
    15     9    10   ar
    16    10    11   ar
    17    10    26    1
    18    11    12   ar
    19    11    17    1
    20    12    13   ar
    21    12    16    1
    22    13    14   ar
    23    13    15    1
    24    14    27    1
    25    16    28    1
    26    19    20    1
    27    19    29    1
    28    19    30    1
    29    20    21    1
    30    20    22    1
    31    20    34    1
    32    22    23   ar
    33    22    33   ar
    34    31    34    1
    35    32    34    1
    36    34    35    1
