@<TRIPOS>MOLECULE
ZINC00001930
 25 25 0 0 0
SMALL
GASTEIGER

@<TRIPOS>ATOM
      1 C          -2.9712    0.3278    1.7340 C.3     1  UNL1       -0.0190
      2 C          -1.4963    0.5731    1.4195 C.3     1  UNL1        0.0035
      3 H          -0.9649    0.9167    2.3138 H       1  UNL1        0.0876
      4 C          -1.2317    1.5059    0.2025 C.3     1  UNL1        0.1222
      5 H          -0.1498    1.5140    0.0142 H       1  UNL1        0.0701
      6 C          -1.6868    2.9337    0.3836 C.ar    1  UNL1       -0.0138
      7 C          -0.7411    3.9423    0.6323 C.ar    1  UNL1       -0.0559
      8 C          -1.1457    5.2580    0.8636 C.ar    1  UNL1       -0.0614
      9 C          -2.4996    5.5831    0.8558 C.ar    1  UNL1       -0.0617
     10 C          -3.4476    4.5994    0.5864 C.ar    1  UNL1       -0.0614
     11 C          -3.0439    3.2875    0.3348 C.ar    1  UNL1       -0.0559
     12 O          -1.8043    0.8888   -0.9577 O.3     1  UNL1       -0.3816
     13 N          -0.9256   -0.7791    1.0634 N.4     1  UNL1        0.2226
     14 H          -3.4587    1.2355    2.0995 H       1  UNL1        0.0285
     15 H          -3.0846   -0.4282    2.5186 H       1  UNL1        0.0285
     16 H          -3.5204   -0.0262    0.8538 H       1  UNL1        0.0285
     17 H           0.3264    3.7258    0.6444 H       1  UNL1        0.0621
     18 H          -0.4066    6.0347    1.0517 H       1  UNL1        0.0618
     19 H          -2.8160    6.6048    1.0520 H       1  UNL1        0.0618
     20 H          -4.5042    4.8584    0.5733 H       1  UNL1        0.0618
     21 H          -3.8116    2.5491    0.1106 H       1  UNL1        0.0621
     22 H          -2.0209    1.6043   -1.5905 H       1  UNL1        0.2105
     23 H           0.0950   -0.7515    0.9569 H       1  UNL1        0.1998
     24 H          -1.1625   -1.5051    1.7513 H       1  UNL1        0.1998
     25 H          -1.3147   -1.0518    0.1460 H       1  UNL1        0.1998
@<TRIPOS>UNITY_ATOM_ATTR
13 1
charge 1
@<TRIPOS>BOND
     1     1    14    1
     2     1    15    1
     3     1    16    1
     4     2    13    1
     5     4     6    1
     6     4    12    1
     7     6    11   ar
     8     6     7   ar
     9     7     8   ar
    10     7    17    1
    11     8     9   ar
    12     8    18    1
    13     9    10   ar
    14     9    19    1
    15    10    11   ar
    16    10    20    1
    17    11    21    1
    18    12    22    1
    19    13    23    1
    20    13    24    1
    21    13    25    1
    22     2     3    1
    23     2     1    1
    24     4     5    1
    25     4     2    1
