@<TRIPOS>MOLECULE
ZINC02599970
 50 51 0 0 0
SMALL
GASTEIGER

@<TRIPOS>ATOM
      1 C           0.8650    2.7197    0.4602 C.3     1  UNL1       -0.0213
      2 C           0.4412    1.2969    0.8611 C.3     1  UNL1       -0.0214
      3 H           0.8810    0.5975    0.1489 H       1  UNL1        0.0851
      4 C          -1.0932    1.1702    0.9322 C.3     1  UNL1        0.0152
      5 C          -1.8183    1.4066   -0.3808 C.ar    1  UNL1       -0.0418
      6 C          -2.8582    2.3445   -0.4567 C.ar    1  UNL1       -0.0549
      7 C          -3.6511    2.4380   -1.6051 C.ar    1  UNL1       -0.0197
      8 C          -3.4102    1.6209   -2.7100 C.ar    1  UNL1        0.1201
      9 C          -2.3376    0.7324   -2.6709 C.ar    1  UNL1       -0.0197
     10 C          -1.5482    0.6256   -1.5141 C.ar    1  UNL1       -0.0549
     11 O          -4.3335    1.7186   -3.7089 O.3     1  UNL1       -0.4951
     12 C          -3.9026    1.4057   -5.0274 C.3     1  UNL1        0.0788
     13 N           1.1057    1.0129    2.2068 N.4     1  UNL1        0.2313
     14 C           0.9310   -0.3166    2.9171 C.3     1  UNL1       -0.0025
     15 C           1.4826   -1.5427    2.1417 C.3     1  UNL1        0.1197
     16 H           2.5470   -1.3755    1.9375 H       1  UNL1        0.0698
     17 C           1.3236   -2.8433    2.9152 C.ar    1  UNL1       -0.0121
     18 C           0.0595   -3.2897    3.3233 C.ar    1  UNL1       -0.0524
     19 C          -0.0741   -4.4904    4.0190 C.ar    1  UNL1       -0.0180
     20 C           1.0371   -5.2937    4.2770 C.ar    1  UNL1        0.1380
     21 C           2.3180   -4.8840    3.8930 C.ar    1  UNL1        0.0755
     22 C           2.4445   -3.6488    3.2240 C.ar    1  UNL1       -0.0311
     23 N           3.5255   -5.5951    4.1423 N.am    1  UNL1       -0.2852
     24 C           3.6661   -6.9291    4.4191 C.2     1  UNL1        0.2042
     25 O           2.7809   -7.7803    4.4469 O.2     1  UNL1       -0.2792
     26 O           0.7405   -6.4463    4.9403 O.3     1  UNL1       -0.5049
     27 O           0.8243   -1.6302    0.8775 O.3     1  UNL1       -0.3819
     28 H           1.2028    2.7242   -0.5814 H       1  UNL1        0.0284
     29 H           1.6871    3.1058    1.0710 H       1  UNL1        0.0284
     30 H           0.0392    3.4360    0.5368 H       1  UNL1        0.0284
     31 H          -1.3789    0.1688    1.2749 H       1  UNL1        0.0368
     32 H          -1.4777    1.8670    1.6891 H       1  UNL1        0.0368
     33 H          -3.0997    2.9920    0.3843 H       1  UNL1        0.0621
     34 H          -4.4862    3.1361   -1.6338 H       1  UNL1        0.0654
     35 H          -2.1264    0.0646   -3.4998 H       1  UNL1        0.0654
     36 H          -0.7524   -0.1166   -1.5068 H       1  UNL1        0.0621
     37 H          -3.1875    2.1564   -5.3753 H       1  UNL1        0.0660
     38 H          -3.4870    0.3971   -5.1111 H       1  UNL1        0.0660
     39 H          -4.7802    1.4450   -5.6812 H       1  UNL1        0.0660
     40 H           2.1143    1.1520    2.0685 H       1  UNL1        0.2017
     41 H           1.4817   -0.2095    3.8591 H       1  UNL1        0.0843
     42 H          -0.1328   -0.4061    3.1489 H       1  UNL1        0.0843
     43 H          -0.8472   -2.7318    3.0978 H       1  UNL1        0.0622
     44 H          -1.0545   -4.8285    4.3516 H       1  UNL1        0.0655
     45 H           3.4338   -3.3266    2.8984 H       1  UNL1        0.0641
     46 H           4.3911   -5.0891    4.0149 H       1  UNL1        0.1546
     47 H           4.7258   -7.1991    4.5781 H       1  UNL1        0.1255
     48 H           1.3723   -7.1421    4.6538 H       1  UNL1        0.2922
     49 H           0.6138   -2.5665    0.6947 H       1  UNL1        0.2105
     50 H           0.8107    1.7488    2.8623 H       1  UNL1        0.2017
@<TRIPOS>UNITY_ATOM_ATTR
13 1
charge 1
@<TRIPOS>BOND
     1     1    28    1
     2     1    29    1
     3     1    30    1
     4     2     4    1
     5     2    13    1
     6     4     5    1
     7     4    31    1
     8     4    32    1
     9     5    10   ar
    10     5     6   ar
    11     6     7   ar
    12     6    33    1
    13     7     8   ar
    14     7    34    1
    15     8     9   ar
    16     8    11    1
    17     9    10   ar
    18     9    35    1
    19    10    36    1
    20    11    12    1
    21    12    37    1
    22    12    38    1
    23    12    39    1
    24    13    14    1
    25    13    40    1
    26    13    50    1
    27    14    15    1
    28    14    41    1
    29    14    42    1
    30    15    16    1
    31    15    17    1
    32    15    27    1
    33    17    22   ar
    34    17    18   ar
    35    18    19   ar
    36    18    43    1
    37    19    20   ar
    38    19    44    1
    39    20    21   ar
    40    20    26    1
    41    21    22   ar
    42    21    23    1
    43    22    45    1
    44    23    24   am
    45    23    46    1
    46    24    25    2
    47    24    47    1
    48    26    48    1
    49    27    49    1
    50     2     3    1
    51     2     1    1
