@<TRIPOS>MOLECULE
ZINC00075126
 42 45 0 0 0
SMALL
GASTEIGER

@<TRIPOS>ATOM
      1 C           1.1388   -0.0281   -0.0567 C.3     1  UNL1        0.0356
      2 C           0.0998    0.8200    0.5907 C.2     1  UNL1        0.2463
      3 N           0.2530    2.1176    0.8971 N.2     1  UNL1       -0.2492
      4 C          -0.9012    2.6473    1.4090 C.2     1  UNL1        0.1264
      5 C          -1.7968    1.6200    1.4662 C.2     1  UNL1        0.1227
      6 N          -1.1338    0.4743    1.0311 N.pl3   1  UNL1       -0.1963
      7 C          -1.6937   -0.8950    1.0016 C.3     1  UNL1        0.0949
      8 C          -2.9549   -1.0440    0.1555 C.3     1  UNL1        0.0588
      9 H          -3.7001   -0.3072    0.4806 H       1  UNL1        0.0418
     10 C          -3.5641   -2.4615    0.2943 C.3     1  UNL1       -0.0343
     11 C          -4.8909   -2.5857   -0.4820 C.3     1  UNL1       -0.0108
     12 C          -4.6990   -2.0323   -1.8535 C.ar    1  UNL1        0.0300
     13 C          -3.6721   -1.1975   -2.2515 C.ar    1  UNL1        0.0462
     14 C          -3.8505   -0.9137   -3.6285 C.ar    1  UNL1        0.0106
     15 C          -3.1337   -0.1399   -4.5644 C.ar    1  UNL1       -0.0519
     16 C          -3.5985   -0.0302   -5.8759 C.ar    1  UNL1       -0.0611
     17 C          -4.7654   -0.6781   -6.2618 C.ar    1  UNL1       -0.0598
     18 C          -5.4941   -1.4597   -5.3557 C.ar    1  UNL1       -0.0376
     19 C          -5.0197   -1.5678   -4.0361 C.ar    1  UNL1        0.0497
     20 N          -5.5151   -2.2523   -2.9377 N.ar    1  UNL1       -0.3462
     21 C          -6.7083   -3.0690   -2.9141 C.3     1  UNL1        0.0121
     22 C          -2.6517   -0.7549   -1.3168 C.2     1  UNL1        0.1721
     23 O          -1.6535   -0.1300   -1.6692 O.2     1  UNL1       -0.2915
     24 H           0.6526   -0.7021   -0.7601 H       1  UNL1        0.0350
     25 H           1.6486   -0.5744    0.7371 H       1  UNL1        0.0350
     26 H           1.8244    0.6396   -0.5815 H       1  UNL1        0.0350
     27 H          -0.9308    3.6937    1.6553 H       1  UNL1        0.1116
     28 H          -2.8274    1.5559    1.7701 H       1  UNL1        0.1098
     29 H          -0.9162   -1.5907    0.6693 H       1  UNL1        0.0737
     30 H          -1.9161   -1.1492    2.0459 H       1  UNL1        0.0737
     31 H          -3.7373   -2.7094    1.3477 H       1  UNL1        0.0277
     32 H          -2.8541   -3.2035   -0.0985 H       1  UNL1        0.0277
     33 H          -5.6743   -2.0169    0.0330 H       1  UNL1        0.0328
     34 H          -5.2014   -3.6354   -0.5142 H       1  UNL1        0.0328
     35 H          -2.2189    0.3708   -4.2696 H       1  UNL1        0.0624
     36 H          -3.0441    0.5651   -6.5974 H       1  UNL1        0.0618
     37 H          -5.1211   -0.5796   -7.2856 H       1  UNL1        0.0618
     38 H          -6.3997   -1.9577   -5.6815 H       1  UNL1        0.0638
     39 H          -6.4188   -4.0937   -2.6649 H       1  UNL1        0.0456
     40 H          -7.3828   -2.6653   -2.1541 H       1  UNL1        0.0456
     41 H          -7.2047   -3.0546   -3.8846 H       1  UNL1        0.0456
     42 H           1.1091    2.6363    0.7177 H       1  UNL1        0.3102
@<TRIPOS>BOND
     1     1     2    1
     2     1    24    1
     3     1    25    1
     4     1    26    1
     5     2     6    1
     6     2     3    2
     7     3     4    1
     8     3    42    1
     9     4     5    2
    10     4    27    1
    11     5     6    1
    12     5    28    1
    13     6     7    1
    14     7     8    1
    15     7    29    1
    16     7    30    1
    17     8     9    1
    18     8    22    1
    19     8    10    1
    20    10    11    1
    21    10    31    1
    22    10    32    1
    23    11    12    1
    24    11    33    1
    25    11    34    1
    26    12    20   ar
    27    12    13   ar
    28    13    14   ar
    29    13    22    1
    30    14    19   ar
    31    14    15   ar
    32    15    16   ar
    33    15    35    1
    34    16    17   ar
    35    16    36    1
    36    17    18   ar
    37    17    37    1
    38    18    19   ar
    39    18    38    1
    40    19    20   ar
    41    20    21    1
    42    21    39    1
    43    21    40    1
    44    21    41    1
    45    22    23    2
