@<TRIPOS>MOLECULE
ZINC00896507
 55 55 0 0 0
SMALL
GASTEIGER

@<TRIPOS>ATOM
      1 C          -0.2079  -11.5839   -7.7901 C.3     1  UNL1       -0.0499
      2 C           1.0749  -11.1118   -8.5049 C.3     1  UNL1        0.0598
      3 C           2.2529  -11.3041   -7.5375 C.3     1  UNL1       -0.0499
      4 C           1.2826  -11.9416   -9.7721 C.3     1  UNL1       -0.0499
      5 C           0.9306   -9.6296   -8.8829 C.2     1  UNL1        0.3179
      6 O          -0.1229   -9.0020   -8.8231 O.2     1  UNL1       -0.2498
      7 O           2.1617   -9.0748   -9.2634 O.3     1  UNL1       -0.4217
      8 C           2.2762   -7.6866   -9.0638 C.ar    1  UNL1        0.1738
      9 C           1.8595   -7.1372   -7.8467 C.ar    1  UNL1       -0.0152
     10 C           1.9998   -5.7706   -7.5877 C.ar    1  UNL1       -0.0522
     11 C           2.5813   -4.9105   -8.5283 C.ar    1  UNL1       -0.0104
     12 C           3.0862   -5.4923   -9.7001 C.ar    1  UNL1       -0.0097
     13 C           2.9116   -6.8608   -9.9925 C.ar    1  UNL1        0.1741
     14 O           3.5129   -7.3905  -11.1573 O.3     1  UNL1       -0.4217
     15 C           3.4560   -6.5777  -12.2954 C.2     1  UNL1        0.3179
     16 O           2.5609   -5.7615  -12.5066 O.2     1  UNL1       -0.2498
     17 C           4.6716   -6.7688  -13.2162 C.3     1  UNL1        0.0598
     18 C           4.3260   -7.8030  -14.2827 C.3     1  UNL1       -0.0499
     19 C           4.9910   -5.4183  -13.8992 C.3     1  UNL1       -0.0499
     20 C           5.9214   -7.1920  -12.4374 C.3     1  UNL1       -0.0499
     21 C           2.6862   -3.4231   -8.2253 C.3     1  UNL1        0.1198
     22 H           3.4157   -3.2896   -7.4170 H       1  UNL1        0.0698
     23 C           1.3284   -2.7959   -7.8214 C.3     1  UNL1       -0.0030
     24 N           0.4800   -2.6806   -9.0654 N.4     1  UNL1        0.2269
     25 C          -0.8100   -1.9775   -8.8908 C.3     1  UNL1       -0.0448
     26 O           3.0960   -2.6219   -9.3483 O.3     1  UNL1       -0.3819
     27 H          -0.0888  -12.5926   -7.3751 H       1  UNL1        0.0240
     28 H          -1.0628  -11.6091   -8.4753 H       1  UNL1        0.0240
     29 H          -0.4741  -10.9167   -6.9608 H       1  UNL1        0.0240
     30 H           2.3042  -12.3372   -7.1730 H       1  UNL1        0.0240
     31 H           3.2118  -11.0799   -8.0165 H       1  UNL1        0.0240
     32 H           2.1597  -10.6457   -6.6645 H       1  UNL1        0.0240
     33 H           0.4556  -11.7975  -10.4761 H       1  UNL1        0.0240
     34 H           2.2048  -11.6549  -10.2896 H       1  UNL1        0.0240
     35 H           1.3458  -13.0111   -9.5398 H       1  UNL1        0.0240
     36 H           1.4186   -7.7676   -7.0772 H       1  UNL1        0.0656
     37 H           1.6581   -5.4101   -6.6181 H       1  UNL1        0.0622
     38 H           3.6380   -4.8961  -10.4176 H       1  UNL1        0.0659
     39 H           3.4696   -7.4824  -14.8861 H       1  UNL1        0.0240
     40 H           5.1699   -7.9694  -14.9626 H       1  UNL1        0.0240
     41 H           4.0652   -8.7641  -13.8268 H       1  UNL1        0.0240
     42 H           5.1982   -4.6356  -13.1600 H       1  UNL1        0.0240
     43 H           5.8701   -5.5022  -14.5510 H       1  UNL1        0.0240
     44 H           4.1582   -5.0675  -14.5203 H       1  UNL1        0.0240
     45 H           6.1316   -6.4997  -11.6129 H       1  UNL1        0.0240
     46 H           5.8081   -8.1933  -12.0075 H       1  UNL1        0.0240
     47 H           6.8069   -7.2133  -13.0845 H       1  UNL1        0.0240
     48 H           0.7631   -3.3570   -7.0736 H       1  UNL1        0.0843
     49 H           1.4874   -1.7682   -7.4771 H       1  UNL1        0.0843
     50 H           1.0791   -2.1894   -9.7523 H       1  UNL1        0.2012
     51 H          -0.6253   -1.0208   -8.4176 H       1  UNL1        0.0777
     52 H          -1.2497   -1.8505   -9.8791 H       1  UNL1        0.0777
     53 H          -1.4529   -2.6160   -8.2629 H       1  UNL1        0.0777
     54 H           3.7764   -3.0859   -9.8629 H       1  UNL1        0.2105
     55 H           0.3323   -3.6153   -9.4754 H       1  UNL1        0.2012
@<TRIPOS>UNITY_ATOM_ATTR
24 1
charge 1
@<TRIPOS>BOND
     1     1     2    1
     2     1    27    1
     3     1    28    1
     4     1    29    1
     5     2     3    1
     6     2     4    1
     7     2     5    1
     8     3    30    1
     9     3    31    1
    10     3    32    1
    11     4    33    1
    12     4    34    1
    13     4    35    1
    14     5     6    2
    15     5     7    1
    16     7     8    1
    17     8    13   ar
    18     8     9   ar
    19     9    10   ar
    20     9    36    1
    21    10    11   ar
    22    10    37    1
    23    11    12   ar
    24    12    13   ar
    25    12    38    1
    26    13    14    1
    27    14    15    1
    28    15    16    2
    29    15    17    1
    30    17    18    1
    31    17    19    1
    32    17    20    1
    33    18    39    1
    34    18    40    1
    35    18    41    1
    36    19    42    1
    37    19    43    1
    38    19    44    1
    39    20    45    1
    40    20    46    1
    41    20    47    1
    42    21    23    1
    43    21    26    1
    44    23    24    1
    45    23    48    1
    46    23    49    1
    47    24    25    1
    48    24    50    1
    49    24    55    1
    50    25    51    1
    51    25    52    1
    52    25    53    1
    53    26    54    1
    54    21    22    1
    55    21    11    1
