@<TRIPOS>MOLECULE
ZINC00137884
 28 29 0 0 0
SMALL
GASTEIGER

@<TRIPOS>ATOM
      1 C           0.9084   -0.0727    0.1227 C.3     1  UNL1       -0.0332
      2 C           0.3729    1.2993    0.3702 C.ar    1  UNL1        0.0302
      3 C          -0.8797    1.5414    0.7719 C.ar    1  UNL1        0.0202
      4 N          -1.3711    2.8171    0.9651 N.ar    1  UNL1       -0.2701
      5 C          -0.5682    3.9349    0.7858 C.ar    1  UNL1        0.3316
      6 O          -0.9671    5.0960    0.8657 O.2     1  UNL1       -0.2464
      7 N           0.7416    3.6797    0.4779 N.ar    1  UNL1       -0.2746
      8 H           1.3279    4.4821    0.3084 H       1  UNL1        0.1734
      9 C           1.2633    2.4624    0.1507 C.ar    1  UNL1        0.2568
     10 O           2.3936    2.3402   -0.3065 O.2     1  UNL1       -0.2674
     11 C          -2.7794    3.0550    1.2454 C.3     1  UNL1        0.1592
     12 H          -2.9177    3.9735    1.8279 H       1  UNL1        0.0887
     13 C          -3.5495    3.1086   -0.0290 C.2     1  UNL1       -0.0363
     14 C          -4.5732    2.2579    0.0151 C.2     1  UNL1       -0.0531
     15 C          -4.5868    1.5613    1.3281 C.3     1  UNL1        0.1027
     16 H          -5.4139    1.9137    1.9540 H       1  UNL1        0.0664
     17 O          -3.3515    1.9521    1.9825 O.3     1  UNL1       -0.3434
     18 C          -4.6168    0.0334    1.2151 C.3     1  UNL1        0.0741
     19 O          -4.6113   -0.5654    2.5115 O.3     1  UNL1       -0.3921
     20 H           0.6849   -0.3806   -0.9036 H       1  UNL1        0.0280
     21 H           0.4595   -0.8007    0.8069 H       1  UNL1        0.0280
     22 H           1.9917   -0.1207    0.2677 H       1  UNL1        0.0280
     23 H          -1.5709    0.7188    0.9362 H       1  UNL1        0.0816
     24 H          -3.3141    3.7726   -0.8478 H       1  UNL1        0.0614
     25 H          -5.3065    2.1156   -0.7658 H       1  UNL1        0.0597
     26 H          -5.5155   -0.3049    0.6898 H       1  UNL1        0.0586
     27 H          -3.7397   -0.3458    0.6808 H       1  UNL1        0.0586
     28 H          -3.8736   -0.1498    2.9978 H       1  UNL1        0.2095
@<TRIPOS>BOND
     1     1     2    1
     2     1    20    1
     3     1    21    1
     4     1    22    1
     5     2     9   ar
     6     2     3   ar
     7     3     4   ar
     8     3    23    1
     9     4     5   ar
    10     4    11    1
    11     5     6    2
    12     5     7   ar
    13     7     8    1
    14     7     9   ar
    15     9    10    2
    16    11    12    1
    17    11    17    1
    18    11    13    1
    19    13    14    2
    20    13    24    1
    21    14    15    1
    22    14    25    1
    23    15    17    1
    24    18    19    1
    25    18    26    1
    26    18    27    1
    27    19    28    1
    28    15    18    1
    29    15    16    1
