@<TRIPOS>MOLECULE
ZINC00608106
 54 56 0 0 0
SMALL
GASTEIGER

@<TRIPOS>ATOM
      1 C           1.4353    2.6111   -3.8042 C.3     1  UNL1       -0.0644
      2 C           0.7471    1.7896   -2.7216 C.3     1  UNL1       -0.0438
      3 C           1.0003    2.3026   -1.2761 C.3     1  UNL1        0.0245
      4 H           0.5577    1.5504   -0.6025 H       1  UNL1        0.0410
      5 C           0.1909    3.5583   -1.0240 C.ar    1  UNL1       -0.0258
      6 C          -1.2260    3.3586   -0.9810 C.ar    1  UNL1       -0.0119
      7 C          -2.1601    4.3999   -1.0257 C.ar    1  UNL1        0.1618
      8 C          -1.6683    5.6915   -1.1384 C.ar    1  UNL1        0.1621
      9 C          -0.2807    5.8806   -1.1964 C.ar    1  UNL1       -0.0068
     10 C           0.6805    4.8576   -1.0245 C.ar    1  UNL1        0.0102
     11 C           2.1256    5.2447   -0.8502 C.2     1  UNL1        0.1009
     12 N           3.1669    4.4872   -0.7554 N.2     1  UNL1       -0.1487
     13 N           3.3273    3.1492   -0.7344 N.2     1  UNL1       -0.1577
     14 C           2.4597    2.2274   -0.9455 C.2     1  UNL1        0.0454
     15 C           3.0647    0.8191   -0.9002 C.3     1  UNL1       -0.0239
     16 C           2.5149    6.7166   -0.7508 C.ar    1  UNL1        0.0064
     17 C           1.7752    7.6524   -0.0239 C.ar    1  UNL1       -0.0488
     18 C           2.0455    9.0176   -0.1494 C.ar    1  UNL1       -0.0157
     19 C           3.1465    9.4534   -0.8925 C.ar    1  UNL1        0.1615
     20 C           4.0119    8.5031   -1.4661 C.ar    1  UNL1        0.1621
     21 C           3.6805    7.1439   -1.4064 C.ar    1  UNL1       -0.0071
     22 O           5.1287    8.9954   -2.0954 O.3     1  UNL1       -0.4914
     23 C           6.1074    8.0540   -2.5178 C.3     1  UNL1        0.0790
     24 O           3.4624   10.7742   -1.0953 O.3     1  UNL1       -0.4915
     25 C           2.5193   11.7428   -0.6558 C.3     1  UNL1        0.0790
     26 O          -2.3442    6.8806   -1.1983 O.3     1  UNL1       -0.4914
     27 C          -3.7613    6.8815   -1.1347 C.3     1  UNL1        0.0790
     28 O          -3.5117    4.2143   -1.0125 O.3     1  UNL1       -0.4914
     29 C          -4.0147    2.8906   -1.1261 C.3     1  UNL1        0.0790
     30 H           1.1050    3.6535   -3.7893 H       1  UNL1        0.0230
     31 H           1.1931    2.1992   -4.7901 H       1  UNL1        0.0230
     32 H           2.5225    2.5873   -3.6929 H       1  UNL1        0.0230
     33 H          -0.3257    1.7609   -2.9417 H       1  UNL1        0.0272
     34 H           1.0822    0.7492   -2.8126 H       1  UNL1        0.0272
     35 H          -1.5809    2.3292   -0.9528 H       1  UNL1        0.0658
     36 H           0.0214    6.9013   -1.4052 H       1  UNL1        0.0662
     37 H           2.5058    0.2045   -0.1852 H       1  UNL1        0.0290
     38 H           3.0221    0.3639   -1.8844 H       1  UNL1        0.0290
     39 H           4.1104    0.8582   -0.5925 H       1  UNL1        0.0290
     40 H           0.9351    7.3494    0.5984 H       1  UNL1        0.0625
     41 H           1.3684    9.7118    0.3333 H       1  UNL1        0.0655
     42 H           4.3073    6.3930   -1.8742 H       1  UNL1        0.0662
     43 H           6.5001    7.4794   -1.6713 H       1  UNL1        0.0660
     44 H           5.7091    7.3938   -3.2946 H       1  UNL1        0.0660
     45 H           6.9402    8.6110   -2.9574 H       1  UNL1        0.0660
     46 H           1.5393   11.5904   -1.1222 H       1  UNL1        0.0660
     47 H           2.4413   11.7408    0.4360 H       1  UNL1        0.0660
     48 H           2.8807   12.7292   -0.9614 H       1  UNL1        0.0660
     49 H          -4.1873    6.4204   -2.0298 H       1  UNL1        0.0660
     50 H          -4.1306    6.4193   -0.2139 H       1  UNL1        0.0660
     51 H          -4.0872    7.9269   -1.1179 H       1  UNL1        0.0660
     52 H          -3.6293    2.3901   -2.0206 H       1  UNL1        0.0660
     53 H          -3.7969    2.3153   -0.2214 H       1  UNL1        0.0660
     54 H          -5.1022    2.9564   -1.2287 H       1  UNL1        0.0660
@<TRIPOS>BOND
     1     1     2    1
     2     1    30    1
     3     1    31    1
     4     1    32    1
     5     2    33    1
     6     2    34    1
     7     3    14    1
     8     3     5    1
     9     5    10   ar
    10     5     6   ar
    11     6     7   ar
    12     6    35    1
    13     7     8   ar
    14     7    28    1
    15     8     9   ar
    16     8    26    1
    17     9    10   ar
    18     9    36    1
    19    10    11    1
    20    11    12    2
    21    11    16    1
    22    12    13    1
    23    13    14    2
    24    14    15    1
    25    15    37    1
    26    15    38    1
    27    15    39    1
    28    16    21   ar
    29    16    17   ar
    30    17    18   ar
    31    17    40    1
    32    18    19   ar
    33    18    41    1
    34    19    20   ar
    35    19    24    1
    36    20    21   ar
    37    20    22    1
    38    21    42    1
    39    22    23    1
    40    23    43    1
    41    23    44    1
    42    23    45    1
    43    24    25    1
    44    25    46    1
    45    25    47    1
    46    25    48    1
    47    26    27    1
    48    27    49    1
    49    27    50    1
    50    27    51    1
    51    28    29    1
    52    29    52    1
    53    29    53    1
    54    29    54    1
    55     3     4    1
    56     3     2    1
