@<TRIPOS>MOLECULE
ZINC03812984
 43 46 0 0 0
SMALL
GASTEIGER

@<TRIPOS>ATOM
      1 C          -1.0095    4.0847   -2.0970 C.3     1  UNL1       -0.0428
      2 C           1.0766    5.3676   -1.6533 C.3     1  UNL1       -0.0311
      3 C           1.6892    6.5865   -0.9668 C.3     1  UNL1       -0.0024
      4 C           0.9291    7.2529    0.2019 C.3     1  UNL1        0.0089
      5 C           1.9598    7.7409    1.2632 C.3     1  UNL1       -0.0427
      6 C           1.3134    8.3205    2.5265 C.3     1  UNL1       -0.0522
      7 C           0.3337    7.3429    3.1621 C.3     1  UNL1       -0.0526
      8 C          -0.6858    6.8199    2.1587 C.3     1  UNL1       -0.0443
      9 C           0.0060    6.2330    0.9132 C.3     1  UNL1        0.0122
     10 H           0.6239    5.4014    1.2784 H       1  UNL1        0.0364
     11 C          -0.9868    5.6812   -0.1071 C.3     1  UNL1       -0.0134
     12 H          -1.6691    4.9753    0.3828 H       1  UNL1        0.0857
     13 C          -1.8286    6.7641   -0.8006 C.3     1  UNL1        0.0161
     14 C          -1.2602    8.1579   -0.7449 C.ar    1  UNL1       -0.0381
     15 C           0.0746    8.3986   -0.3731 C.ar    1  UNL1       -0.0337
     16 C           0.5665    9.7168   -0.4629 C.ar    1  UNL1       -0.0162
     17 C          -0.2937   10.7737   -0.7540 C.ar    1  UNL1        0.1172
     18 C          -1.6352   10.5461   -0.9991 C.ar    1  UNL1       -0.0199
     19 C          -2.1143    9.2407   -1.0275 C.ar    1  UNL1       -0.0547
     20 O           0.1450   12.0631   -0.7851 O.3     1  UNL1       -0.5068
     21 H          -0.4140    3.2475   -2.4723 H       1  UNL1        0.0778
     22 H          -1.9200    3.7144   -1.6218 H       1  UNL1        0.0778
     23 H          -1.2415    4.7780   -2.9102 H       1  UNL1        0.0778
     24 H           0.8970    5.5743   -2.7132 H       1  UNL1        0.0815
     25 H           1.8015    4.5420   -1.6118 H       1  UNL1        0.0815
     26 H           1.9031    7.3282   -1.7510 H       1  UNL1        0.0325
     27 H           2.6878    6.2835   -0.6252 H       1  UNL1        0.0325
     28 H           2.6655    8.4680    0.8446 H       1  UNL1        0.0274
     29 H           2.5784    6.8867    1.5735 H       1  UNL1        0.0274
     30 H           2.0975    8.5717    3.2489 H       1  UNL1        0.0266
     31 H           0.7975    9.2590    2.2922 H       1  UNL1        0.0266
     32 H          -0.1824    7.8296    3.9963 H       1  UNL1        0.0265
     33 H           0.8883    6.4955    3.5808 H       1  UNL1        0.0265
     34 H          -1.3049    6.0510    2.6363 H       1  UNL1        0.0270
     35 H          -1.3773    7.6364    1.8971 H       1  UNL1        0.0270
     36 H          -2.8056    6.7841   -0.3059 H       1  UNL1        0.0368
     37 H          -2.0251    6.5209   -1.8534 H       1  UNL1        0.0368
     38 H           1.6077    9.9403   -0.2588 H       1  UNL1        0.0657
     39 H          -2.3072   11.3857   -1.1737 H       1  UNL1        0.0654
     40 H          -3.1687    9.0773   -1.2423 H       1  UNL1        0.0622
     41 H           1.1028   12.0883   -0.6266 H       1  UNL1        0.2921
     42 N          -0.1824    4.8039   -1.0582 N.4     1  UNL1        0.2357
     43 H           0.1440    4.0410   -0.4467 H       1  UNL1        0.2033
@<TRIPOS>UNITY_ATOM_ATTR
42 1
charge 1
@<TRIPOS>BOND
     1     1    21    1
     2     1    22    1
     3     1    23    1
     4     1    42    1
     5     2     3    1
     6     2    24    1
     7     2    25    1
     8     2    42    1
     9     3     4    1
    10     3    26    1
    11     3    27    1
    12     4     9    1
    13     4    15    1
    14     4     5    1
    15     5     6    1
    16     5    28    1
    17     5    29    1
    18     6     7    1
    19     6    30    1
    20     6    31    1
    21     7     8    1
    22     7    32    1
    23     7    33    1
    24     8     9    1
    25     8    34    1
    26     8    35    1
    27     9    10    1
    28     9    11    1
    29    11    12    1
    30    11    13    1
    31    11    42    1
    32    13    14    1
    33    13    36    1
    34    13    37    1
    35    14    19   ar
    36    14    15   ar
    37    15    16   ar
    38    16    17   ar
    39    16    38    1
    40    17    18   ar
    41    17    20    1
    42    18    19   ar
    43    18    39    1
    44    19    40    1
    45    20    41    1
    46    42    43    1
