@<TRIPOS>MOLECULE
ZINC03831474
 14 13 0 0 0
SMALL
GASTEIGER

@<TRIPOS>ATOM
      1 C           1.0378    0.0372   -0.1387 C.3     1  UNL1        0.1254
      2 H           0.5739   -0.9587   -0.1270 H       1  UNL1        0.0542
      3 C           0.7442    0.7100    1.2102 C.3     1  UNL1        0.1254
      4 H          -0.3083    1.0215    1.2347 H       1  UNL1        0.0542
      5 C           0.9409   -0.1892    2.4656 C.2     1  UNL1        0.3700
      6 O           0.6049    0.3281    3.5800 O.co2   1  UNL1       -0.2451
      7 O           1.4086   -1.3550    2.2863 O.co2   1  UNL1       -0.2451
      8 S           1.7512    2.2319    1.6001 S.3     1  UNL1       -0.1620
      9 C           0.4627    0.7108   -1.4134 C.2     1  UNL1        0.3700
     10 O           0.6302    0.0904   -2.5110 O.co2   1  UNL1       -0.2451
     11 O          -0.2242    1.7647   -1.2474 O.co2   1  UNL1       -0.2451
     12 S           2.8418   -0.2640   -0.4494 S.3     1  UNL1       -0.1620
     13 H           1.6221    2.0847    2.9318 H       1  UNL1        0.1025
     14 H           3.0052   -0.9378    0.7039 H       1  UNL1        0.1025
@<TRIPOS>BOND
     1     1     2    1
     2     1     3    1
     3     1     9    1
     4     1    12    1
     5     3     4    1
     6     3     5    1
     7     3     8    1
     8     5     6   ar
     9     5     7   ar
    10     8    13    1
    11     9    10   ar
    12     9    11   ar
    13    12    14    1
