@<TRIPOS>MOLECULE
ZINC03872277
 21 22 0 0 0
SMALL
GASTEIGER

@<TRIPOS>ATOM
      1 C           0.9612    0.0100   -0.1041 C.3     1  UNL1        0.0415
      2 C           0.5308    0.5995   -1.4321 C.2     1  UNL1        0.3148
      3 N           0.7039    1.8693   -1.5544 N.2     1  UNL1        0.0902
      4 S           0.2991    2.6310   -2.9187 S.O2    1  UNL1        0.1824
      5 O          -0.8460    3.4806   -2.6522 O.2     1  UNL1       -0.1250
      6 O           1.5022    3.1808   -3.5125 O.2     1  UNL1       -0.1250
      7 C          -0.2749    1.4226   -4.0640 C.ar    1  UNL1        0.1802
      8 C          -0.6404    1.8284   -5.3517 C.ar    1  UNL1       -0.0105
      9 C          -1.0995    0.8721   -6.2467 C.ar    1  UNL1        0.0432
     10 C          -1.1925   -0.4645   -5.8594 C.ar    1  UNL1       -0.0395
     11 C          -0.8184   -0.8491   -4.5651 C.ar    1  UNL1       -0.0136
     12 C          -0.3467    0.0978   -3.6482 C.ar    1  UNL1        0.1476
     13 N           0.0314   -0.2791   -2.3604 N.pl3   1  UNL1       -0.2012
     14 CL         -1.5566    1.3357   -7.8373 Cl      1  UNL1       -0.0835
     15 H           0.5698   -1.0020    0.0274 H       1  UNL1        0.0352
     16 H           0.5983    0.6399    0.7138 H       1  UNL1        0.0352
     17 H           2.0543   -0.0211   -0.0682 H       1  UNL1        0.0352
     18 H          -0.5649    2.8742   -5.6402 H       1  UNL1        0.0654
     19 H          -1.5552   -1.2126   -6.5609 H       1  UNL1        0.0633
     20 H          -0.9009   -1.8981   -4.2897 H       1  UNL1        0.0659
     21 H          -0.0246   -1.2652   -2.1320 H       1  UNL1        0.2982
@<TRIPOS>BOND
     1     1     2    1
     2     1    15    1
     3     1    16    1
     4     1    17    1
     5     2    13    1
     6     2     3    2
     7     3     4    1
     8     4     5    2
     9     4     6    2
    10     4     7    1
    11     7    12   ar
    12     7     8   ar
    13     8     9   ar
    14     8    18    1
    15     9    10   ar
    16     9    14    1
    17    10    11   ar
    18    10    19    1
    19    11    12   ar
    20    11    20    1
    21    12    13    1
    22    13    21    1
