@<TRIPOS>MOLECULE
ZINC01530649
 18 18 0 0 0
SMALL
GASTEIGER

@<TRIPOS>ATOM
      1 C           0.1130    1.7408   -0.0070 C.ar    1  UNL1        0.0013
      2 C           1.4544    1.3638   -0.1846 C.ar    1  UNL1        0.1416
      3 C           1.7509    0.0016   -0.3441 C.ar    1  UNL1        0.0840
      4 C           0.7298   -0.9560   -0.2550 C.ar    1  UNL1       -0.0201
      5 C          -0.5956   -0.5680   -0.0477 C.ar    1  UNL1        0.0609
      6 C          -0.9077    0.7872    0.0611 C.ar    1  UNL1        0.0628
      7 CL         -2.5269    1.3510    0.2695 Cl      1  UNL1       -0.0819
      8 CL         -1.7935   -1.8089    0.0452 Cl      1  UNL1       -0.0820
      9 CL          3.3178   -0.6145   -0.7348 Cl      1  UNL1       -0.0797
     10 O           2.3013    2.4431   -0.2282 O.3     1  UNL1       -0.4780
     11 C           3.6329    2.2667    0.2464 C.3     1  UNL1        0.1507
     12 C           4.1503    3.5659    0.8420 C.1     1  UNL1       -0.0504
     13 C           4.5942    4.6803    1.3529 C.1     1  UNL1       -0.0266
     14 I           5.2975    6.4552    2.1679 I       1  UNL1        0.0181
     15 H          -0.1314    2.7988    0.0797 H       1  UNL1        0.0670
     16 H           0.9655   -2.0137   -0.3660 H       1  UNL1        0.0648
     17 H           3.6890    1.5117    1.0393 H       1  UNL1        0.0837
     18 H           4.2829    1.9980   -0.5923 H       1  UNL1        0.0837
@<TRIPOS>BOND
     1     1     6   ar
     2     1     2   ar
     3     1    15    1
     4     2     3   ar
     5     2    10    1
     6     3     4   ar
     7     3     9    1
     8     4     5   ar
     9     4    16    1
    10     5     6   ar
    11     5     8    1
    12     6     7    1
    13    10    11    1
    14    11    12    1
    15    11    17    1
    16    11    18    1
    17    12    13    3
    18    13    14    1
