@<TRIPOS>MOLECULE
ZINC01530694
 57 58 0 0 0
SMALL
GASTEIGER

@<TRIPOS>ATOM
      1 C          -8.0144    3.0654    4.3530 C.3     1  UNL1       -0.0307
      2 C          -7.7084    2.2557    3.1026 C.3     1  UNL1        0.0870
      3 O          -6.3235    2.3465    2.7651 O.3     1  UNL1       -0.4886
      4 C          -5.9153    3.0791    1.6860 C.ar    1  UNL1        0.1619
      5 C          -6.4788    4.3203    1.3609 C.ar    1  UNL1       -0.0163
      6 C          -5.9502    5.0832    0.3134 C.ar    1  UNL1       -0.0581
      7 C          -4.9193    4.5681   -0.4692 C.ar    1  UNL1       -0.0581
      8 C          -4.3671    3.3193   -0.1698 C.ar    1  UNL1       -0.0163
      9 C          -4.7897    2.6170    0.9616 C.ar    1  UNL1        0.1622
     10 O          -4.0090    1.5133    1.3037 O.3     1  UNL1       -0.4830
     11 C          -3.5710    1.6035    2.6716 C.3     1  UNL1        0.1293
     12 C          -2.6760    0.4385    3.1374 C.3     1  UNL1        0.0016
     13 N          -1.2847    0.3305    2.5761 N.4     1  UNL1        0.2316
     14 C           0.0031    0.7875    3.2447 C.3     1  UNL1       -0.0214
     15 H           0.6265   -0.1144    3.1723 H       1  UNL1        0.0851
     16 C          -0.0876    1.0679    4.7377 C.3     1  UNL1       -0.0213
     17 C           0.8065    1.8242    2.4289 C.3     1  UNL1        0.0153
     18 C           0.3686    3.2609    2.4488 C.ar    1  UNL1       -0.0400
     19 C           0.6028    4.0853    3.5504 C.ar    1  UNL1       -0.0548
     20 C           0.2329    5.4334    3.5248 C.ar    1  UNL1       -0.0177
     21 C          -0.3834    5.9982    2.3977 C.ar    1  UNL1        0.1463
     22 C          -0.5430    5.1986    1.2604 C.ar    1  UNL1        0.1466
     23 C          -0.1811    3.8371    1.2992 C.ar    1  UNL1       -0.0284
     24 S          -1.2945    5.7769   -0.2356 S.O2    1  UNL1        0.0594
     25 O          -1.6219    4.6084   -1.0332 O.2     1  UNL1       -0.1531
     26 O          -2.2518    6.8205    0.0196 O.2     1  UNL1       -0.1531
     27 N          -0.0163    6.4702   -1.0926 N.3     1  UNL1       -0.2034
     28 O          -0.7626    7.3120    2.3670 O.3     1  UNL1       -0.4932
     29 C          -1.1654    7.8663    3.6240 C.3     1  UNL1        0.0789
     30 H          -7.1803    3.0370    5.0624 H       1  UNL1        0.0262
     31 H          -8.9100    2.6807    4.8530 H       1  UNL1        0.0262
     32 H          -8.1970    4.1147    4.1045 H       1  UNL1        0.0262
     33 H          -7.8704    1.1999    3.3537 H       1  UNL1        0.0694
     34 H          -8.3854    2.4870    2.2733 H       1  UNL1        0.0694
     35 H          -7.2894    4.7442    1.9458 H       1  UNL1        0.0655
     36 H          -6.3283    6.0864    0.1140 H       1  UNL1        0.0619
     37 H          -4.5140    5.1607   -1.2891 H       1  UNL1        0.0619
     38 H          -3.5611    2.9392   -0.7905 H       1  UNL1        0.0655
     39 H          -3.1171    2.5787    2.8675 H       1  UNL1        0.0751
     40 H          -4.4460    1.4766    3.3099 H       1  UNL1        0.0751
     41 H          -2.5990    0.4448    4.2297 H       1  UNL1        0.0848
     42 H          -3.1657   -0.4881    2.8358 H       1  UNL1        0.0848
     43 H          -1.1638   -0.6926    2.5652 H       1  UNL1        0.2017
     44 H           0.9156    1.2940    5.1261 H       1  UNL1        0.0284
     45 H          -0.7341    1.9142    4.9813 H       1  UNL1        0.0284
     46 H          -0.4350    0.1866    5.2857 H       1  UNL1        0.0284
     47 H           1.8469    1.8072    2.7867 H       1  UNL1        0.0368
     48 H           0.8752    1.4789    1.3888 H       1  UNL1        0.0368
     49 H           1.1162    3.7144    4.4364 H       1  UNL1        0.0621
     50 H           0.4698    6.0369    4.3979 H       1  UNL1        0.0655
     51 H          -0.2929    3.2362    0.3989 H       1  UNL1        0.0641
     52 H           0.1346    5.9343   -1.9562 H       1  UNL1        0.1442
     53 H          -0.2643    7.4431   -1.2913 H       1  UNL1        0.1442
     54 H          -1.8879    7.2158    4.1312 H       1  UNL1        0.0660
     55 H          -0.2997    8.0572    4.2677 H       1  UNL1        0.0660
     56 H          -1.6507    8.8285    3.4387 H       1  UNL1        0.0660
     57 H          -1.3048    0.5732    1.5744 H       1  UNL1        0.2017
@<TRIPOS>UNITY_ATOM_ATTR
13 1
charge 1
@<TRIPOS>BOND
     1     1     2    1
     2     1    30    1
     3     1    31    1
     4     1    32    1
     5     2     3    1
     6     2    33    1
     7     2    34    1
     8     3     4    1
     9     4     9   ar
    10     4     5   ar
    11     5     6   ar
    12     5    35    1
    13     6     7   ar
    14     6    36    1
    15     7     8   ar
    16     7    37    1
    17     8     9   ar
    18     8    38    1
    19     9    10    1
    20    10    11    1
    21    11    12    1
    22    11    39    1
    23    11    40    1
    24    12    13    1
    25    12    41    1
    26    12    42    1
    27    13    43    1
    28    13    57    1
    29    14    16    1
    30    14    17    1
    31    16    44    1
    32    16    45    1
    33    16    46    1
    34    17    18    1
    35    17    47    1
    36    17    48    1
    37    18    23   ar
    38    18    19   ar
    39    19    20   ar
    40    19    49    1
    41    20    21   ar
    42    20    50    1
    43    21    22   ar
    44    21    28    1
    45    22    23   ar
    46    22    24    1
    47    23    51    1
    48    24    25    2
    49    24    26    2
    50    24    27    1
    51    27    52    1
    52    27    53    1
    53    28    29    1
    54    29    54    1
    55    29    55    1
    56    29    56    1
    57    14    15    1
    58    14    13    1
