@<TRIPOS>MOLECULE
ZINC00596881
 40 42 0 0 0
SMALL
GASTEIGER

@<TRIPOS>ATOM
      1 C           5.0576    3.9257    1.6445 C.ar    1  UNL1       -0.0550
      2 C           5.3168    5.2933    1.7729 C.ar    1  UNL1       -0.0431
      3 C           4.2858    6.2182    1.6242 C.ar    1  UNL1        0.0410
      4 C           2.9992    5.7868    1.3148 C.ar    1  UNL1       -0.0431
      5 C           2.7390    4.4185    1.1837 C.ar    1  UNL1       -0.0550
      6 C           3.7585    3.4681    1.3870 C.ar    1  UNL1       -0.0218
      7 C           3.4556    1.9896    1.2964 C.3     1  UNL1        0.0735
      8 O           4.0773    1.3072    2.3965 O.3     1  UNL1       -0.3658
      9 C           3.6761   -0.0761    2.6166 C.3     1  UNL1        0.1014
     10 H           3.8834   -0.6479    1.7049 H       1  UNL1        0.0663
     11 C           2.1518   -0.0945    2.9807 C.3     1  UNL1        0.0480
     12 N           1.8705    0.4987    4.3097 N.pl3   1  UNL1       -0.2949
     13 C           1.0311   -0.0529    5.2667 C.2     1  UNL1        0.0135
     14 C           1.2433    0.6355    6.4355 C.2     1  UNL1        0.0167
     15 N           2.1576    1.6146    6.1192 N.2     1  UNL1       -0.3542
     16 C           2.4932    1.5732    4.8331 C.2     1  UNL1        0.0640
     17 C           4.5159   -0.6492    3.7860 C.ar    1  UNL1        0.0010
     18 C           5.6286    0.0684    4.2723 C.ar    1  UNL1       -0.0533
     19 C           6.1866   -0.2206    5.5240 C.ar    1  UNL1       -0.0430
     20 C           5.6412   -1.2290    6.3086 C.ar    1  UNL1        0.0424
     21 C           4.6505   -2.0497    5.7901 C.ar    1  UNL1       -0.0247
     22 C           4.1477   -1.8063    4.5073 C.ar    1  UNL1        0.0480
     23 CL          3.0971   -3.0195    3.8681 Cl      1  UNL1       -0.0831
     24 CL          6.1844   -1.4596    7.9219 Cl      1  UNL1       -0.0835
     25 CL          4.5941    7.8937    1.8481 Cl      1  UNL1       -0.0835
     26 H           5.8771    3.2191    1.7642 H       1  UNL1        0.0621
     27 H           6.3281    5.6355    1.9854 H       1  UNL1        0.0632
     28 H           2.1972    6.5088    1.1717 H       1  UNL1        0.0632
     29 H           1.7270    4.1086    0.9301 H       1  UNL1        0.0621
     30 H           2.3717    1.8973    1.3643 H       1  UNL1        0.0610
     31 H           3.7877    1.5680    0.3446 H       1  UNL1        0.0610
     32 H           1.5306    0.4408    2.2631 H       1  UNL1        0.0497
     33 H           1.7502   -1.1069    2.9645 H       1  UNL1        0.0497
     34 H           0.4149   -0.8973    5.0064 H       1  UNL1        0.0798
     35 H           0.8881    0.5519    7.4414 H       1  UNL1        0.0820
     36 H           3.1758    2.2546    4.3409 H       1  UNL1        0.0982
     37 H           6.0563    0.8926    3.7016 H       1  UNL1        0.0622
     38 H           7.0257    0.3654    5.8945 H       1  UNL1        0.0632
     39 H           4.2709   -2.8797    6.3830 H       1  UNL1        0.0647
     40 H           2.5474    2.2896    6.7829 H       1  UNL1        0.1660
@<TRIPOS>BOND
     1     1     6   ar
     2     1     2   ar
     3     1    26    1
     4     2     3   ar
     5     2    27    1
     6     3     4   ar
     7     3    25    1
     8     4     5   ar
     9     4    28    1
    10     5     6   ar
    11     5    29    1
    12     6     7    1
    13     7     8    1
    14     7    30    1
    15     7    31    1
    16     9    11    1
    17     9    17    1
    18    11    12    1
    19    11    32    1
    20    11    33    1
    21    12    16    1
    22    12    13    1
    23    13    14    2
    24    13    34    1
    25    14    15    1
    26    14    35    1
    27    15    16    2
    28    15    40    1
    29    16    36    1
    30    17    22   ar
    31    17    18   ar
    32    18    19   ar
    33    18    37    1
    34    19    20   ar
    35    19    38    1
    36    20    21   ar
    37    20    24    1
    38    21    22   ar
    39    21    39    1
    40    22    23    1
    41     9    10    1
    42     9     8    1
