@<TRIPOS>MOLECULE
ZINC00006481
 20 21 0 0 0
SMALL
GASTEIGER

@<TRIPOS>ATOM
      1 C           2.7788    0.6827   -0.0338 C.ar    1  UNL1       -0.0175
      2 C           1.5946    1.4253    0.0012 C.ar    1  UNL1       -0.0317
      3 C           0.3571    0.7564    0.0362 C.ar    1  UNL1        0.0805
      4 C           0.3538   -0.6388    0.0615 C.ar    1  UNL1        0.0442
      5 C           1.5420   -1.3959    0.0438 C.ar    1  UNL1       -0.0037
      6 C           2.7586   -0.7136   -0.0439 C.ar    1  UNL1        0.1312
      7 O           3.9949   -1.2851   -0.0994 O.3     1  UNL1       -0.4057
      8 C           4.1504   -2.5819   -0.6649 C.3     1  UNL1        0.5752
      9 F           3.0857   -2.9945   -1.3860 F       1  UNL1       -0.1328
     10 F           5.2197   -2.5569   -1.4898 F       1  UNL1       -0.1328
     11 F           4.3915   -3.4738    0.3153 F       1  UNL1       -0.1328
     12 S          -1.2799   -1.1833    0.1133 S.2     1  UNL1       -0.0525
     13 C          -1.8255    0.4428    0.1105 C.ar    1  UNL1        0.1566
     14 N          -0.8895    1.3558    0.0568 N.ar    1  UNL1       -0.2251
     15 N          -3.1332    0.7387    0.1485 N.pl3   1  UNL1       -0.3375
     16 H           3.7302    1.2103   -0.0619 H       1  UNL1        0.0655
     17 H           1.6184    2.5104   -0.0038 H       1  UNL1        0.0640
     18 H           1.4815   -2.4776    0.0967 H       1  UNL1        0.0666
     19 H          -3.7972    0.0309   -0.1414 H       1  UNL1        0.1442
     20 H          -3.3817    1.6849   -0.1158 H       1  UNL1        0.1442
@<TRIPOS>BOND
     1     1     6   ar
     2     1     2   ar
     3     1    16    1
     4     2     3   ar
     5     2    17    1
     6     3    14   ar
     7     3     4   ar
     8     4     5   ar
     9     4    12   ar
    10     5     6   ar
    11     5    18    1
    12     6     7    1
    13     7     8    1
    14     8     9    1
    15     8    10    1
    16     8    11    1
    17    12    13   ar
    18    13    14   ar
    19    13    15    1
    20    15    19    1
    21    15    20    1
