@<TRIPOS>MOLECULE
ZINC01851132
 50 52 0 0 0
SMALL
GASTEIGER

@<TRIPOS>ATOM
      1 C          -5.3960    6.3185    1.8164 C.ar    0  UNK0       -0.0578
      2 C          -5.5524    5.0003    2.2703 C.ar    0  UNK0       -0.0494
      3 C          -5.1327    3.9103    1.4948 C.ar    0  UNK0        0.0367
      4 C          -4.6398    4.1693    0.2107 C.ar    0  UNK0       -0.0494
      5 C          -4.4862    5.4890   -0.2434 C.ar    0  UNK0       -0.0578
      6 C          -4.8063    6.5841    0.5753 C.ar    0  UNK0       -0.0470
      7 C          -4.4490    7.9804    0.0964 C.3     0  UNK0       -0.0236
      8 C          -4.5940    9.1154    1.1266 C.3     0  UNK0       -0.0215
      9 C          -4.0774   10.4370    0.6336 C.ar    0  UNK0       -0.0153
     10 C          -4.8035   11.4193   -0.0243 C.ar    0  UNK0        0.0075
     11 N          -3.9611   12.4623   -0.3276 N.ar    0  UNK0       -0.3453
     12 H          -4.2124   13.3156   -0.8053 H       0  UNK0        0.1668
     13 C          -2.7032   12.1659    0.1065 C.ar    0  UNK0        0.1472
     14 C          -2.7547   10.9543    0.7591 C.ar    0  UNK0        0.0861
     15 C          -1.5388   10.4877    1.3766 C.ar    0  UNK0        0.2622
     16 O          -1.4390    9.4715    2.0572 O.2     0  UNK0       -0.2670
     17 N          -0.4602   11.3223    1.1457 N.ar    0  UNK0       -0.2947
     18 H           0.3980   11.0408    1.5855 H       0  UNK0        0.1716
     19 C          -0.5284   12.4940    0.4256 C.ar    0  UNK0        0.1949
     20 N          -1.6274   12.9623   -0.0991 N.ar    0  UNK0       -0.1982
     21 N           0.6454   13.1590    0.2548 N.pl3   0  UNK0       -0.3289
     22 C          -5.1502    2.5404    2.1239 C.2     0  UNK0        0.2447
     23 O          -5.5321    2.4249    3.2870 O.2     0  UNK0       -0.2702
     24 N          -4.6549    1.5039    1.3596 N.am    1  GLU1       -0.2982
     25 CA         -4.8635    0.0759    1.7174 C.3     1  GLU1        0.1254
     26 HA         -4.8738    0.0143    2.8136 H       1  GLU1        0.0616
     27 CB         -3.6876   -0.7819    1.1974 C.3     1  GLU1       -0.0137
     28 CG         -3.5003   -0.7708   -0.3264 C.3     1  GLU1        0.0514
     29 CD         -2.2626   -1.4879   -0.8821 C.2     1  GLU1        0.3561
     30 OE1        -2.1510   -1.4399   -2.1452 O.co2   1  GLU1       -0.2464
     31 OE2        -1.4730   -2.0152   -0.0488 O.co2   1  GLU1       -0.2464
     32 C          -6.2494   -0.4902    1.2324 C.2     1  GLU1        0.3759
     33 O          -6.5522   -1.6508    1.6391 O.co2   1  GLU1       -0.2443
     34 OXT        -6.9283    0.2948    0.4959 O.co2   1  GLU1       -0.2443
     35 H          -5.7069    7.1197    2.4796 H       0  UNK0        0.0620
     36 H          -5.9694    4.8248    3.2603 H       0  UNK0        0.0625
     37 H          -4.3280    3.3652   -0.4488 H       0  UNK0        0.0625
     38 H          -4.0670    5.6465   -1.2355 H       0  UNK0        0.0620
     39 H          -3.4009    7.9515   -0.2343 H       0  UNK0        0.0316
     40 H          -5.0534    8.2110   -0.7906 H       0  UNK0        0.0316
     41 H          -5.6522    9.2308    1.3934 H       0  UNK0        0.0317
     42 H          -4.0662    8.8535    2.0514 H       0  UNK0        0.0317
     43 H          -5.8475   11.4601   -0.3051 H       0  UNK0        0.0810
     44 H           0.5963   13.7999   -0.5317 H       0  UNK0        0.1451
     45 H           1.4819   12.5913    0.2429 H       0  UNK0        0.1451
     46 H          -4.7467    1.6144    0.3628 H       1  GLU1        0.1498
     47 HB1        -2.7628   -0.4214    1.6674 H       1  GLU1        0.0294
     48 HB2        -3.8152   -1.8205    1.5297 H       1  GLU1        0.0294
     49 HG1        -4.3812   -1.2194   -0.8009 H       1  GLU1        0.0380
     50 HG2        -3.4317    0.2630   -0.6839 H       1  GLU1        0.0380
@<TRIPOS>BOND
     1     1     6   ar
     2     1     2   ar
     3     1    35    1
     4     2     3   ar
     5     2    36    1
     6     3     4   ar
     7     3    22    1
     8     4     5   ar
     9     4    37    1
    10     5     6   ar
    11     5    38    1
    12     6     7    1
    13     7     8    1
    14     7    39    1
    15     7    40    1
    16     8     9    1
    17     8    41    1
    18     8    42    1
    19     9    14   ar
    20     9    10   ar
    21    10    11   ar
    22    10    43    1
    23    11    12    1
    24    11    13   ar
    25    13    20   ar
    26    13    14   ar
    27    14    15   ar
    28    15    16    2
    29    15    17   ar
    30    17    18    1
    31    17    19   ar
    32    19    20   ar
    33    19    21    1
    34    21    44    1
    35    21    45    1
    36    22    23    2
    37    22    24   am
    38    24    46    1
    39    25    27    1
    40    25    32    1
    41    27    28    1
    42    27    47    1
    43    27    48    1
    44    28    29    1
    45    28    49    1
    46    28    50    1
    47    29    30   ar
    48    29    31   ar
    49    32    33   ar
    50    32    34   ar
    51    25    26    1
    52    25    24    1
