@<TRIPOS>MOLECULE
ZINC01530695
 52 55 0 0 0
SMALL
GASTEIGER

@<TRIPOS>ATOM
      1 C          -0.6783   -0.2852    1.9046 C.3     1  UNL1       -0.0428
      2 N          -0.6318   -0.2642    0.3911 N.4     1  UNL1        0.2353
      3 C           0.0338   -1.4874   -0.1825 C.3     1  UNL1       -0.0319
      4 C           1.5378   -1.4452    0.0501 C.3     1  UNL1       -0.0123
      5 C           2.1704   -0.1505   -0.4461 C.3     1  UNL1       -0.0432
      6 C           1.4366    1.0893    0.0496 C.3     1  UNL1       -0.0094
      7 C          -0.0832    1.0426   -0.1650 C.3     1  UNL1       -0.0197
      8 H          -0.5088    1.8308    0.4472 H       1  UNL1        0.0851
      9 C          -0.4944    1.2748   -1.6339 C.3     1  UNL1        0.0064
     10 C          -2.0086    1.3910   -1.9271 C.3     1  UNL1        0.0224
     11 N          -2.6709    2.4783   -1.1706 N.pl3   1  UNL1       -0.2981
     12 C          -2.2518    3.7950   -1.4929 C.ar    1  UNL1        0.0479
     13 C          -2.3971    4.2841   -2.8010 C.ar    1  UNL1       -0.0393
     14 C          -2.0173    5.5891   -3.1243 C.ar    1  UNL1       -0.0599
     15 C          -1.4528    6.4121   -2.1553 C.ar    1  UNL1       -0.0606
     16 C          -1.3218    5.9531   -0.8461 C.ar    1  UNL1       -0.0462
     17 C          -1.7666    4.6715   -0.5024 C.ar    1  UNL1        0.0341
     18 S          -1.7185    4.2082    1.2219 S.3     1  UNL1       -0.0857
     19 C          -2.9396    2.9007    1.2376 C.ar    1  UNL1        0.0342
     20 C          -3.2430    2.1527    0.0798 C.ar    1  UNL1        0.0489
     21 C          -4.2034    1.1299    0.1789 C.ar    1  UNL1       -0.0258
     22 C          -4.8411    0.8505    1.3935 C.ar    1  UNL1        0.0094
     23 C          -4.4859    1.5701    2.5347 C.ar    1  UNL1       -0.0472
     24 C          -3.5475    2.5911    2.4582 C.ar    1  UNL1       -0.0451
     25 S          -6.0750   -0.4318    1.4642 S.3     1  UNL1       -0.1285
     26 C          -7.4984    0.5378    2.0548 C.3     1  UNL1       -0.0135
     27 H           0.3369   -0.2732    2.3070 H       1  UNL1        0.0778
     28 H          -1.2292    0.5944    2.2438 H       1  UNL1        0.0778
     29 H          -1.2050   -1.1922    2.2106 H       1  UNL1        0.0778
     30 H          -0.4233   -2.3660    0.2856 H       1  UNL1        0.0814
     31 H          -0.2049   -1.5153   -1.2509 H       1  UNL1        0.0814
     32 H           2.0044   -2.2952   -0.4601 H       1  UNL1        0.0317
     33 H           1.7546   -1.5729    1.1167 H       1  UNL1        0.0317
     34 H           2.1898   -0.1506   -1.5416 H       1  UNL1        0.0269
     35 H           3.2150   -0.1091   -0.1136 H       1  UNL1        0.0269
     36 H           1.8554    1.9801   -0.4343 H       1  UNL1        0.0320
     37 H           1.6426    1.2144    1.1208 H       1  UNL1        0.0320
     38 H          -0.0041    2.1936   -1.9815 H       1  UNL1        0.0335
     39 H          -0.0915    0.4781   -2.2696 H       1  UNL1        0.0335
     40 H          -2.1363    1.5553   -3.0040 H       1  UNL1        0.0470
     41 H          -2.4820    0.4226   -1.7403 H       1  UNL1        0.0470
     42 H          -2.8778    3.6799   -3.5659 H       1  UNL1        0.0636
     43 H          -2.1862    5.9735   -4.1282 H       1  UNL1        0.0618
     44 H          -1.1410    7.4227   -2.4091 H       1  UNL1        0.0618
     45 H          -0.8983    6.6131   -0.0920 H       1  UNL1        0.0629
     46 H          -4.5204    0.5949   -0.7146 H       1  UNL1        0.0647
     47 H          -4.9550    1.3578    3.4950 H       1  UNL1        0.0629
     48 H          -3.3007    3.1570    3.3542 H       1  UNL1        0.0630
     49 H          -7.2917    0.9928    3.0272 H       1  UNL1        0.0344
     50 H          -7.7500    1.3224    1.3353 H       1  UNL1        0.0344
     51 H          -8.3624   -0.1228    2.1656 H       1  UNL1        0.0344
     52 H          -1.6237   -0.3104    0.1284 H       1  UNL1        0.2033
@<TRIPOS>UNITY_ATOM_ATTR
2 1
charge 1
@<TRIPOS>BOND
     1     1    27    1
     2     1    28    1
     3     1    29    1
     4     2     7    1
     5     2     3    1
     6     3     4    1
     7     3    30    1
     8     3    31    1
     9     4     5    1
    10     4    32    1
    11     4    33    1
    12     5     6    1
    13     5    34    1
    14     5    35    1
    15     6     7    1
    16     6    36    1
    17     6    37    1
    18     9    10    1
    19     9    38    1
    20     9    39    1
    21    10    11    1
    22    10    40    1
    23    10    41    1
    24    11    20    1
    25    11    12    1
    26    12    17   ar
    27    12    13   ar
    28    13    14   ar
    29    13    42    1
    30    14    15   ar
    31    14    43    1
    32    15    16   ar
    33    15    44    1
    34    16    17   ar
    35    16    45    1
    36    17    18    1
    37    18    19    1
    38    19    24   ar
    39    19    20   ar
    40    20    21   ar
    41    21    22   ar
    42    21    46    1
    43    22    23   ar
    44    22    25    1
    45    23    24   ar
    46    23    47    1
    47    24    48    1
    48    25    26    1
    49    26    49    1
    50    26    50    1
    51    26    51    1
    52     2    52    1
    53     2     1    1
    54     7     9    1
    55     7     8    1
