@<TRIPOS>MOLECULE
ZINC03873157
 44 46 0 0 0
SMALL
GASTEIGER

@<TRIPOS>ATOM
      1 C          -0.7398   -0.8979    1.8906 C.3     1  UNL1       -0.0471
      2 C           0.5385   -0.2257    1.4140 C.3     1  UNL1        0.0206
      3 N           0.8102    1.0010    2.1832 N.ar    1  UNL1       -0.3436
      4 C           1.6007    0.9444    3.3204 C.ar    1  UNL1        0.0230
      5 C           1.9988    1.9723    4.0840 C.ar    1  UNL1        0.1263
      6 C           1.5795    3.3207    3.6676 C.ar    1  UNL1        0.2037
      7 O           1.8966    4.3667    4.2134 O.2     1  UNL1       -0.2863
      8 C           0.7340    3.4167    2.4440 C.ar    1  UNL1        0.0516
      9 C           0.3419    2.2580    1.7497 C.ar    1  UNL1        0.0904
     10 C          -0.4928    2.4565    0.6326 C.ar    1  UNL1        0.1711
     11 C          -0.8364    3.7277    0.1121 C.ar    1  UNL1        0.1034
     12 C          -0.3695    4.8334    0.8410 C.ar    1  UNL1        0.1479
     13 C           0.3750    4.6939    2.0004 C.ar    1  UNL1       -0.0116
     14 F          -0.5809    6.0824    0.3912 F       1  UNL1       -0.2034
     15 N          -1.5679    3.8580   -1.0685 N.pl3   1  UNL1       -0.3150
     16 C          -1.4576    2.8565   -2.1421 C.3     1  UNL1        0.0526
     17 C          -1.0699    3.5390   -3.4673 C.3     1  UNL1       -0.0173
     18 N          -1.9878    4.7018   -3.7560 N.4     1  UNL1        0.2312
     19 C          -1.9824    5.7220   -2.6213 C.3     1  UNL1       -0.0094
     20 H          -0.9462    6.0741   -2.5470 H       1  UNL1        0.0863
     21 C          -2.4308    5.0184   -1.3198 C.3     1  UNL1        0.0551
     22 C          -2.9030    6.8701   -3.0006 C.3     1  UNL1       -0.0202
     23 F          -1.0379    1.3861    0.0262 F       1  UNL1       -0.2013
     24 C           2.8602    1.6942    5.3149 C.2     1  UNL1        0.3916
     25 O           2.8098    2.5326    6.2536 O.co2   1  UNL1       -0.2404
     26 O           3.5041    0.5993    5.2782 O.co2   1  UNL1       -0.2404
     27 H          -0.7037   -1.0966    2.9666 H       1  UNL1        0.0247
     28 H          -0.8799   -1.8523    1.3731 H       1  UNL1        0.0247
     29 H          -1.6203   -0.2771    1.6981 H       1  UNL1        0.0247
     30 H           1.3726   -0.9316    1.5424 H       1  UNL1        0.0489
     31 H           0.5148   -0.0452    0.3355 H       1  UNL1        0.0489
     32 H           1.9137   -0.0669    3.5863 H       1  UNL1        0.0818
     33 H           0.7050    5.5796    2.5363 H       1  UNL1        0.0654
     34 H          -0.6904    2.0983   -1.9585 H       1  UNL1        0.0516
     35 H          -2.4199    2.3431   -2.2503 H       1  UNL1        0.0516
     36 H          -0.0529    3.9440   -3.4239 H       1  UNL1        0.0829
     37 H          -1.1500    2.8480   -4.3121 H       1  UNL1        0.0829
     38 H          -2.9420    4.3487   -3.8925 H       1  UNL1        0.2017
     39 H          -3.4596    4.6489   -1.4356 H       1  UNL1        0.0519
     40 H          -2.4785    5.7309   -0.4936 H       1  UNL1        0.0519
     41 H          -2.8466    7.1037   -4.0689 H       1  UNL1        0.0285
     42 H          -3.9469    6.6471   -2.7561 H       1  UNL1        0.0285
     43 H          -2.6190    7.7708   -2.4471 H       1  UNL1        0.0285
     44 H          -1.6944    5.1518   -4.6307 H       1  UNL1        0.2017
@<TRIPOS>UNITY_ATOM_ATTR
18 1
charge 1
@<TRIPOS>BOND
     1     1     2    1
     2     1    27    1
     3     1    28    1
     4     1    29    1
     5     2     3    1
     6     2    30    1
     7     2    31    1
     8     3     9   ar
     9     3     4   ar
    10     4     5   ar
    11     4    32    1
    12     5     6   ar
    13     5    24    1
    14     6     7    2
    15     6     8   ar
    16     8    13   ar
    17     8     9   ar
    18     9    10   ar
    19    10    11   ar
    20    10    23    1
    21    11    12   ar
    22    11    15    1
    23    12    13   ar
    24    12    14    1
    25    13    33    1
    26    15    21    1
    27    15    16    1
    28    16    17    1
    29    16    34    1
    30    16    35    1
    31    17    18    1
    32    17    36    1
    33    17    37    1
    34    18    19    1
    35    18    38    1
    36    18    44    1
    37    19    21    1
    38    21    39    1
    39    21    40    1
    40    22    41    1
    41    22    42    1
    42    22    43    1
    43    24    25   ar
    44    24    26   ar
    45    19    22    1
    46    19    20    1
