@<TRIPOS>MOLECULE
ZINC03812865
 30 31 0 0 0
SMALL
GASTEIGER

@<TRIPOS>ATOM
      1 C          -1.1313    0.8204   -0.6198 C.ar    1  UNL1       -0.0311
      2 C           0.2591    0.7236   -0.5257 C.ar    1  UNL1       -0.0173
      3 C           0.8457   -0.3074    0.2230 C.ar    1  UNL1        0.1311
      4 C           0.0578   -1.2662    0.8668 C.ar    1  UNL1        0.1065
      5 C          -1.3471   -1.1360    0.7565 C.ar    1  UNL1       -0.0169
      6 C          -1.9570   -0.1069    0.0209 C.ar    1  UNL1        0.0872
      7 N          -3.3535    0.0914   -0.0495 N.2     1  UNL1       -0.1493
      8 N          -3.9991   -0.9786   -0.0288 N.2     1  UNL1       -0.1493
      9 C          -5.3946   -0.7624   -0.0550 C.ar    1  UNL1        0.0872
     10 C          -6.2128   -1.6536    0.6429 C.ar    1  UNL1       -0.0311
     11 C          -7.6017   -1.5033    0.6363 C.ar    1  UNL1       -0.0173
     12 C          -8.1957   -0.4540   -0.0771 C.ar    1  UNL1        0.1311
     13 C          -7.4167    0.4461   -0.8150 C.ar    1  UNL1        0.1065
     14 C          -6.0124    0.2667   -0.7834 C.ar    1  UNL1       -0.0169
     15 C          -7.9728    1.5891   -1.6452 C.2     1  UNL1        0.3901
     16 O          -7.1803    2.5624   -1.8779 O.co2   1  UNL1       -0.2405
     17 O          -9.1572    1.5041   -2.1017 O.co2   1  UNL1       -0.2405
     18 O          -9.5521   -0.3151    0.0035 O.3     1  UNL1       -0.5059
     19 C           0.6074   -2.4313    1.6720 C.2     1  UNL1        0.3901
     20 O          -0.1658   -2.9206    2.5600 O.co2   1  UNL1       -0.2405
     21 O           1.7645   -2.8828    1.3974 O.co2   1  UNL1       -0.2405
     22 O           2.2067   -0.3103    0.3429 O.3     1  UNL1       -0.5059
     23 H          -1.5809    1.6325   -1.1848 H       1  UNL1        0.0640
     24 H           0.8691    1.4721   -1.0196 H       1  UNL1        0.0655
     25 H          -1.9744   -1.8590    1.2766 H       1  UNL1        0.0649
     26 H          -5.7587   -2.4647    1.2062 H       1  UNL1        0.0640
     27 H          -8.2056   -2.2035    1.2036 H       1  UNL1        0.0655
     28 H          -5.3932    0.9585   -1.3522 H       1  UNL1        0.0649
     29 H          -9.9330   -1.0953    0.4246 H       1  UNL1        0.2922
     30 H           2.5888    0.3211   -0.2788 H       1  UNL1        0.2922
@<TRIPOS>BOND
     1     1     6   ar
     2     1     2   ar
     3     1    23    1
     4     2     3   ar
     5     2    24    1
     6     3     4   ar
     7     3    22    1
     8     4     5   ar
     9     4    19    1
    10     5     6   ar
    11     5    25    1
    12     6     7    1
    13     7     8    2
    14     8     9    1
    15     9    14   ar
    16     9    10   ar
    17    10    11   ar
    18    10    26    1
    19    11    12   ar
    20    11    27    1
    21    12    13   ar
    22    12    18    1
    23    13    14   ar
    24    13    15    1
    25    14    28    1
    26    15    16   ar
    27    15    17   ar
    28    18    29    1
    29    19    20   ar
    30    19    21   ar
    31    22    30    1
