@<TRIPOS>MOLECULE
ZINC03831157
 54 57 0 0 0
SMALL
GASTEIGER

@<TRIPOS>ATOM
      1 C          -1.0648   -5.4627   -1.7601 C.3     1  UNL1        0.0346
      2 N          -0.3635   -4.3167   -2.2750 N.ar    1  UNL1       -0.2233
      3 C          -0.1638   -3.0563   -1.7912 C.ar    1  UNL1        0.2094
      4 N           0.5902   -2.4056   -2.6579 N.ar    1  UNL1       -0.1015
      5 N           0.8625   -3.2848   -3.6729 N.ar    1  UNL1       -0.0222
      6 N           0.2754   -4.4532   -3.4613 N.ar    1  UNL1       -0.0435
      7 S          -0.5560   -2.4358   -0.2320 S.3     1  UNL1       -0.0801
      8 C          -2.3173   -2.8064    0.0859 C.3     1  UNL1        0.0267
      9 C          -2.8976   -2.0471    1.2796 C.2     1  UNL1       -0.0054
     10 C          -3.7979   -2.5944    2.1451 C.2     1  UNL1        0.1297
     11 N          -4.0153   -1.9142    3.3125 N.am    1  UNL1       -0.2298
     12 C          -3.8034   -0.4978    3.4372 C.3     1  UNL1        0.1869
     13 H          -4.7402    0.0455    3.2533 H       1  UNL1        0.0866
     14 C          -3.5416   -0.7420    4.9867 C.3     1  UNL1        0.2580
     15 C          -4.2589   -2.1667    4.6237 C.2     1  UNL1        0.2773
     16 O          -4.6477   -3.1233    5.2591 O.2     1  UNL1       -0.2699
     17 N          -2.0895   -0.8820    5.3259 N.am    1  UNL1       -0.2758
     18 C          -1.1631    0.1042    5.0947 C.2     1  UNL1        0.2339
     19 O          -1.5191    1.2696    4.8778 O.2     1  UNL1       -0.2745
     20 C           0.3273   -0.2502    5.1522 C.3     1  UNL1        0.1615
     21 H           0.7016   -0.0105    4.1450 H       1  UNL1        0.0560
     22 C           1.0300    0.6430    6.1694 C.ar    1  UNL1       -0.0245
     23 C           2.0246    1.5437    5.7583 C.ar    1  UNL1       -0.0539
     24 C           2.5656    2.4573    6.6638 C.ar    1  UNL1       -0.0199
     25 C           2.1171    2.4628    7.9812 C.ar    1  UNL1        0.1169
     26 C           1.1847    1.5341    8.4228 C.ar    1  UNL1       -0.0199
     27 C           0.6408    0.6219    7.5176 C.ar    1  UNL1       -0.0539
     28 O           2.5607    3.4010    8.8693 O.3     1  UNL1       -0.5068
     29 C           0.6977   -1.7194    5.3667 C.2     1  UNL1        0.3721
     30 O           1.9276   -2.0013    5.2302 O.co2   1  UNL1       -0.2451
     31 O          -4.3188    0.0945    5.9034 O.3     1  UNL1       -0.3481
     32 C          -4.0483   -0.0856    7.2862 C.3     1  UNL1        0.0396
     33 O          -2.7658    0.0657    2.6321 O.3     1  UNL1       -0.3487
     34 C          -2.3963   -0.6224    1.4505 C.3     1  UNL1        0.0743
     35 C          -4.6264   -3.9270    1.8372 C.2     1  UNL1        0.4007
     36 O          -4.1791   -4.6737    0.9157 O.co2   1  UNL1       -0.2392
     37 H          -1.9360   -5.6341   -2.3985 H       1  UNL1        0.0474
     38 H          -0.3959   -6.3273   -1.8056 H       1  UNL1        0.0474
     39 H          -1.3678   -5.3154   -0.7313 H       1  UNL1        0.0474
     40 H          -2.9196   -2.6404   -0.8110 H       1  UNL1        0.0428
     41 H          -2.2755   -3.8635    0.3237 H       1  UNL1        0.0428
     42 H          -1.6877   -1.8298    5.4280 H       1  UNL1        0.1520
     43 H           2.3625    1.5400    4.7253 H       1  UNL1        0.0622
     44 H           3.3230    3.1526    6.3196 H       1  UNL1        0.0654
     45 H           0.8540    1.5323    9.4550 H       1  UNL1        0.0654
     46 H          -0.1079   -0.0902    7.8527 H       1  UNL1        0.0622
     47 H           2.9182    4.1322    8.3396 H       1  UNL1        0.2921
     48 H          -4.1403   -1.1397    7.5649 H       1  UNL1        0.0525
     49 H          -3.0495    0.2841    7.5343 H       1  UNL1        0.0525
     50 H          -4.7742    0.4951    7.8616 H       1  UNL1        0.0525
     51 H          -1.3088   -0.5717    1.4475 H       1  UNL1        0.0608
     52 H          -2.7664   -0.0275    0.6083 H       1  UNL1        0.0608
     53 O          -0.2472   -2.5199    5.6352 O.co2   1  UNL1       -0.2451
     54 O          -5.7528   -3.9942    2.4127 O.co2   1  UNL1       -0.2392
@<TRIPOS>BOND
     1     1     2    1
     2     1    37    1
     3     1    38    1
     4     1    39    1
     5     2     6   ar
     6     2     3   ar
     7     3     4   ar
     8     3     7    1
     9     4     5   ar
    10     5     6   ar
    11     7     8    1
    12     8     9    1
    13     8    40    1
    14     8    41    1
    15     9    34    1
    16     9    10    2
    17    10    11    1
    18    10    35    1
    19    11    15   am
    20    11    12    1
    21    12    13    1
    22    12    14    1
    23    12    33    1
    24    14    15    1
    25    15    16    2
    26    17    18   am
    27    17    42    1
    28    18    19    2
    29    18    20    1
    30    20    21    1
    31    20    22    1
    32    20    29    1
    33    22    27   ar
    34    22    23   ar
    35    23    24   ar
    36    23    43    1
    37    24    25   ar
    38    24    44    1
    39    25    26   ar
    40    25    28    1
    41    26    27   ar
    42    26    45    1
    43    27    46    1
    44    28    47    1
    45    29    30   ar
    46    29    53   ar
    47    31    32    1
    48    32    48    1
    49    32    49    1
    50    32    50    1
    51    33    34    1
    52    34    51    1
    53    34    52    1
    54    35    36   ar
    55    35    54   ar
    56    14    31    1
    57    14    17    1
