@<TRIPOS>MOLECULE
ZINC00057408
 33 33 0 0 0
SMALL
GASTEIGER

@<TRIPOS>ATOM
      1 C          -0.7404    1.7404   -2.2288 C.3     1  UNL1       -0.0190
      2 C          -1.5836    0.9092   -1.2759 C.3     1  UNL1        0.0036
      3 H          -2.6532    1.0635   -1.4593 H       1  UNL1        0.0876
      4 C          -1.2472   -0.6118   -1.2222 C.3     1  UNL1        0.1256
      5 H          -0.1760   -0.6664   -0.9995 H       1  UNL1        0.0702
      6 C          -1.5241   -1.5034   -2.4124 C.ar    1  UNL1        0.0313
      7 C          -2.2851   -1.0299   -3.5009 C.ar    1  UNL1       -0.0106
      8 C          -2.6113   -1.8411   -4.5977 C.ar    1  UNL1        0.1207
      9 C          -2.1522   -3.1475   -4.6435 C.ar    1  UNL1       -0.0165
     10 C          -1.4213   -3.6505   -3.5615 C.ar    1  UNL1       -0.0161
     11 C          -1.1081   -2.8474   -2.4566 C.ar    1  UNL1        0.1261
     12 O          -0.5941   -3.5477   -1.3975 O.3     1  UNL1       -0.4947
     13 C           0.5990   -3.0747   -0.7889 C.3     1  UNL1        0.0788
     14 O          -3.3942   -1.2256   -5.5363 O.3     1  UNL1       -0.4951
     15 C          -3.8648   -2.0263   -6.6167 C.3     1  UNL1        0.0788
     16 O          -1.9533   -1.0993   -0.0587 O.3     1  UNL1       -0.3815
     17 N          -1.3631    1.4450    0.1146 N.4     1  UNL1        0.2226
     18 H          -0.9425    1.4868   -3.2730 H       1  UNL1        0.0285
     19 H           0.3304    1.5956   -2.0482 H       1  UNL1        0.0285
     20 H          -0.9602    2.8066   -2.1069 H       1  UNL1        0.0285
     21 H          -2.6945   -0.0246   -3.5215 H       1  UNL1        0.0659
     22 H          -2.3777   -3.8157   -5.4655 H       1  UNL1        0.0655
     23 H          -1.1163   -4.6965   -3.5710 H       1  UNL1        0.0655
     24 H           1.1906   -2.4283   -1.4452 H       1  UNL1        0.0660
     25 H           0.3426   -2.5565    0.1383 H       1  UNL1        0.0660
     26 H           1.2135   -3.9381   -0.5153 H       1  UNL1        0.0660
     27 H          -3.0402   -2.2892   -7.2861 H       1  UNL1        0.0660
     28 H          -4.3859   -2.9214   -6.2615 H       1  UNL1        0.0660
     29 H          -4.5854   -1.4293   -7.1848 H       1  UNL1        0.0660
     30 H          -2.2493   -2.0138   -0.2621 H       1  UNL1        0.2105
     31 H          -0.3787    1.3960    0.4086 H       1  UNL1        0.1998
     32 H          -1.7040    2.4074    0.2422 H       1  UNL1        0.1998
     33 H          -1.8848    0.8243    0.7618 H       1  UNL1        0.1998
@<TRIPOS>UNITY_ATOM_ATTR
17 1
charge 1
@<TRIPOS>BOND
     1     1     2    1
     2     1    18    1
     3     1    19    1
     4     1    20    1
     5     2     3    1
     6     2    17    1
     7     4     6    1
     8     4    16    1
     9     6    11   ar
    10     6     7   ar
    11     7     8   ar
    12     7    21    1
    13     8     9   ar
    14     8    14    1
    15     9    10   ar
    16     9    22    1
    17    10    11   ar
    18    10    23    1
    19    11    12    1
    20    12    13    1
    21    13    24    1
    22    13    25    1
    23    13    26    1
    24    14    15    1
    25    15    27    1
    26    15    28    1
    27    15    29    1
    28    16    30    1
    29    17    31    1
    30    17    32    1
    31    17    33    1
    32     4     5    1
    33     4     2    1
