@<TRIPOS>MOLECULE
ZINC01530668
 59 60 0 0 0
SMALL
GASTEIGER

@<TRIPOS>ATOM
      1 C          -0.7782    5.9075    1.2828 C.3     1  UNL1       -0.0218
      2 C          -1.0992    4.6679    2.1287 C.3     1  UNL1       -0.0248
      3 C          -2.5542    4.7250    2.5944 C.3     1  UNL1       -0.0218
      4 N          -0.6813    3.2676    1.4766 N.4     1  UNL1        0.2447
      5 C          -0.8157    2.1795    2.5796 C.3     1  UNL1       -0.0408
      6 C          -1.6719    2.7587    0.2790 C.3     1  UNL1       -0.0283
      7 C          -1.5114    3.5797   -0.9990 C.3     1  UNL1        0.0096
      8 C          -2.2871    3.2509   -2.3368 C.3     1  UNL1        0.1012
      9 C          -3.7889    3.1380   -1.9505 C.ar    1  UNL1       -0.0280
     10 C          -4.3787    1.8862   -1.6964 C.ar    1  UNL1       -0.0573
     11 C          -5.7243    1.7696   -1.3443 C.ar    1  UNL1       -0.0615
     12 C          -6.5163    2.9116   -1.2392 C.ar    1  UNL1       -0.0617
     13 C          -5.9459    4.1576   -1.4501 C.ar    1  UNL1       -0.0615
     14 C          -4.5893    4.2777   -1.7584 C.ar    1  UNL1       -0.0573
     15 C          -1.8642    4.4054   -3.3310 C.ar    1  UNL1       -0.0280
     16 C          -2.7706    5.1327   -4.1153 C.ar    1  UNL1       -0.0573
     17 C          -2.3357    6.2284   -4.8762 C.ar    1  UNL1       -0.0615
     18 C          -0.9911    6.5797   -4.9112 C.ar    1  UNL1       -0.0617
     19 C          -0.0639    5.8004   -4.2440 C.ar    1  UNL1       -0.0615
     20 C          -0.4924    4.7123   -3.4851 C.ar    1  UNL1       -0.0573
     21 C          -1.8317    1.9362   -3.0394 C.2     1  UNL1        0.2256
     22 O          -1.0521    1.1370   -2.5143 O.2     1  UNL1       -0.2747
     23 N          -2.4034    1.6888   -4.2637 N.am    1  UNL1       -0.3283
     24 C           0.8412    3.3414    1.0256 C.3     1  UNL1       -0.0248
     25 C           1.8016    3.6790    2.1875 C.3     1  UNL1       -0.0218
     26 C           1.3370    2.1057    0.2693 C.3     1  UNL1       -0.0218
     27 H          -1.3896    5.9995    0.3880 H       1  UNL1        0.0284
     28 H           0.2734    5.9851    1.0013 H       1  UNL1        0.0284
     29 H          -0.9976    6.8112    1.8642 H       1  UNL1        0.0284
     30 H          -0.4847    4.7455    3.0316 H       1  UNL1        0.0846
     31 H          -3.2488    4.8636    1.7618 H       1  UNL1        0.0284
     32 H          -2.8611    3.8553    3.1768 H       1  UNL1        0.0284
     33 H          -2.6754    5.5911    3.2605 H       1  UNL1        0.0284
     34 H          -1.8736    2.0418    2.8103 H       1  UNL1        0.0778
     35 H          -0.3980    1.2438    2.2032 H       1  UNL1        0.0778
     36 H          -0.2885    2.5028    3.4809 H       1  UNL1        0.0778
     37 H          -1.4302    1.7027    0.1200 H       1  UNL1        0.0816
     38 H          -2.6818    2.8104    0.6941 H       1  UNL1        0.0816
     39 H          -1.8271    4.5890   -0.7493 H       1  UNL1        0.0333
     40 H          -0.4461    3.6121   -1.2128 H       1  UNL1        0.0333
     41 H          -3.8084    0.9585   -1.7688 H       1  UNL1        0.0621
     42 H          -6.1643    0.7840   -1.1679 H       1  UNL1        0.0618
     43 H          -7.5735    2.8191   -1.0045 H       1  UNL1        0.0618
     44 H          -6.5655    5.0505   -1.3830 H       1  UNL1        0.0618
     45 H          -4.1853    5.2808   -1.8800 H       1  UNL1        0.0621
     46 H          -3.8245    4.8835   -4.1599 H       1  UNL1        0.0621
     47 H          -3.0600    6.8121   -5.4390 H       1  UNL1        0.0618
     48 H          -0.6655    7.4460   -5.4872 H       1  UNL1        0.0618
     49 H           0.9987    6.0332   -4.3113 H       1  UNL1        0.0618
     50 H           0.2838    4.1042   -3.0243 H       1  UNL1        0.0621
     51 H          -3.0065    2.3642   -4.7257 H       1  UNL1        0.1450
     52 H          -2.1581    0.8607   -4.7938 H       1  UNL1        0.1450
     53 H           0.8790    4.1689    0.3147 H       1  UNL1        0.0846
     54 H           1.3429    3.7310    3.1757 H       1  UNL1        0.0284
     55 H           2.6205    2.9544    2.2644 H       1  UNL1        0.0284
     56 H           2.2691    4.6539    2.0091 H       1  UNL1        0.0284
     57 H           0.5868    1.6249   -0.3552 H       1  UNL1        0.0284
     58 H           2.1408    2.4199   -0.4102 H       1  UNL1        0.0284
     59 H           1.7605    1.3485    0.9356 H       1  UNL1        0.0284
@<TRIPOS>UNITY_ATOM_ATTR
4 1
charge 1
@<TRIPOS>BOND
     1     1     2    1
     2     1    27    1
     3     1    28    1
     4     1    29    1
     5     2     3    1
     6     2     4    1
     7     2    30    1
     8     3    31    1
     9     3    32    1
    10     3    33    1
    11     4     5    1
    12     4     6    1
    13     4    24    1
    14     5    34    1
    15     5    35    1
    16     5    36    1
    17     6     7    1
    18     6    37    1
    19     6    38    1
    20     7     8    1
    21     7    39    1
    22     7    40    1
    23     8     9    1
    24     8    15    1
    25     8    21    1
    26     9    14   ar
    27     9    10   ar
    28    10    11   ar
    29    10    41    1
    30    11    12   ar
    31    11    42    1
    32    12    13   ar
    33    12    43    1
    34    13    14   ar
    35    13    44    1
    36    14    45    1
    37    15    20   ar
    38    15    16   ar
    39    16    17   ar
    40    16    46    1
    41    17    18   ar
    42    17    47    1
    43    18    19   ar
    44    18    48    1
    45    19    20   ar
    46    19    49    1
    47    20    50    1
    48    21    22    2
    49    21    23   am
    50    23    51    1
    51    23    52    1
    52    24    25    1
    53    24    26    1
    54    24    53    1
    55    25    54    1
    56    25    55    1
    57    25    56    1
    58    26    57    1
    59    26    58    1
    60    26    59    1
