@<TRIPOS>MOLECULE
ZINC00607939
 48 50 0 0 0
SMALL
GASTEIGER

@<TRIPOS>ATOM
      1 C          -2.3840    1.3110    0.0977 C.3     1  UNL1       -0.0260
      2 C          -1.2244    0.3395    0.0788 C.2     1  UNL1        0.0157
      3 C          -1.2746   -0.9975    0.2943 C.2     1  UNL1        0.0652
      4 C           0.0097   -1.8472    0.1471 C.3     1  UNL1        0.0528
      5 H          -0.0608   -2.2930   -0.8582 H       1  UNL1        0.0452
      6 C           1.3131   -0.9923    0.1218 C.2     1  UNL1        0.0652
      7 C           1.2284    0.3539   -0.0396 C.2     1  UNL1        0.0157
      8 N          -0.0165    0.9447   -0.1859 N.pl3   1  UNL1       -0.3207
      9 C           2.3409    1.3748   -0.1118 C.3     1  UNL1       -0.0260
     10 C           2.6097   -1.7345    0.1697 C.2     1  UNL1        0.3378
     11 O           2.7273   -2.8961   -0.2101 O.2     1  UNL1       -0.2452
     12 O           3.6168   -0.9851    0.6748 O.3     1  UNL1       -0.4586
     13 C           4.9582   -1.5222    0.6468 C.3     1  UNL1        0.0978
     14 C           5.5348   -1.4960   -0.7689 C.3     1  UNL1       -0.0280
     15 C           5.8097   -0.6357    1.5541 C.3     1  UNL1       -0.0280
     16 C           0.0752   -3.0013    1.1372 C.ar    1  UNL1       -0.0043
     17 C           0.1037   -4.3578    0.6938 C.ar    1  UNL1       -0.0554
     18 C           0.1622   -5.4844    1.5575 C.ar    1  UNL1       -0.0592
     19 C           0.1876   -5.3706    2.9550 C.ar    1  UNL1       -0.0308
     20 C           0.1522   -4.0484    3.4295 C.ar    1  UNL1        0.1345
     21 C           0.1013   -2.8904    2.5441 C.ar    1  UNL1        0.1382
     22 N           0.0846   -1.7887    3.3027 N.ar    1  UNL1       -0.0486
     23 O           0.1066   -2.2300    4.6147 O.2     1  UNL1       -0.2416
     24 N           0.1544   -3.6099    4.6960 N.ar    1  UNL1       -0.0489
     25 C          -2.5500   -1.5985    0.7633 C.2     1  UNL1        0.3373
     26 O          -3.3365   -1.0326    1.5123 O.2     1  UNL1       -0.2452
     27 O          -2.7250   -2.8546    0.2783 O.3     1  UNL1       -0.4646
     28 C          -3.8949   -3.5066    0.7915 C.3     1  UNL1        0.0820
     29 H          -2.2831    1.9911    0.9500 H       1  UNL1        0.0290
     30 H          -2.3637    1.9193   -0.8168 H       1  UNL1        0.0290
     31 H          -3.3706    0.8502    0.1281 H       1  UNL1        0.0290
     32 H          -0.0279    1.9606   -0.2289 H       1  UNL1        0.1516
     33 H           2.2281    1.9779   -1.0200 H       1  UNL1        0.0290
     34 H           2.2613    2.0498    0.7504 H       1  UNL1        0.0290
     35 H           3.3564    0.9939   -0.1382 H       1  UNL1        0.0290
     36 H           4.9524   -2.5436    1.0445 H       1  UNL1        0.0728
     37 H           5.5756   -0.4735   -1.1610 H       1  UNL1        0.0265
     38 H           6.5491   -1.9095   -0.7833 H       1  UNL1        0.0265
     39 H           4.9209   -2.0748   -1.4647 H       1  UNL1        0.0265
     40 H           5.3858   -0.5932    2.5625 H       1  UNL1        0.0265
     41 H           6.8390   -1.0028    1.6206 H       1  UNL1        0.0265
     42 H           5.8360    0.3963    1.1833 H       1  UNL1        0.0265
     43 H           0.0929   -4.5565   -0.3809 H       1  UNL1        0.0621
     44 H           0.1914   -6.4802    1.1116 H       1  UNL1        0.0618
     45 H           0.2384   -6.2275    3.6150 H       1  UNL1        0.0640
     46 H          -3.7057   -3.8650    1.8094 H       1  UNL1        0.0661
     47 H          -4.7703   -2.8471    0.7809 H       1  UNL1        0.0661
     48 H          -4.1167   -4.3676    0.1558 H       1  UNL1        0.0661
@<TRIPOS>BOND
     1     1     2    1
     2     1    29    1
     3     1    30    1
     4     1    31    1
     5     2     8    1
     6     2     3    2
     7     3     4    1
     8     3    25    1
     9     4     6    1
    10     6     7    2
    11     6    10    1
    12     7     8    1
    13     7     9    1
    14     8    32    1
    15     9    33    1
    16     9    34    1
    17     9    35    1
    18    10    11    2
    19    10    12    1
    20    12    13    1
    21    13    14    1
    22    13    15    1
    23    13    36    1
    24    14    37    1
    25    14    38    1
    26    14    39    1
    27    15    40    1
    28    15    41    1
    29    15    42    1
    30    16    21   ar
    31    16    17   ar
    32    17    18   ar
    33    17    43    1
    34    18    19   ar
    35    18    44    1
    36    19    20   ar
    37    19    45    1
    38    20    24   ar
    39    20    21   ar
    40    21    22   ar
    41    22    23   ar
    42    23    24   ar
    43    25    26    2
    44    25    27    1
    45    27    28    1
    46    28    46    1
    47    28    47    1
    48    28    48    1
    49     4    16    1
    50     4     5    1
