@<TRIPOS>MOLECULE
ZINC01530625
 53 55 0 0 0
SMALL
GASTEIGER

@<TRIPOS>ATOM
      1 C           1.1312    7.6661    2.8994 C.3     1  UNL1       -0.0653
      2 C           1.1487    6.1362    2.8960 C.3     1  UNL1       -0.0559
      3 C           1.1435    5.6293    1.4524 C.3     1  UNL1       -0.0530
      4 C           1.1610    4.0994    1.4490 C.3     1  UNL1       -0.0491
      5 C           1.1558    3.5925    0.0054 C.3     1  UNL1       -0.0275
      6 C           1.1731    2.0856    0.0021 C.ar    1  UNL1       -0.0404
      7 C          -0.0167    1.3825    0.0096 C.ar    1  UNL1       -0.0165
      8 C           0.0021   -0.0041    0.0020 C.ar    1  UNL1        0.1243
      9 C           1.2101   -0.6850   -0.0134 C.ar    1  UNL1        0.0428
     10 C           2.4061    0.0193   -0.0126 C.ar    1  UNL1        0.1288
     11 C           2.3764    1.4113   -0.0090 C.ar    1  UNL1       -0.0162
     12 O           3.6146   -0.6005   -0.0010 O.3     1  UNL1       -0.4855
     13 C           3.6845   -2.0092   -0.2471 C.3     1  UNL1        0.1087
     14 C           2.5579   -2.6737    0.5379 C.3     1  UNL1        0.0091
     15 H           2.6234   -2.3795    1.5854 H       1  UNL1        0.0348
     16 C           1.2282   -2.1827   -0.0438 C.3     1  UNL1        0.0158
     17 H           1.1717   -2.5044   -1.0837 H       1  UNL1        0.0398
     18 C           0.0991   -2.8232    0.6943 C.2     1  UNL1       -0.0770
     19 C           0.2426   -3.9571    1.3166 C.2     1  UNL1       -0.0759
     20 C           1.5172   -4.7404    1.4011 C.3     1  UNL1       -0.0316
     21 C           2.5770   -4.1958    0.4360 C.3     1  UNL1       -0.0421
     22 C          -0.9695   -4.5278    2.0066 C.3     1  UNL1       -0.0438
     23 C           3.5073   -2.2839   -1.7418 C.3     1  UNL1       -0.0249
     24 C           5.0358   -2.5513    0.2230 C.3     1  UNL1       -0.0249
     25 O          -1.1666   -0.6976    0.0092 O.3     1  UNL1       -0.5063
     26 H           2.0130    8.0407    2.3796 H       1  UNL1        0.0230
     27 H           0.2332    8.0203    2.3932 H       1  UNL1        0.0230
     28 H           1.1349    8.0272    3.9278 H       1  UNL1        0.0230
     29 H           0.2669    5.7616    3.4158 H       1  UNL1        0.0263
     30 H           2.0467    5.7820    3.4022 H       1  UNL1        0.0263
     31 H           2.0253    6.0039    0.9326 H       1  UNL1        0.0265
     32 H           0.2455    5.9835    0.9462 H       1  UNL1        0.0265
     33 H           0.2792    3.7248    1.9688 H       1  UNL1        0.0268
     34 H           2.0590    3.7452    1.9552 H       1  UNL1        0.0268
     35 H           2.0376    3.9671   -0.5144 H       1  UNL1        0.0313
     36 H           0.2578    3.9467   -0.5008 H       1  UNL1        0.0313
     37 H          -0.9583    1.9114    0.0170 H       1  UNL1        0.0657
     38 H           3.3023    1.9672   -0.0154 H       1  UNL1        0.0657
     39 H          -0.8626   -2.3322    0.7121 H       1  UNL1        0.0578
     40 H           1.3121   -5.7820    1.1539 H       1  UNL1        0.0310
     41 H           1.9012   -4.6853    2.4197 H       1  UNL1        0.0310
     42 H           2.3403   -4.5010   -0.5833 H       1  UNL1        0.0272
     43 H           3.5606   -4.5727    0.7164 H       1  UNL1        0.0272
     44 H          -1.0093   -4.1621    3.0327 H       1  UNL1        0.0274
     45 H          -1.8695   -4.2183    1.4753 H       1  UNL1        0.0274
     46 H          -0.9063   -5.6160    2.0110 H       1  UNL1        0.0274
     47 H           4.2972   -1.7810   -2.2998 H       1  UNL1        0.0268
     48 H           3.5615   -3.3574   -1.9228 H       1  UNL1        0.0268
     49 H           2.5371   -1.9090   -2.0676 H       1  UNL1        0.0268
     50 H           5.1499   -2.3661    1.2911 H       1  UNL1        0.0268
     51 H           5.0831   -3.6236    0.0331 H       1  UNL1        0.0268
     52 H           5.8372   -2.0504   -0.3202 H       1  UNL1        0.0268
     53 H          -1.5131   -0.8936   -0.8720 H       1  UNL1        0.2921
@<TRIPOS>BOND
     1     1     2    1
     2     1    26    1
     3     1    27    1
     4     1    28    1
     5     2     3    1
     6     2    29    1
     7     2    30    1
     8     3     4    1
     9     3    31    1
    10     3    32    1
    11     4     5    1
    12     4    33    1
    13     4    34    1
    14     5     6    1
    15     5    35    1
    16     5    36    1
    17     6    11   ar
    18     6     7   ar
    19     7     8   ar
    20     7    37    1
    21     8     9   ar
    22     8    25    1
    23     9    16    1
    24     9    10   ar
    25    10    11   ar
    26    10    12    1
    27    11    38    1
    28    12    13    1
    29    13    14    1
    30    13    23    1
    31    13    24    1
    32    14    15    1
    33    14    21    1
    34    14    16    1
    35    16    17    1
    36    16    18    1
    37    18    19    2
    38    18    39    1
    39    19    20    1
    40    19    22    1
    41    20    21    1
    42    20    40    1
    43    20    41    1
    44    21    42    1
    45    21    43    1
    46    22    44    1
    47    22    45    1
    48    22    46    1
    49    23    47    1
    50    23    48    1
    51    23    49    1
    52    24    50    1
    53    24    51    1
    54    24    52    1
    55    25    53    1
