@<TRIPOS>MOLECULE
ZINC01850376
 46 48 0 0 0
SMALL
GASTEIGER

@<TRIPOS>ATOM
      1 C          -0.7371   -1.5687   -1.5090 C.3     1  UNL1       -0.0585
      2 C          -0.6104   -0.2842   -0.7197 C.3     1  UNL1       -0.0143
      3 C          -1.8828    0.3923   -0.2188 C.3     1  UNL1       -0.0011
      4 H          -1.9016    1.4831   -0.2593 H       1  UNL1        0.0357
      5 C          -0.8972   -0.1797    0.7792 C.3     1  UNL1        0.0689
      6 H          -0.3082    0.5641    1.3098 H       1  UNL1        0.0425
      7 C          -1.2843   -1.2794    1.7028 C.2     1  UNL1        0.3116
      8 O          -1.4230   -2.4450    1.3606 O.2     1  UNL1       -0.2505
      9 O          -1.4676   -0.7911    2.9564 O.3     1  UNL1       -0.4596
     10 C          -1.8521   -1.7468    3.9559 C.3     1  UNL1        0.1176
     11 C          -3.3539   -1.8268    4.0594 C.ar    1  UNL1       -0.0068
     12 C          -4.0216   -3.0446    3.8823 C.ar    1  UNL1       -0.0551
     13 C          -5.4137   -3.1071    3.9680 C.ar    1  UNL1       -0.0579
     14 C          -6.1523   -1.9456    4.1934 C.ar    1  UNL1       -0.0193
     15 C          -5.5023   -0.7207    4.3414 C.ar    1  UNL1        0.1288
     16 C          -4.1038   -0.6741    4.3331 C.ar    1  UNL1       -0.0129
     17 O          -6.3120    0.3741    4.5437 O.3     1  UNL1       -0.4560
     18 C          -5.9352    1.6061    4.0558 C.ar    1  UNL1        0.1284
     19 C          -6.3896    2.7111    4.7788 C.ar    1  UNL1       -0.0193
     20 C          -6.0500    4.0031    4.3744 C.ar    1  UNL1       -0.0583
     21 C          -5.2553    4.1928    3.2442 C.ar    1  UNL1       -0.0615
     22 C          -4.8333    3.0946    2.4963 C.ar    1  UNL1       -0.0583
     23 C          -5.1970    1.8042    2.8848 C.ar    1  UNL1       -0.0193
     24 C          -3.1981   -0.2368   -0.4447 C.2     1  UNL1       -0.0499
     25 C          -4.2887    0.2881   -1.0219 C.2     1  UNL1        0.1029
     26 CL         -5.7264   -0.6649   -1.1789 Cl      1  UNL1       -0.0708
     27 CL         -4.3417    1.8989   -1.6340 Cl      1  UNL1       -0.0708
     28 C           0.4742    0.6236   -1.2641 C.3     1  UNL1       -0.0585
     29 H          -1.2603   -2.3670   -0.9804 H       1  UNL1        0.0235
     30 H          -1.2817   -1.3776   -2.4402 H       1  UNL1        0.0235
     31 H           0.2504   -1.9561   -1.7810 H       1  UNL1        0.0235
     32 H          -1.3957   -2.7267    3.7700 H       1  UNL1        0.0749
     33 H          -1.4516   -1.3950    4.9138 H       1  UNL1        0.0749
     34 H          -3.4622   -3.9548    3.6734 H       1  UNL1        0.0621
     35 H          -5.9240   -4.0592    3.8464 H       1  UNL1        0.0619
     36 H          -7.2367   -1.9946    4.2451 H       1  UNL1        0.0654
     37 H          -3.5873    0.2660    4.5106 H       1  UNL1        0.0658
     38 H          -7.0071    2.5651    5.6613 H       1  UNL1        0.0654
     39 H          -6.4026    4.8600    4.9421 H       1  UNL1        0.0619
     40 H          -4.9753    5.1977    2.9389 H       1  UNL1        0.0618
     41 H          -4.2249    3.2417    1.6080 H       1  UNL1        0.0619
     42 H          -4.8857    0.9635    2.2720 H       1  UNL1        0.0654
     43 H          -3.2938   -1.2700   -0.1063 H       1  UNL1        0.0598
     44 H           0.1206    1.1428   -2.1608 H       1  UNL1        0.0235
     45 H           0.7822    1.3800   -0.5344 H       1  UNL1        0.0235
     46 H           1.3684    0.0495   -1.5302 H       1  UNL1        0.0235
@<TRIPOS>BOND
     1     1     2    1
     2     1    29    1
     3     1    30    1
     4     1    31    1
     5     2     5    1
     6     2     3    1
     7     2    28    1
     8     3     4    1
     9     3     5    1
    10     3    24    1
    11     7     8    2
    12     7     9    1
    13     9    10    1
    14    10    11    1
    15    10    32    1
    16    10    33    1
    17    11    16   ar
    18    11    12   ar
    19    12    13   ar
    20    12    34    1
    21    13    14   ar
    22    13    35    1
    23    14    15   ar
    24    14    36    1
    25    15    16   ar
    26    15    17    1
    27    16    37    1
    28    17    18    1
    29    18    23   ar
    30    18    19   ar
    31    19    20   ar
    32    19    38    1
    33    20    21   ar
    34    20    39    1
    35    21    22   ar
    36    21    40    1
    37    22    23   ar
    38    22    41    1
    39    23    42    1
    40    24    25    2
    41    24    43    1
    42    25    26    1
    43    25    27    1
    44    28    44    1
    45    28    45    1
    46    28    46    1
    47     5     7    1
    48     5     6    1
