@<TRIPOS>MOLECULE
ZINC03794601
 46 48 0 0 0
SMALL
GASTEIGER

@<TRIPOS>ATOM
      1 C          -2.8887   -5.3985    0.1734 C.3     1  UNL1       -0.0433
      2 N          -3.1702   -3.9984   -0.3041 N.4     1  UNL1        0.2309
      3 C          -4.6331   -3.8295   -0.6396 C.3     1  UNL1       -0.0433
      4 C          -2.6402   -2.9157    0.6207 C.3     1  UNL1       -0.0323
      5 C          -1.1011   -2.8701    0.6626 C.3     1  UNL1       -0.0093
      6 C          -0.4706   -2.5807   -0.7121 C.3     1  UNL1       -0.0105
      7 C           1.0691   -2.7727   -0.8650 C.3     1  UNL1        0.1202
      8 C           1.9081   -1.8930    0.0188 C.ar    1  UNL1       -0.0060
      9 C           2.1801   -0.5315   -0.0486 C.ar    1  UNL1       -0.0540
     10 C           2.9396    0.0591    0.9710 C.ar    1  UNL1       -0.0440
     11 C           3.4136   -0.7038    2.0514 C.ar    1  UNL1        0.0521
     12 C           3.1913   -2.0841    2.0765 C.ar    1  UNL1       -0.0386
     13 C           2.4529   -2.6553    1.0434 C.ar    1  UNL1       -0.0144
     14 C           2.1273   -4.0838    0.8394 C.3     1  UNL1        0.0747
     15 O           1.3266   -4.1234   -0.3659 O.3     1  UNL1       -0.3595
     16 C           4.1045   -0.0646    3.1395 C.1     1  UNL1        0.0992
     17 N           4.6280    0.4497    4.0345 N.1     1  UNL1       -0.1909
     18 C           1.4052   -2.6906   -2.3660 C.ar    1  UNL1       -0.0113
     19 C           2.0848   -3.7279   -3.0301 C.ar    1  UNL1       -0.0528
     20 C           2.2857   -3.6867   -4.4151 C.ar    1  UNL1       -0.0261
     21 C           1.8164   -2.6072   -5.1511 C.ar    1  UNL1        0.1234
     22 C           1.1615   -1.5571   -4.5278 C.ar    1  UNL1       -0.0261
     23 C           0.9638   -1.5951   -3.1452 C.ar    1  UNL1       -0.0528
     24 F           1.9885   -2.5815   -6.4782 F       1  UNL1       -0.2055
     25 H          -3.4481   -5.5710    1.0970 H       1  UNL1        0.0777
     26 H          -1.8161   -5.5090    0.3410 H       1  UNL1        0.0777
     27 H          -3.2062   -6.0892   -0.6123 H       1  UNL1        0.0777
     28 H          -5.2349   -4.3908    0.0798 H       1  UNL1        0.0777
     29 H          -4.8895   -2.7679   -0.6140 H       1  UNL1        0.0777
     30 H          -4.7777   -4.2189   -1.6513 H       1  UNL1        0.0777
     31 H          -3.0197   -1.9589    0.2445 H       1  UNL1        0.0814
     32 H          -3.0635   -3.0993    1.6135 H       1  UNL1        0.0814
     33 H          -0.8052   -2.0738    1.3567 H       1  UNL1        0.0318
     34 H          -0.7222   -3.8017    1.0900 H       1  UNL1        0.0318
     35 H          -0.9203   -3.2691   -1.4354 H       1  UNL1        0.0301
     36 H          -0.7745   -1.5700   -1.0096 H       1  UNL1        0.0301
     37 H           1.8318    0.0811   -0.8734 H       1  UNL1        0.0622
     38 H           3.1596    1.1260    0.9210 H       1  UNL1        0.0630
     39 H           3.5835   -2.6971    2.8839 H       1  UNL1        0.0634
     40 H           3.0202   -4.6951    0.6856 H       1  UNL1        0.0610
     41 H           1.5316   -4.4851    1.6645 H       1  UNL1        0.0610
     42 H           2.4509   -4.5941   -2.4819 H       1  UNL1        0.0622
     43 H           2.7987   -4.4959   -4.9270 H       1  UNL1        0.0646
     44 H           0.8044   -0.7207   -5.1212 H       1  UNL1        0.0646
     45 H           0.4417   -0.7564   -2.6911 H       1  UNL1        0.0622
     46 H          -2.6917   -3.8988   -1.2052 H       1  UNL1        0.2028
@<TRIPOS>UNITY_ATOM_ATTR
2 1
charge 1
@<TRIPOS>BOND
     1     1     2    1
     2     1    25    1
     3     1    26    1
     4     1    27    1
     5     2     3    1
     6     2     4    1
     7     2    46    1
     8     3    28    1
     9     3    29    1
    10     3    30    1
    11     4     5    1
    12     4    31    1
    13     4    32    1
    14     5     6    1
    15     5    33    1
    16     5    34    1
    17     6    35    1
    18     6    36    1
    19     7     6    1
    20     7    15    1
    21     7     8    1
    22     7    18    1
    23     8    13   ar
    24     8     9   ar
    25     9    10   ar
    26     9    37    1
    27    10    11   ar
    28    10    38    1
    29    11    12   ar
    30    11    16    1
    31    12    13   ar
    32    12    39    1
    33    13    14    1
    34    14    15    1
    35    14    40    1
    36    14    41    1
    37    16    17    3
    38    18    23   ar
    39    18    19   ar
    40    19    20   ar
    41    19    42    1
    42    20    21   ar
    43    20    43    1
    44    21    22   ar
    45    21    24    1
    46    22    23   ar
    47    22    44    1
    48    23    45    1
