@<TRIPOS>MOLECULE
ZINC03803377
 56 58 0 0 0
SMALL
GASTEIGER

@<TRIPOS>ATOM
      1 C           3.8687   -0.1088   -5.5653 C.3     1  UNL1       -0.0643
      2 C           2.9947    0.4962   -4.4640 C.3     1  UNL1       -0.0395
      3 C           1.4497    0.3335   -4.6019 C.3     1  UNL1        0.0797
      4 C           1.1281   -1.2011   -4.5962 C.3     1  UNL1       -0.0395
      5 C          -0.3304   -1.6511   -4.4927 C.3     1  UNL1       -0.0643
      6 C           0.7462    0.9963   -3.3841 C.3     1  UNL1        0.0401
      7 C           0.7673    2.5108   -3.2314 C.2     1  UNL1        0.2183
      8 O           1.5253    3.2510   -3.8615 O.2     1  UNL1       -0.2754
      9 N          -0.0378    3.1281   -2.3014 N.am    1  UNL1       -0.2855
     10 C          -0.7670    2.6831   -1.1787 C.ar    1  UNL1        0.0339
     11 C          -1.3773    3.6606   -0.3844 C.ar    1  UNL1       -0.0404
     12 C          -1.9775    3.3218    0.8347 C.ar    1  UNL1       -0.0595
     13 C          -1.9335    2.0030    1.3015 C.ar    1  UNL1       -0.0545
     14 C          -1.3277    1.0105    0.5284 C.ar    1  UNL1       -0.0232
     15 C          -0.8241    1.3637   -0.7366 C.ar    1  UNL1       -0.0333
     16 C          -1.0247   -0.3686    0.9682 C.2     1  UNL1       -0.0520
     17 C          -1.1424   -0.8844    2.2013 C.2     1  UNL1       -0.0290
     18 C          -0.5625   -2.1579    2.5083 C.ar    1  UNL1        0.1014
     19 N           0.2323   -2.8954    1.7416 N.ar    1  UNL1       -0.2443
     20 C           0.6675   -4.0241    2.4173 C.ar    1  UNL1        0.0522
     21 C           0.1944   -4.1466    3.7077 C.ar    1  UNL1       -0.0008
     22 S          -0.8183   -2.8260    4.0891 S.2     1  UNL1       -0.0759
     23 C           1.5971   -5.0795    1.8183 C.3     1  UNL1        0.0019
     24 C           1.3494   -5.4328    0.3222 C.3     1  UNL1       -0.0447
     25 C           2.8779   -5.5672    0.1752 C.3     1  UNL1       -0.0519
     26 C           2.9805   -4.5466    1.3264 C.3     1  UNL1       -0.0447
     27 C           0.8172    1.0104   -5.8560 C.2     1  UNL1        0.3625
     28 O           1.6147    1.4323   -6.7354 O.co2   1  UNL1       -0.2457
     29 O          -0.4478    1.0432   -5.8684 O.co2   1  UNL1       -0.2457
     30 H           3.7001   -1.1812   -5.6903 H       1  UNL1        0.0230
     31 H           4.9253    0.0257   -5.3085 H       1  UNL1        0.0230
     32 H           3.7217    0.3775   -6.5319 H       1  UNL1        0.0230
     33 H           3.3108    0.0336   -3.5195 H       1  UNL1        0.0273
     34 H           3.2606    1.5563   -4.3810 H       1  UNL1        0.0273
     35 H           1.5396   -1.6663   -5.4988 H       1  UNL1        0.0273
     36 H           1.6518   -1.6579   -3.7445 H       1  UNL1        0.0273
     37 H          -0.9072   -1.3706   -5.3772 H       1  UNL1        0.0230
     38 H          -0.3712   -2.7436   -4.4178 H       1  UNL1        0.0230
     39 H          -0.8314   -1.2629   -3.6022 H       1  UNL1        0.0230
     40 H          -0.3164    0.7396   -3.4054 H       1  UNL1        0.0369
     41 H           1.2062    0.5774   -2.4820 H       1  UNL1        0.0369
     42 H           0.0446    4.1312   -2.4121 H       1  UNL1        0.1548
     43 H          -1.3721    4.7039   -0.6931 H       1  UNL1        0.0636
     44 H          -2.4456    4.0979    1.4363 H       1  UNL1        0.0618
     45 H          -2.3539    1.7820    2.2780 H       1  UNL1        0.0623
     46 H          -0.4219    0.5598   -1.3309 H       1  UNL1        0.0642
     47 H          -0.5379   -0.9852    0.2100 H       1  UNL1        0.0624
     48 H          -1.6032   -0.3199    3.0036 H       1  UNL1        0.0644
     49 H           0.3985   -4.9275    4.4212 H       1  UNL1        0.0712
     50 H           1.7161   -5.9592    2.4656 H       1  UNL1        0.0364
     51 H           0.7858   -6.3533    0.1463 H       1  UNL1        0.0272
     52 H           0.9225   -4.6325   -0.2927 H       1  UNL1        0.0272
     53 H           3.2995   -5.2567   -0.7839 H       1  UNL1        0.0266
     54 H           3.2630   -6.5633    0.4266 H       1  UNL1        0.0266
     55 H           3.0005   -3.5046    0.9884 H       1  UNL1        0.0272
     56 H           3.8197   -4.7121    2.0097 H       1  UNL1        0.0272
@<TRIPOS>BOND
     1     1     2    1
     2     1    30    1
     3     1    31    1
     4     1    32    1
     5     2     3    1
     6     2    33    1
     7     2    34    1
     8     3     4    1
     9     3     6    1
    10     3    27    1
    11     4     5    1
    12     4    35    1
    13     4    36    1
    14     5    37    1
    15     5    38    1
    16     5    39    1
    17     6     7    1
    18     6    40    1
    19     6    41    1
    20     7     8    2
    21     7     9   am
    22     9    10    1
    23     9    42    1
    24    10    15   ar
    25    10    11   ar
    26    11    12   ar
    27    11    43    1
    28    12    13   ar
    29    12    44    1
    30    13    14   ar
    31    13    45    1
    32    14    15   ar
    33    14    16    1
    34    15    46    1
    35    16    17    2
    36    16    47    1
    37    17    18    1
    38    17    48    1
    39    18    22   ar
    40    18    19   ar
    41    19    20   ar
    42    20    21   ar
    43    20    23    1
    44    21    22   ar
    45    21    49    1
    46    23    26    1
    47    23    24    1
    48    23    50    1
    49    24    25    1
    50    24    51    1
    51    24    52    1
    52    25    26    1
    53    25    53    1
    54    25    54    1
    55    26    55    1
    56    26    56    1
    57    27    28   ar
    58    27    29   ar
