@<TRIPOS>MOLECULE
ZINC03831584
 51 55 0 0 0
SMALL
GASTEIGER

@<TRIPOS>ATOM
      1 C           3.5521    9.6299    1.4868 C.ar    1  UNL1       -0.0617
      2 C           3.3236    8.5014    2.2600 C.ar    1  UNL1       -0.0615
      3 C           3.0162    7.2859    1.6440 C.ar    1  UNL1       -0.0571
      4 C           2.9237    7.2030    0.2488 C.ar    1  UNL1       -0.0300
      5 C           3.1963    8.3446   -0.5196 C.ar    1  UNL1       -0.0571
      6 C           3.5049    9.5555    0.0966 C.ar    1  UNL1       -0.0615
      7 C           2.5376    5.9108   -0.4238 C.3     1  UNL1        0.0416
      8 N           1.3463    5.3128    0.1341 N.am    1  UNL1       -0.2755
      9 C           0.0869    5.9770    0.2867 C.3     1  UNL1        0.0557
     10 H          -0.0282    6.1593    1.3675 H       1  UNL1        0.0528
     11 C          -0.3694    7.2464   -0.4474 C.3     1  UNL1        0.0059
     12 S          -2.1827    7.2265   -0.0246 S.3     1  UNL1       -0.2015
     13 C          -3.0496    7.5387   -1.6169 C.3     1  UNL1       -0.0146
     14 C          -3.7458    6.2070   -2.0516 C.3     1  UNL1       -0.0437
     15 C          -3.5391    5.1199   -0.9402 C.3     1  UNL1       -0.0394
     16 C          -2.1354    5.4464   -0.5226 C.3     1  UNL1        0.0171
     17 H          -1.7788    5.5926   -1.5557 H       1  UNL1        0.0423
     18 C          -0.8098    4.8249   -0.1634 C.3     1  UNL1        0.0582
     19 H          -0.4533    4.5195   -1.1728 H       1  UNL1        0.0530
     20 N          -0.2803    3.6927    0.5348 N.am    1  UNL1       -0.2753
     21 C           1.1685    3.9225    0.3681 C.2     1  UNL1        0.3060
     22 O           2.0354    3.0678    0.4090 O.2     1  UNL1       -0.2524
     23 C          -0.5751    3.4254    1.9239 C.3     1  UNL1        0.0416
     24 C          -1.7377    2.5349    2.2711 C.ar    1  UNL1       -0.0300
     25 C          -2.4302    2.8164    3.4613 C.ar    1  UNL1       -0.0571
     26 C          -3.1540    1.8209    4.1121 C.ar    1  UNL1       -0.0615
     27 C          -3.2260    0.5458    3.5592 C.ar    1  UNL1       -0.0617
     28 C          -2.6375    0.2874    2.3203 C.ar    1  UNL1       -0.0615
     29 C          -1.9005    1.2809    1.6697 C.ar    1  UNL1       -0.0571
     30 H           3.7958   10.5775    1.9555 H       1  UNL1        0.0618
     31 H           3.3790    8.5584    3.3438 H       1  UNL1        0.0618
     32 H           2.8338    6.4077    2.2613 H       1  UNL1        0.0621
     33 H           3.1609    8.2985   -1.6052 H       1  UNL1        0.0621
     34 H           3.7000   10.4320   -0.4921 H       1  UNL1        0.0618
     35 H           3.3669    5.1990   -0.3804 H       1  UNL1        0.0514
     36 H           2.3080    6.0860   -1.4827 H       1  UNL1        0.0514
     37 H           0.0718    8.1575   -0.0370 H       1  UNL1        0.0387
     38 H          -0.2143    7.1972   -1.5268 H       1  UNL1        0.0387
     39 H          -2.3367    7.8950   -2.3675 H       1  UNL1        0.0369
     40 H          -3.7985    8.3146   -1.4404 H       1  UNL1        0.0369
     41 H          -3.2482    5.8590   -2.9732 H       1  UNL1        0.0273
     42 H          -4.7931    6.3517   -2.3247 H       1  UNL1        0.0273
     43 H          -3.6520    4.1097   -1.3392 H       1  UNL1        0.0276
     44 H          -4.2721    5.2782   -0.1404 H       1  UNL1        0.0276
     45 H          -0.6358    4.3753    2.4631 H       1  UNL1        0.0514
     46 H           0.2960    2.9060    2.3519 H       1  UNL1        0.0514
     47 H          -2.3217    3.7867    3.9421 H       1  UNL1        0.0621
     48 H          -3.6039    2.0261    5.0798 H       1  UNL1        0.0618
     49 H          -3.7191   -0.2530    4.1066 H       1  UNL1        0.0618
     50 H          -2.6960   -0.7110    1.8941 H       1  UNL1        0.0618
     51 H          -1.3716    1.0378    0.7501 H       1  UNL1        0.0621
@<TRIPOS>BOND
     1     1     6   ar
     2     1     2   ar
     3     1    30    1
     4     2     3   ar
     5     2    31    1
     6     3     4   ar
     7     3    32    1
     8     4     5   ar
     9     4     7    1
    10     5     6   ar
    11     5    33    1
    12     6    34    1
    13     7     8    1
    14     7    35    1
    15     7    36    1
    16     8    21   am
    17     8     9    1
    18     9    10    1
    19     9    18    1
    20     9    11    1
    21    11    37    1
    22    11    38    1
    23    12    11    1
    24    12    16    1
    25    12    13    1
    26    13    14    1
    27    13    39    1
    28    13    40    1
    29    14    15    1
    30    14    41    1
    31    14    42    1
    32    15    16    1
    33    15    43    1
    34    15    44    1
    35    16    17    1
    36    16    18    1
    37    18    19    1
    38    18    20    1
    39    20    21   am
    40    20    23    1
    41    21    22    2
    42    23    24    1
    43    23    45    1
    44    23    46    1
    45    24    29   ar
    46    24    25   ar
    47    25    26   ar
    48    25    47    1
    49    26    27   ar
    50    26    48    1
    51    27    28   ar
    52    27    49    1
    53    28    29   ar
    54    28    50    1
    55    29    51    1
