@<TRIPOS>MOLECULE
ZINC01530929
 37 37 0 0 0
SMALL
GASTEIGER

@<TRIPOS>ATOM
      1 C           0.8681    3.6650   -0.3305 C.3     1  UNL1       -0.0543
      2 C           1.5068    2.3230   -0.6570 C.3     1  UNL1        0.0063
      3 C           2.5993    2.4465   -1.6260 C.1     1  UNL1       -0.1022
      4 C           3.2996    2.5177   -2.5960 C.1     1  UNL1       -0.0976
      5 C           3.8303    2.5776   -3.9846 C.3     1  UNL1        0.0405
      6 H           4.3279    1.6127   -4.1826 H       1  UNL1        0.0445
      7 C           4.9114    3.6562   -4.0917 C.3     1  UNL1       -0.0500
      8 C           2.6456    2.7374   -5.0084 C.3     1  UNL1        0.1401
      9 C           1.9020    4.0374   -4.7560 C.2     1  UNL1        0.2369
     10 O           1.2496    4.2816   -3.7434 O.2     1  UNL1       -0.2742
     11 N           1.9879    5.0035   -5.7060 N.am    1  UNL1       -0.2388
     12 C           2.7074    4.9673   -6.8551 C.2     1  UNL1        0.3146
     13 O           2.7691    5.9766   -7.5544 O.2     1  UNL1       -0.2518
     14 N           3.3263    3.7772   -7.1660 N.am    1  UNL1       -0.2279
     15 C           3.2421    2.6228   -6.4034 C.2     1  UNL1        0.2393
     16 O           3.6914    1.5436   -6.8019 O.2     1  UNL1       -0.2740
     17 C           4.0444    3.7396   -8.4266 C.3     1  UNL1        0.0124
     18 C           1.6405    1.5542   -4.8248 C.3     1  UNL1       -0.0114
     19 C           0.4541    1.5680   -5.7529 C.2     1  UNL1       -0.0896
     20 C          -0.7212    2.1185   -5.4214 C.2     1  UNL1       -0.1026
     21 H           1.5926    4.3522    0.1165 H       1  UNL1        0.0239
     22 H           0.0425    3.5291    0.3769 H       1  UNL1        0.0239
     23 H           0.4577    4.1427   -1.2254 H       1  UNL1        0.0239
     24 H           1.8556    1.8424    0.2627 H       1  UNL1        0.0395
     25 H           0.7327    1.6721   -1.0836 H       1  UNL1        0.0395
     26 H           5.3528    3.6832   -5.0938 H       1  UNL1        0.0242
     27 H           4.5239    4.6523   -3.8582 H       1  UNL1        0.0242
     28 H           5.7294    3.4514   -3.3897 H       1  UNL1        0.0242
     29 H           1.5086    5.8686   -5.5048 H       1  UNL1        0.1591
     30 H           3.4089    4.1459   -9.2242 H       1  UNL1        0.0434
     31 H           4.9305    4.3760   -8.3368 H       1  UNL1        0.0434
     32 H           4.3585    2.7293   -8.7049 H       1  UNL1        0.0434
     33 H           2.1581    0.5930   -4.9546 H       1  UNL1        0.0322
     34 H           1.2493    1.5285   -3.8009 H       1  UNL1        0.0322
     35 H           0.5604    1.0586   -6.7086 H       1  UNL1        0.0567
     36 H          -1.5700    2.0837   -6.0944 H       1  UNL1        0.0532
     37 H          -0.8636    2.6175   -4.4638 H       1  UNL1        0.0532
@<TRIPOS>BOND
     1     1     2    1
     2     1    21    1
     3     1    22    1
     4     1    23    1
     5     2     3    1
     6     2    24    1
     7     2    25    1
     8     3     4    3
     9     5     7    1
    10     7    26    1
    11     7    27    1
    12     7    28    1
    13     8    15    1
    14     8     9    1
    15     9    10    2
    16     9    11   am
    17    11    12   am
    18    11    29    1
    19    12    13    2
    20    12    14   am
    21    14    15   am
    22    14    17    1
    23    15    16    2
    24    17    30    1
    25    17    31    1
    26    17    32    1
    27    18    19    1
    28    18    33    1
    29    18    34    1
    30    19    20    2
    31    19    35    1
    32    20    36    1
    33    20    37    1
    34     5     6    1
    35     5     4    1
    36     8    18    1
    37     8     5    1
