@<TRIPOS>MOLECULE
ZINC00599985
 14 14 0 0 0
SMALL
GASTEIGER

@<TRIPOS>ATOM
      1 C           1.3493   -0.3890   -0.2041 C.2     1  UNL1       -0.0413
      2 C           0.2577   -1.3394   -0.1862 C.3     1  UNL1        0.0623
      3 N          -1.0188   -0.8672   -0.0579 N.pl3   1  UNL1       -0.3411
      4 C          -1.2722    0.4820    0.0013 C.2     1  UNL1       -0.0084
      5 C          -0.2820    1.3912   -0.0272 C.2     1  UNL1       -0.0278
      6 C           1.1088    0.9389   -0.1266 C.2     1  UNL1        0.0236
      7 N           2.0972    1.8986   -0.1349 N.pl3   1  UNL1       -0.3581
      8 H           2.3551   -0.7814   -0.2908 H       1  UNL1        0.0609
      9 H           0.4005   -2.4062   -0.2992 H       1  UNL1        0.0564
     10 H          -2.3196    0.7592    0.0616 H       1  UNL1        0.0779
     11 H          -0.4952    2.4524    0.0038 H       1  UNL1        0.0648
     12 H           3.0070    1.5335    0.1268 H       1  UNL1        0.1423
     13 H           1.8500    2.7256    0.4011 H       1  UNL1        0.1423
     14 H          -1.7965   -1.5132   -0.1284 H       1  UNL1        0.1462
@<TRIPOS>BOND
     1     1     6    2
     2     1     2    1
     3     1     8    1
     4     2     3    1
     5     2     9    1
     6     3     4    1
     7     3    14    1
     8     4     5    2
     9     4    10    1
    10     5     6    1
    11     5    11    1
    12     6     7    1
    13     7    12    1
    14     7    13    1
