@<TRIPOS>MOLECULE
ZINC00057624
 24 24 0 0 0
SMALL
GASTEIGER

@<TRIPOS>ATOM
      1 C          -4.8226   -2.0492    1.9489 C.ar    1  UNL1       -0.0523
      2 C          -5.5252   -1.7026    3.1072 C.ar    1  UNL1       -0.0162
      3 C          -5.5721   -0.3754    3.5067 C.ar    1  UNL1        0.1582
      4 C          -4.9178    0.6099    2.7791 C.ar    1  UNL1        0.1586
      5 C          -4.2057    0.2766    1.6328 C.ar    1  UNL1       -0.0107
      6 C          -4.1482   -1.0687    1.1995 C.ar    1  UNL1       -0.0104
      7 C          -3.3983   -1.3924   -0.0672 C.3     1  UNL1        0.1197
      8 H          -2.5522   -0.7005   -0.1581 H       1  UNL1        0.0698
      9 C          -4.2887   -1.2821   -1.3180 C.3     1  UNL1       -0.0045
     10 N          -3.4371   -1.5568   -2.5172 N.4     1  UNL1        0.2206
     11 O          -2.8231   -2.7047   -0.0932 O.3     1  UNL1       -0.3819
     12 O          -5.0070    1.8958    3.2290 O.3     1  UNL1       -0.5033
     13 O          -6.2665   -0.0466    4.6325 O.3     1  UNL1       -0.5033
     14 H          -4.8140   -3.0974    1.6524 H       1  UNL1        0.0622
     15 H          -6.0315   -2.4598    3.6981 H       1  UNL1        0.0655
     16 H          -3.6977    1.0561    1.0720 H       1  UNL1        0.0659
     17 H          -5.0631   -2.0562   -1.3240 H       1  UNL1        0.0842
     18 H          -4.7417   -0.2956   -1.4498 H       1  UNL1        0.0842
     19 H          -2.8724   -2.3996   -2.3121 H       1  UNL1        0.1995
     20 H          -3.9952   -1.7448   -3.3587 H       1  UNL1        0.1995
     21 H          -2.6670   -2.9871    0.8305 H       1  UNL1        0.2105
     22 H          -4.4444    2.4755    2.6894 H       1  UNL1        0.2923
     23 H          -6.1674    0.9226    4.7273 H       1  UNL1        0.2923
     24 H          -2.7822   -0.7931   -2.7181 H       1  UNL1        0.1995
@<TRIPOS>UNITY_ATOM_ATTR
10 1
charge 1
@<TRIPOS>BOND
     1     1     6   ar
     2     1     2   ar
     3     1    14    1
     4     2     3   ar
     5     2    15    1
     6     3     4   ar
     7     3    13    1
     8     4     5   ar
     9     4    12    1
    10     5     6   ar
    11     5    16    1
    12     7     9    1
    13     7    11    1
    14     9    10    1
    15     9    17    1
    16     9    18    1
    17    10    19    1
    18    10    20    1
    19    10    24    1
    20    11    21    1
    21    12    22    1
    22    13    23    1
    23     7     8    1
    24     7     6    1
