@<TRIPOS>MOLECULE
ZINC01530799
 38 37 0 0 0
SMALL
GASTEIGER

@<TRIPOS>ATOM
      1 C           4.9231    7.2022   -0.6683 C.3     1  UNL1       -0.0306
      2 C           4.1491    6.4901    0.4274 C.3     1  UNL1        0.0896
      3 O           3.8392    5.1611   -0.0090 O.3     1  UNL1       -0.4649
      4 C           2.7291    5.0270   -0.7817 C.2     1  UNL1        0.3087
      5 O           1.8712    5.8840   -0.9568 O.2     1  UNL1       -0.2508
      6 C           2.7249    3.6654   -1.4282 C.3     1  UNL1        0.0674
      7 C           1.9712    3.7116   -2.7538 C.3     1  UNL1        0.1206
      8 H           0.9616    4.0864   -2.5370 H       1  UNL1        0.0537
      9 C           2.5910    4.7004   -3.7263 C.2     1  UNL1        0.3212
     10 O           3.7687    5.0271   -3.7404 O.2     1  UNL1       -0.2496
     11 O           1.6239    5.2152   -4.5395 O.3     1  UNL1       -0.4641
     12 C           1.9219    6.4602   -5.1868 C.3     1  UNL1        0.0897
     13 C           1.4418    7.5883   -4.2901 C.3     1  UNL1       -0.0306
     14 S           1.7213    2.0866   -3.5201 S.3     1  UNL1       -0.0586
     15 P           3.5153    1.0807   -3.9686 P.3     1  UNL1        0.2294
     16 S           5.1871    1.4474   -3.0356 S.2     1  UNL1        0.0032
     17 O           3.0737   -0.4799   -3.7907 O.3     1  UNL1       -0.3267
     18 C           3.9824   -1.5199   -4.0932 C.3     1  UNL1        0.0441
     19 O           3.6861    1.0930   -5.5848 O.3     1  UNL1       -0.3267
     20 C           3.8701    2.3226   -6.2556 C.3     1  UNL1        0.0441
     21 H           5.7912    6.6068   -0.9727 H       1  UNL1        0.0262
     22 H           5.2658    8.1842   -0.3338 H       1  UNL1        0.0262
     23 H           4.3030    7.3328   -1.5615 H       1  UNL1        0.0262
     24 H           4.7744    6.3986    1.3219 H       1  UNL1        0.0694
     25 H           3.2476    7.0438    0.7123 H       1  UNL1        0.0694
     26 H           3.7679    3.3919   -1.5873 H       1  UNL1        0.0394
     27 H           2.2700    2.9555   -0.7277 H       1  UNL1        0.0394
     28 H           2.9866    6.5629   -5.4246 H       1  UNL1        0.0694
     29 H           1.3692    6.4776   -6.1321 H       1  UNL1        0.0694
     30 H           1.9988    7.5968   -3.3476 H       1  UNL1        0.0262
     31 H           1.5592    8.5602   -4.7763 H       1  UNL1        0.0262
     32 H           0.3866    7.4476   -4.0305 H       1  UNL1        0.0262
     33 H           4.6151   -1.2689   -4.9477 H       1  UNL1        0.0528
     34 H           4.6010   -1.7315   -3.2171 H       1  UNL1        0.0528
     35 H           3.4102   -2.4202   -4.3346 H       1  UNL1        0.0528
     36 H           2.8987    2.6968   -6.5878 H       1  UNL1        0.0528
     37 H           4.3528    3.0661   -5.6183 H       1  UNL1        0.0528
     38 H           4.4999    2.1525   -7.1328 H       1  UNL1        0.0528
@<TRIPOS>BOND
     1     1     2    1
     2     1    21    1
     3     1    22    1
     4     1    23    1
     5     2     3    1
     6     2    24    1
     7     2    25    1
     8     3     4    1
     9     4     5    2
    10     4     6    1
    11     6     7    1
    12     6    26    1
    13     6    27    1
    14     7     8    1
    15     7     9    1
    16     7    14    1
    17     9    10    2
    18     9    11    1
    19    11    12    1
    20    12    13    1
    21    12    28    1
    22    12    29    1
    23    13    30    1
    24    13    31    1
    25    13    32    1
    26    14    15    1
    27    15    16    2
    28    15    17    1
    29    15    19    1
    30    17    18    1
    31    18    33    1
    32    18    34    1
    33    18    35    1
    34    19    20    1
    35    20    36    1
    36    20    37    1
    37    20    38    1
