@<TRIPOS>MOLECULE
ZINC00002276
 41 41 0 0 0
SMALL
GASTEIGER

@<TRIPOS>ATOM
      1 C          -3.5404    2.4287   -3.7700 C.3     1  UNL1       -0.0396
      2 C          -2.0508    2.4962   -3.5816 C.ar    1  UNL1       -0.0469
      3 C          -1.2138    2.2405   -4.6742 C.ar    1  UNL1       -0.0572
      4 C           0.1694    2.3010   -4.5233 C.ar    1  UNL1       -0.0396
      5 C           0.7222    2.6245   -3.2796 C.ar    1  UNL1        0.0825
      6 C          -0.0990    2.8906   -2.1635 C.ar    1  UNL1        0.1391
      7 C          -1.4852    2.8091   -2.3317 C.ar    1  UNL1       -0.0156
      8 O           0.5353    3.2250   -0.9896 O.3     1  UNL1       -0.4877
      9 C          -0.2527    3.5007    0.1672 C.3     1  UNL1        0.1205
     10 C           0.6846    3.9147    1.3214 C.3     1  UNL1        0.1285
     11 H           1.3834    3.0992    1.5398 H       1  UNL1        0.0681
     12 C           1.4966    5.1785    0.9768 C.3     1  UNL1       -0.0033
     13 C           3.0534    6.8915    2.2073 C.3     1  UNL1       -0.0203
     14 C           2.1298    8.0726    1.9039 C.3     1  UNL1       -0.0193
     15 C           3.6648    7.0728    3.6065 C.3     1  UNL1       -0.0193
     16 C           4.1766    6.7701    1.1731 C.3     1  UNL1       -0.0193
     17 O          -0.0273    4.2031    2.5359 O.3     1  UNL1       -0.3831
     18 CL          2.4472    2.6912   -3.1521 Cl      1  UNL1       -0.0798
     19 H          -3.8532    3.1157   -4.5643 H       1  UNL1        0.0278
     20 H          -3.8446    1.4110   -4.0367 H       1  UNL1        0.0278
     21 H          -4.0738    2.7136   -2.8574 H       1  UNL1        0.0278
     22 H          -1.6373    1.9923   -5.6506 H       1  UNL1        0.0621
     23 H           0.8106    2.0967   -5.3790 H       1  UNL1        0.0633
     24 H          -2.1649    2.9816   -1.4987 H       1  UNL1        0.0657
     25 H          -0.9680    4.3073   -0.0337 H       1  UNL1        0.0725
     26 H          -0.8105    2.6042    0.4633 H       1  UNL1        0.0725
     27 H           2.2258    4.9938    0.1867 H       1  UNL1        0.0841
     28 H           0.8270    6.0041    0.7247 H       1  UNL1        0.0841
     29 H           1.2658    8.0873    2.5781 H       1  UNL1        0.0287
     30 H           2.6614    9.0233    2.0289 H       1  UNL1        0.0287
     31 H           1.7601    8.0475    0.8740 H       1  UNL1        0.0287
     32 H           4.3430    6.2493    3.8614 H       1  UNL1        0.0287
     33 H           4.2456    7.9992    3.6591 H       1  UNL1        0.0287
     34 H           2.8933    7.1243    4.3821 H       1  UNL1        0.0287
     35 H           4.8719    5.9663    1.4348 H       1  UNL1        0.0287
     36 H           3.7927    6.5722    0.1683 H       1  UNL1        0.0287
     37 H           4.7540    7.7017    1.1186 H       1  UNL1        0.0287
     38 H          -0.3940    3.3635    2.8798 H       1  UNL1        0.2102
     39 N           2.2532    5.6065    2.2280 N.4     1  UNL1        0.2327
     40 H           1.5310    5.6494    2.9699 H       1  UNL1        0.2020
     41 H           2.8671    4.8330    2.5137 H       1  UNL1        0.2020
@<TRIPOS>UNITY_ATOM_ATTR
39 1
charge 1
@<TRIPOS>BOND
     1     1     2    1
     2     1    19    1
     3     1    20    1
     4     1    21    1
     5     2     7   ar
     6     2     3   ar
     7     3     4   ar
     8     3    22    1
     9     4     5   ar
    10     4    23    1
    11     5     6   ar
    12     5    18    1
    13     6     7   ar
    14     6     8    1
    15     7    24    1
    16     8     9    1
    17     9    10    1
    18     9    25    1
    19     9    26    1
    20    10    11    1
    21    10    12    1
    22    10    17    1
    23    12    27    1
    24    12    28    1
    25    12    39    1
    26    13    14    1
    27    13    15    1
    28    13    16    1
    29    13    39    1
    30    14    29    1
    31    14    30    1
    32    14    31    1
    33    15    32    1
    34    15    33    1
    35    15    34    1
    36    16    35    1
    37    16    36    1
    38    16    37    1
    39    17    38    1
    40    39    40    1
    41    39    41    1
