@<TRIPOS>MOLECULE
ZINC00608204
 49 51 0 0 0
SMALL
GASTEIGER

@<TRIPOS>ATOM
      1 C          -4.3814    4.3658    0.9001 C.ar    1  UNL1       -0.0617
      2 C          -5.5365    3.6480    1.1565 C.ar    1  UNL1       -0.0610
      3 C          -5.5307    2.2494    1.0695 C.ar    1  UNL1       -0.0496
      4 C          -4.3558    1.5439    0.7335 C.ar    1  UNL1        0.0367
      5 C          -3.1715    2.2785    0.5953 C.ar    1  UNL1       -0.0496
      6 C          -3.1879    3.6801    0.6466 C.ar    1  UNL1       -0.0610
      7 C          -4.4562    0.0668    0.4317 C.2     1  UNL1        0.2447
      8 O          -5.5470   -0.4987    0.5107 O.2     1  UNL1       -0.2702
      9 N          -3.3226   -0.5992    0.0006 N.am    1  UNL1       -0.2997
     10 C          -3.2807   -2.0093   -0.4572 C.3     1  UNL1        0.1039
     11 H          -3.6687   -2.6124    0.3719 H       1  UNL1        0.0598
     12 C          -4.1198   -2.3037   -1.7157 C.3     1  UNL1       -0.0006
     13 C          -3.7705   -1.5359   -2.9714 C.ar    1  UNL1       -0.0449
     14 C          -4.5012   -0.3986   -3.3395 C.ar    1  UNL1       -0.0551
     15 C          -4.2430    0.2440   -4.5511 C.ar    1  UNL1       -0.0199
     16 C          -3.2417   -0.2264   -5.3907 C.ar    1  UNL1        0.1169
     17 C          -2.4838   -1.3327   -5.0315 C.ar    1  UNL1       -0.0199
     18 C          -2.7502   -1.9837   -3.8258 C.ar    1  UNL1       -0.0551
     19 O          -3.0307    0.4181   -6.5723 O.3     1  UNL1       -0.5068
     20 C          -1.8040   -2.4391   -0.6952 C.2     1  UNL1        0.2379
     21 O          -0.9030   -1.5923   -0.6721 O.2     1  UNL1       -0.2734
     22 N          -1.6044   -3.8066   -0.8821 N.am    1  UNL1       -0.2840
     23 C          -0.3081   -4.3586   -1.0569 C.ar    1  UNL1        0.0335
     24 C           0.5864   -3.8984   -2.0274 C.ar    1  UNL1       -0.0397
     25 C           1.8954   -4.4034   -2.0731 C.ar    1  UNL1       -0.0459
     26 C           2.3436   -5.3366   -1.1251 C.ar    1  UNL1        0.0633
     27 C           1.4082   -5.8432   -0.2122 C.ar    1  UNL1       -0.0459
     28 C           0.0837   -5.3942   -0.2065 C.ar    1  UNL1       -0.0397
     29 C           3.8013   -5.7600   -1.0547 C.2     1  UNL1        0.3865
     30 O           4.1243   -6.5615   -0.1206 O.co2   1  UNL1       -0.2406
     31 O           4.5912   -5.2734   -1.9242 O.co2   1  UNL1       -0.2406
     32 H          -4.3898    5.4533    0.8934 H       1  UNL1        0.0618
     33 H          -6.4558    4.1776    1.4049 H       1  UNL1        0.0618
     34 H          -6.4597    1.7108    1.2428 H       1  UNL1        0.0625
     35 H          -2.2174    1.7956    0.4153 H       1  UNL1        0.0625
     36 H          -2.2758    4.2380    0.4514 H       1  UNL1        0.0618
     37 H          -2.4169   -0.1455    0.0008 H       1  UNL1        0.1498
     38 H          -4.0373   -3.3712   -1.9628 H       1  UNL1        0.0336
     39 H          -5.1848   -2.1533   -1.4963 H       1  UNL1        0.0336
     40 H          -5.2865   -0.0149   -2.6910 H       1  UNL1        0.0621
     41 H          -4.8344    1.1066   -4.8435 H       1  UNL1        0.0654
     42 H          -1.7020   -1.7176   -5.6803 H       1  UNL1        0.0654
     43 H          -2.1656   -2.8649   -3.5728 H       1  UNL1        0.0621
     44 H          -2.2476    0.0240   -6.9922 H       1  UNL1        0.2921
     45 H          -2.2518   -4.4033   -0.3817 H       1  UNL1        0.1549
     46 H           0.2902   -3.1521   -2.7577 H       1  UNL1        0.0636
     47 H           2.5971   -4.0429   -2.8266 H       1  UNL1        0.0626
     48 H           1.7386   -6.5694    0.5309 H       1  UNL1        0.0626
     49 H          -0.5952   -5.8060    0.5322 H       1  UNL1        0.0636
@<TRIPOS>BOND
     1     1     6   ar
     2     1     2   ar
     3     1    32    1
     4     2     3   ar
     5     2    33    1
     6     3     4   ar
     7     3    34    1
     8     4     5   ar
     9     4     7    1
    10     5     6   ar
    11     5    35    1
    12     6    36    1
    13     7     8    2
    14     7     9   am
    15     9    10    1
    16     9    37    1
    17    10    11    1
    18    10    12    1
    19    10    20    1
    20    12    13    1
    21    12    38    1
    22    12    39    1
    23    13    18   ar
    24    13    14   ar
    25    14    15   ar
    26    14    40    1
    27    15    16   ar
    28    15    41    1
    29    16    17   ar
    30    16    19    1
    31    17    18   ar
    32    17    42    1
    33    18    43    1
    34    19    44    1
    35    20    21    2
    36    20    22   am
    37    22    23    1
    38    22    45    1
    39    23    28   ar
    40    23    24   ar
    41    24    25   ar
    42    24    46    1
    43    25    26   ar
    44    25    47    1
    45    26    27   ar
    46    26    29    1
    47    27    28   ar
    48    27    48    1
    49    28    49    1
    50    29    30   ar
    51    29    31   ar
