@<TRIPOS>MOLECULE
ZINC03860469
 26 26 0 0 0
SMALL
GASTEIGER

@<TRIPOS>ATOM
      1 C           1.0016   -0.1952    0.0475 C.3     1  UNL1        0.0730
      2 C           0.5111   -0.8669   -1.2447 C.3     1  UNL1        0.1132
      3 H          -0.5488   -0.6131   -1.3753 H       1  UNL1        0.0647
      4 C           0.6605   -2.3990   -1.1392 C.3     1  UNL1        0.1147
      5 H           1.6808   -2.6697   -0.8473 H       1  UNL1        0.0648
      6 C           0.3230   -3.0455   -2.4762 C.3     1  UNL1        0.1304
      7 H          -0.7478   -2.9238   -2.6868 H       1  UNL1        0.0679
      8 C           1.1762   -2.4398   -3.5888 C.3     1  UNL1        0.0565
      9 H           2.2284   -2.7149   -3.4560 H       1  UNL1        0.0927
     10 C           0.9892   -0.9117   -3.6098 C.3     1  UNL1        0.2030
     11 H           1.6733   -0.4726   -4.3430 H       1  UNL1        0.0968
     12 O           1.2660   -0.3317   -2.3447 O.3     1  UNL1       -0.3383
     13 O          -0.3361   -0.6188   -4.0252 O.3     1  UNL1       -0.3627
     14 N           0.7265   -3.0785   -4.8681 N.4     1  UNL1        0.2263
     15 O           0.5576   -4.4611   -2.4499 O.3     1  UNL1       -0.3834
     16 O          -0.2271   -2.9768   -0.1764 O.3     1  UNL1       -0.3864
     17 O           0.3761   -0.7907    1.1794 O.3     1  UNL1       -0.3924
     18 H           0.7821    0.8783    0.0312 H       1  UNL1        0.0584
     19 H           2.0871   -0.3083    0.1471 H       1  UNL1        0.0584
     20 H          -0.3773    0.3561   -4.1035 H       1  UNL1        0.2127
     21 H           0.6571   -4.0961   -4.7085 H       1  UNL1        0.2000
     22 H          -0.2183   -2.7355   -5.1094 H       1  UNL1        0.2000
     23 H           0.1885   -4.7648   -1.5889 H       1  UNL1        0.2102
     24 H          -0.2225   -2.3803    0.6097 H       1  UNL1        0.2100
     25 H           0.8294   -0.4464    1.9738 H       1  UNL1        0.2095
     26 H           1.3530   -2.9050   -5.6628 H       1  UNL1        0.2000
@<TRIPOS>UNITY_ATOM_ATTR
14 1
charge 1
@<TRIPOS>BOND
     1     1     2    1
     2     1    17    1
     3     1    18    1
     4     1    19    1
     5     2     3    1
     6     2    12    1
     7     2     4    1
     8     4     5    1
     9     4     6    1
    10     4    16    1
    11     6     7    1
    12     6     8    1
    13     6    15    1
    14     8     9    1
    15     8    10    1
    16     8    14    1
    17    10    11    1
    18    10    12    1
    19    10    13    1
    20    13    20    1
    21    14    21    1
    22    14    22    1
    23    14    26    1
    24    15    23    1
    25    16    24    1
    26    17    25    1
