@<TRIPOS>MOLECULE
ZINC00896731
 28 29 0 0 0
SMALL
GASTEIGER

@<TRIPOS>ATOM
      1 C           1.0305    2.4605   -0.9642 C.3     1  UNL1       -0.0394
      2 C           0.4911    1.5521    0.1400 C.3     1  UNL1        0.0826
      3 H           0.8289    0.5425   -0.1110 H       1  UNL1        0.0578
      4 C          -1.0194    1.5352    0.2106 C.ar    1  UNL1        0.0135
      5 C          -1.9145    2.5700    0.0253 C.ar    1  UNL1       -0.0419
      6 C          -3.2832    2.1848    0.2036 C.ar    1  UNL1       -0.0105
      7 C          -4.4709    2.9511    0.1196 C.ar    1  UNL1       -0.0535
      8 C          -5.7135    2.3560    0.3512 C.ar    1  UNL1       -0.0611
      9 C          -5.7962    1.0065    0.6614 C.ar    1  UNL1       -0.0607
     10 C          -4.6425    0.2244    0.7461 C.ar    1  UNL1       -0.0474
     11 C          -3.3896    0.8291    0.5170 C.ar    1  UNL1        0.0196
     12 S          -1.8418    0.0776    0.5783 S.2     1  UNL1       -0.0912
     13 N           1.0441    1.9095    1.4548 N.am    1  UNL1       -0.1601
     14 C           1.9191    1.2540    2.2663 C.2     1  UNL1        0.3230
     15 O           2.2813    1.7250    3.3463 O.2     1  UNL1       -0.2507
     16 N           2.4176    0.0716    1.8474 N.am    1  UNL1       -0.3116
     17 O           0.6633    3.2025    1.9119 O.3     1  UNL1       -0.2907
     18 H           0.6661    2.1344   -1.9450 H       1  UNL1        0.0252
     19 H           2.1256    2.4350   -0.9836 H       1  UNL1        0.0252
     20 H           0.7315    3.5055   -0.8276 H       1  UNL1        0.0252
     21 H          -1.6056    3.5818   -0.2090 H       1  UNL1        0.0632
     22 H          -4.4145    4.0102   -0.1185 H       1  UNL1        0.0624
     23 H          -6.6173    2.9592    0.2913 H       1  UNL1        0.0618
     24 H          -6.7681    0.5521    0.8430 H       1  UNL1        0.0618
     25 H          -4.7102   -0.8314    0.9929 H       1  UNL1        0.0629
     26 H           2.0818   -0.4403    1.0494 H       1  UNL1        0.1465
     27 H           3.0208   -0.4163    2.4962 H       1  UNL1        0.1465
     28 H           1.0898    3.2334    2.7963 H       1  UNL1        0.2417
@<TRIPOS>BOND
     1     1    18    1
     2     1    19    1
     3     1    20    1
     4     2     4    1
     5     2    13    1
     6     4    12   ar
     7     4     5   ar
     8     5     6   ar
     9     5    21    1
    10     6    11   ar
    11     6     7   ar
    12     7     8   ar
    13     7    22    1
    14     8     9   ar
    15     8    23    1
    16     9    10   ar
    17     9    24    1
    18    10    11   ar
    19    10    25    1
    20    11    12   ar
    21    13    14   am
    22    13    17    1
    23    14    15    2
    24    14    16   am
    25    16    26    1
    26    16    27    1
    27    17    28    1
    28     2     3    1
    29     2     1    1
