@<TRIPOS>MOLECULE
ZINC00000301
 31 32 0 0 0
SMALL
GASTEIGER

@<TRIPOS>ATOM
      1 C           1.1357    1.7319    2.2327 C.3     1  UNL1       -0.0480
      2 C           0.5280    1.0371    1.0174 C.3     1  UNL1        0.0829
      3 H           0.9066    0.0044    1.0254 H       1  UNL1        0.0461
      4 C          -0.9888    1.0025    1.1094 C.ar    1  UNL1       -0.0303
      5 C          -1.7533    2.1772    1.1428 C.ar    1  UNL1       -0.0576
      6 C          -3.1451    2.1194    1.2432 C.ar    1  UNL1       -0.0580
      7 C          -3.7930    0.8843    1.2739 C.ar    1  UNL1       -0.0193
      8 C          -3.0492   -0.2934    1.1969 C.ar    1  UNL1        0.1287
      9 C          -1.6519   -0.2317    1.1654 C.ar    1  UNL1       -0.0154
     10 O          -3.7645   -1.4729    1.1960 O.3     1  UNL1       -0.4560
     11 C          -3.2872   -2.5337    0.4560 C.ar    1  UNL1        0.1284
     12 C          -2.6462   -2.3945   -0.7784 C.ar    1  UNL1       -0.0193
     13 C          -2.1365   -3.5163   -1.4312 C.ar    1  UNL1       -0.0583
     14 C          -2.3166   -4.7850   -0.8822 C.ar    1  UNL1       -0.0615
     15 C          -3.0161   -4.9335    0.3162 C.ar    1  UNL1       -0.0583
     16 C          -3.5040   -3.8085    0.9845 C.ar    1  UNL1       -0.0193
     17 C           0.9851    1.6549   -0.3245 C.2     1  UNL1        0.3630
     18 O           1.2543    2.8912   -0.3106 O.co2   1  UNL1       -0.2457
     19 O           1.0706    0.8369   -1.2863 O.co2   1  UNL1       -0.2457
     20 H           0.7890    1.2654    3.1619 H       1  UNL1        0.0241
     21 H           0.8757    2.7950    2.2807 H       1  UNL1        0.0241
     22 H           2.2285    1.6623    2.2075 H       1  UNL1        0.0241
     23 H          -1.2564    3.1447    1.0779 H       1  UNL1        0.0621
     24 H          -3.7191    3.0404    1.2781 H       1  UNL1        0.0619
     25 H          -4.8756    0.8410    1.3351 H       1  UNL1        0.0654
     26 H          -1.0622   -1.1445    1.1452 H       1  UNL1        0.0657
     27 H          -2.4957   -1.4125   -1.2229 H       1  UNL1        0.0654
     28 H          -1.5826   -3.3882   -2.3582 H       1  UNL1        0.0619
     29 H          -1.9056   -5.6543   -1.3875 H       1  UNL1        0.0618
     30 H          -3.1661   -5.9230    0.7379 H       1  UNL1        0.0619
     31 H          -4.0335   -3.9218    1.9254 H       1  UNL1        0.0654
@<TRIPOS>BOND
     1     1     2    1
     2     1    20    1
     3     1    21    1
     4     1    22    1
     5     2     3    1
     6     2     4    1
     7     2    17    1
     8     4     9   ar
     9     4     5   ar
    10     5     6   ar
    11     5    23    1
    12     6     7   ar
    13     6    24    1
    14     7     8   ar
    15     7    25    1
    16     8     9   ar
    17     8    10    1
    18     9    26    1
    19    10    11    1
    20    11    16   ar
    21    11    12   ar
    22    12    13   ar
    23    12    27    1
    24    13    14   ar
    25    13    28    1
    26    14    15   ar
    27    14    29    1
    28    15    16   ar
    29    15    30    1
    30    16    31    1
    31    17    18   ar
    32    17    19   ar
