@<TRIPOS>MOLECULE
ZINC00538273
 46 49 0 0 0
SMALL
GASTEIGER

@<TRIPOS>ATOM
      1 C           3.1088    0.4730   -1.3404 C.3     1  UNL1       -0.0410
      2 C           2.7585    0.1927    0.1242 C.3     1  UNL1        0.0658
      3 H           3.6119   -0.3100    0.5988 H       1  UNL1        0.0559
      4 C           2.4726    1.4833    0.8956 C.3     1  UNL1        0.1101
      5 O           1.3731    2.2114    0.3236 O.3     1  UNL1       -0.4859
      6 C           0.2450    1.4143    0.1702 C.ar    1  UNL1        0.1684
      7 C           0.3325    0.0038    0.1676 C.ar    1  UNL1        0.0974
      8 N           1.5733   -0.6614    0.2069 N.ar    1  UNL1       -0.3367
      9 C           1.6101   -2.0396    0.1803 C.ar    1  UNL1        0.0235
     10 C           0.5477   -2.8579    0.1272 C.ar    1  UNL1        0.1263
     11 C          -0.7927   -2.2306    0.0636 C.ar    1  UNL1        0.2037
     12 O          -1.8514   -2.8330   -0.0721 O.2     1  UNL1       -0.2863
     13 C          -0.8529   -0.7426    0.1006 C.ar    1  UNL1        0.0524
     14 C          -2.0916   -0.1031    0.0204 C.ar    1  UNL1       -0.0116
     15 C          -2.1479    1.2839   -0.0418 C.ar    1  UNL1        0.1487
     16 C          -0.9912    2.0856    0.0034 C.ar    1  UNL1        0.1100
     17 N          -1.0120    3.4951   -0.1109 N.pl3   1  UNL1       -0.3147
     18 C          -0.4485    3.9761   -1.3908 C.3     1  UNL1        0.0527
     19 C          -0.1044    5.4767   -1.2681 C.3     1  UNL1       -0.0160
     20 N          -1.3151    6.2817   -0.7788 N.4     1  UNL1        0.2353
     21 C          -1.8944    5.6843    0.5089 C.3     1  UNL1       -0.0160
     22 C          -2.2330    4.1971    0.3065 C.3     1  UNL1        0.0527
     23 C          -0.9901    7.7334   -0.6049 C.3     1  UNL1       -0.0430
     24 F          -3.3576    1.8495   -0.1868 F       1  UNL1       -0.2034
     25 C           0.7881   -4.3648    0.1212 C.2     1  UNL1        0.3916
     26 O           1.9251   -4.7215   -0.3213 O.co2   1  UNL1       -0.2404
     27 O          -0.1185   -5.0917    0.6076 O.co2   1  UNL1       -0.2404
     28 H           3.3237   -0.4575   -1.8758 H       1  UNL1        0.0251
     29 H           2.2912    0.9710   -1.8745 H       1  UNL1        0.0251
     30 H           3.9915    1.1170   -1.4082 H       1  UNL1        0.0251
     31 H           3.3477    2.1412    0.8699 H       1  UNL1        0.0717
     32 H           2.2538    1.2787    1.9528 H       1  UNL1        0.0717
     33 H           2.6165   -2.4580    0.2052 H       1  UNL1        0.0819
     34 H          -3.0099   -0.6836   -0.0281 H       1  UNL1        0.0654
     35 H          -1.1803    3.8294   -2.1955 H       1  UNL1        0.0516
     36 H           0.4629    3.4418   -1.6807 H       1  UNL1        0.0516
     37 H           0.1823    5.8914   -2.2418 H       1  UNL1        0.0830
     38 H           0.6993    5.6378   -0.5438 H       1  UNL1        0.0830
     39 H          -1.1378    5.8165    1.2903 H       1  UNL1        0.0830
     40 H          -2.7949    6.2587    0.7558 H       1  UNL1        0.0830
     41 H          -3.0139    4.1088   -0.4605 H       1  UNL1        0.0516
     42 H          -2.6144    3.7971    1.2511 H       1  UNL1        0.0516
     43 H          -0.6464    8.1229   -1.5666 H       1  UNL1        0.0778
     44 H          -1.9021    8.2506   -0.2961 H       1  UNL1        0.0778
     45 H          -0.2123    7.8297    0.1572 H       1  UNL1        0.0778
     46 H          -2.0424    6.1972   -1.4992 H       1  UNL1        0.2032
@<TRIPOS>UNITY_ATOM_ATTR
20 1
charge 1
@<TRIPOS>BOND
     1     1     2    1
     2     1    28    1
     3     1    29    1
     4     1    30    1
     5     2     3    1
     6     2     8    1
     7     2     4    1
     8     4     5    1
     9     4    31    1
    10     4    32    1
    11     5     6    1
    12     6    16   ar
    13     6     7   ar
    14     7    13   ar
    15     7     8   ar
    16     8     9   ar
    17     9    10   ar
    18     9    33    1
    19    10    11   ar
    20    10    25    1
    21    11    12    2
    22    11    13   ar
    23    13    14   ar
    24    14    15   ar
    25    14    34    1
    26    15    16   ar
    27    15    24    1
    28    16    17    1
    29    17    22    1
    30    17    18    1
    31    18    19    1
    32    18    35    1
    33    18    36    1
    34    19    20    1
    35    19    37    1
    36    19    38    1
    37    20    21    1
    38    20    23    1
    39    20    46    1
    40    21    22    1
    41    21    39    1
    42    21    40    1
    43    22    41    1
    44    22    42    1
    45    23    43    1
    46    23    44    1
    47    23    45    1
    48    25    26   ar
    49    25    27   ar
