@<TRIPOS>MOLECULE
ZINC01532614
 25 24 0 0 0
SMALL
GASTEIGER

@<TRIPOS>ATOM
      1 C           0.8760   -0.0918    0.1073 C.3     1  UNL1       -0.0317
      2 C           0.4301   -0.0805   -1.3597 C.3     1  UNL1        0.0023
      3 CA         -1.0853   -0.1151   -1.5756 C.3     1  UNL1        0.0786
      4 HA         -1.5433   -1.0350   -1.2021 H       1  UNL1        0.0970
      5 C          -1.7585    1.1453   -0.9568 C.2     1  UNL1        0.4026
      6 O          -1.9349    2.0325   -1.8451 O.co2   1  UNL1       -0.2400
      7 OXT        -2.1112    1.0544    0.2428 O.co2   1  UNL1       -0.2400
      8 N          -1.3366   -0.1181   -3.0739 N.4     1  UNL1        0.2289
      9 C           0.4077   -1.3310    0.8738 C.3     1  UNL1        0.0132
     10 N           0.7768   -1.2642    2.2673 N.am    1  UNL1       -0.2996
     11 C           1.9645   -1.7416    2.7289 C.2     1  UNL1        0.2971
     12 O           2.7955   -2.3398    2.0638 O.2     1  UNL1       -0.2531
     13 N           2.1500   -1.4841    4.0469 N.am    1  UNL1       -0.3134
     14 H           0.5267    0.8142    0.6158 H       1  UNL1        0.0282
     15 H           1.9722   -0.0408    0.1388 H       1  UNL1        0.0282
     16 H           0.8481    0.8203   -1.8286 H       1  UNL1        0.0326
     17 H           0.8889   -0.9354   -1.8733 H       1  UNL1        0.0326
     18 H1         -1.0874    0.8441   -3.3692 H       1  UNL1        0.2002
     19 H2         -0.8644   -0.8391   -3.6149 H       1  UNL1        0.2002
     20 H          -0.6814   -1.4213    0.8502 H       1  UNL1        0.0462
     21 H           0.8359   -2.2330    0.4226 H       1  UNL1        0.0462
     22 H           0.2777   -0.6038    2.8465 H       1  UNL1        0.1502
     23 H           1.3442   -1.3670    4.6403 H       1  UNL1        0.1465
     24 H           2.9483   -1.9484    4.4586 H       1  UNL1        0.1465
     25 H3         -2.3542   -0.1248   -3.2125 H       1  UNL1        0.2002
@<TRIPOS>UNITY_ATOM_ATTR
8 1
charge 1
@<TRIPOS>BOND
     1     1     2    1
     2     1     9    1
     3     1    14    1
     4     1    15    1
     5     2     3    1
     6     2    16    1
     7     2    17    1
     8     3     4    1
     9     3     5    1
    10     3     8    1
    11     5     6   ar
    12     5     7   ar
    13     8    18    1
    14     8    19    1
    15     8    25    1
    16     9    10    1
    17     9    20    1
    18     9    21    1
    19    10    11   am
    20    10    22    1
    21    11    12    2
    22    11    13   am
    23    13    23    1
    24    13    24    1
