@<TRIPOS>MOLECULE
ZINC03799072
 68 69 0 0 0
SMALL
GASTEIGER

@<TRIPOS>ATOM
      1 C          -5.7741   -2.5191   -6.1687 C.ar    1  UNL1       -0.0617
      2 C          -6.8365   -1.6917   -6.5265 C.ar    1  UNL1       -0.0615
      3 C          -6.6093   -0.3517   -6.8648 C.ar    1  UNL1       -0.0586
      4 C          -5.3193    0.1874   -6.8150 C.ar    1  UNL1       -0.0474
      5 C          -4.2583   -0.6726   -6.4826 C.ar    1  UNL1       -0.0586
      6 C          -4.4790   -2.0119   -6.1655 C.ar    1  UNL1       -0.0615
      7 C          -4.9666    1.6271   -7.1164 C.3     1  UNL1       -0.0276
      8 C          -6.0587    2.6685   -7.3694 C.3     1  UNL1       -0.0470
      9 C          -7.0435    2.9735   -6.2362 C.3     1  UNL1       -0.0292
     10 C          -6.4482    3.4984   -4.9308 C.3     1  UNL1        0.0477
     11 O          -5.7471    2.4858   -4.1982 O.3     1  UNL1       -0.3798
     12 C          -5.4177    2.9601   -2.8890 C.3     1  UNL1        0.0477
     13 C          -4.7165    1.8903   -2.0507 C.3     1  UNL1       -0.0295
     14 C          -3.3617    1.4429   -2.6005 C.3     1  UNL1       -0.0508
     15 C          -2.5960    0.5044   -1.6427 C.3     1  UNL1       -0.0482
     16 C          -3.2980   -0.8331   -1.3670 C.3     1  UNL1       -0.0126
     17 C          -2.4728   -1.7202   -0.4281 C.3     1  UNL1       -0.0336
     18 N          -3.2327   -2.9924   -0.1683 N.4     1  UNL1        0.2291
     19 C          -2.5052   -4.0833    0.5944 C.3     1  UNL1       -0.0028
     20 C          -2.1951   -3.7171    2.0684 C.3     1  UNL1        0.1197
     21 H          -3.1218   -3.3885    2.5538 H       1  UNL1        0.0698
     22 C          -1.5865   -4.8709    2.8398 C.ar    1  UNL1       -0.0135
     23 C          -2.2072   -5.3511    4.0026 C.ar    1  UNL1       -0.0525
     24 C          -1.6248   -6.3848    4.7390 C.ar    1  UNL1       -0.0195
     25 C          -0.4192   -6.9395    4.3273 C.ar    1  UNL1        0.1222
     26 C           0.2192   -6.4981    3.1641 C.ar    1  UNL1        0.0195
     27 C          -0.3692   -5.4541    2.4343 C.ar    1  UNL1       -0.0471
     28 C           1.5026   -7.1229    2.6970 C.3     1  UNL1        0.0727
     29 O           2.4623   -7.0409    3.7410 O.3     1  UNL1       -0.3903
     30 O           0.1226   -7.9082    5.1219 O.3     1  UNL1       -0.5064
     31 O          -1.2880   -2.6150    2.1139 O.3     1  UNL1       -0.3819
     32 H          -5.9569   -3.5599   -5.9170 H       1  UNL1        0.0618
     33 H          -7.8481   -2.0896   -6.5514 H       1  UNL1        0.0618
     34 H          -7.4615    0.2495   -7.1672 H       1  UNL1        0.0620
     35 H          -3.2366   -0.2917   -6.4933 H       1  UNL1        0.0620
     36 H          -3.6392   -2.6576   -5.9286 H       1  UNL1        0.0618
     37 H          -4.3201    1.9946   -6.3109 H       1  UNL1        0.0313
     38 H          -4.3422    1.6054   -8.0211 H       1  UNL1        0.0313
     39 H          -5.5547    3.6092   -7.6339 H       1  UNL1        0.0269
     40 H          -6.6323    2.3818   -8.2605 H       1  UNL1        0.0269
     41 H          -7.7264    3.7447   -6.6159 H       1  UNL1        0.0287
     42 H          -7.6610    2.0967   -6.0226 H       1  UNL1        0.0287
     43 H          -5.7781    4.3429   -5.1251 H       1  UNL1        0.0560
     44 H          -7.2838    3.8578   -4.3165 H       1  UNL1        0.0560
     45 H          -4.7926    3.8559   -2.9680 H       1  UNL1        0.0560
     46 H          -6.3479    3.2301   -2.3741 H       1  UNL1        0.0560
     47 H          -4.5782    2.2866   -1.0373 H       1  UNL1        0.0287
     48 H          -5.3761    1.0198   -1.9793 H       1  UNL1        0.0287
     49 H          -3.4865    0.9495   -3.5690 H       1  UNL1        0.0266
     50 H          -2.7319    2.3267   -2.7718 H       1  UNL1        0.0266
     51 H          -1.6065    0.3021   -2.0738 H       1  UNL1        0.0267
     52 H          -2.4200    1.0240   -0.6922 H       1  UNL1        0.0267
     53 H          -4.2757   -0.6510   -0.9083 H       1  UNL1        0.0317
     54 H          -3.4751   -1.3550   -2.3151 H       1  UNL1        0.0317
     55 H          -1.5107   -1.9938   -0.8717 H       1  UNL1        0.0814
     56 H          -2.3313   -1.2155    0.5292 H       1  UNL1        0.0814
     57 H          -4.1119   -2.7634    0.3113 H       1  UNL1        0.2014
     58 H          -3.1637   -4.9582    0.5509 H       1  UNL1        0.0843
     59 H          -1.5971   -4.2945    0.0209 H       1  UNL1        0.0843
     60 H          -3.1384   -4.9216    4.3672 H       1  UNL1        0.0622
     61 H          -2.0991   -6.7458    5.6500 H       1  UNL1        0.0654
     62 H           0.1403   -5.0815    1.5459 H       1  UNL1        0.0626
     63 H           1.3409   -8.1788    2.4525 H       1  UNL1        0.0608
     64 H           1.9054   -6.6286    1.8071 H       1  UNL1        0.0608
     65 H           2.5161   -6.1049    4.0086 H       1  UNL1        0.2098
     66 H           1.0690   -8.0049    4.8961 H       1  UNL1        0.2921
     67 H          -0.8695   -2.6138    2.9986 H       1  UNL1        0.2105
     68 H          -3.5031   -3.3868   -1.0798 H       1  UNL1        0.2014
@<TRIPOS>UNITY_ATOM_ATTR
18 1
charge 1
@<TRIPOS>BOND
     1     1     6   ar
     2     1     2   ar
     3     1    32    1
     4     2     3   ar
     5     2    33    1
     6     3     4   ar
     7     3    34    1
     8     4     5   ar
     9     4     7    1
    10     5     6   ar
    11     5    35    1
    12     6    36    1
    13     7     8    1
    14     7    37    1
    15     7    38    1
    16     8     9    1
    17     8    39    1
    18     8    40    1
    19     9    10    1
    20     9    41    1
    21     9    42    1
    22    10    11    1
    23    10    43    1
    24    10    44    1
    25    11    12    1
    26    12    13    1
    27    12    45    1
    28    12    46    1
    29    13    14    1
    30    13    47    1
    31    13    48    1
    32    14    15    1
    33    14    49    1
    34    14    50    1
    35    15    16    1
    36    15    51    1
    37    15    52    1
    38    16    17    1
    39    16    53    1
    40    16    54    1
    41    17    18    1
    42    17    55    1
    43    17    56    1
    44    18    19    1
    45    18    57    1
    46    18    68    1
    47    19    20    1
    48    19    58    1
    49    19    59    1
    50    20    21    1
    51    20    22    1
    52    20    31    1
    53    22    27   ar
    54    22    23   ar
    55    23    24   ar
    56    23    60    1
    57    24    25   ar
    58    24    61    1
    59    25    26   ar
    60    25    30    1
    61    26    27   ar
    62    26    28    1
    63    27    62    1
    64    28    29    1
    65    28    63    1
    66    28    64    1
    67    29    65    1
    68    30    66    1
    69    31    67    1
