@<TRIPOS>MOLECULE
ZINC01683250
 30 29 0 0 0
SMALL
GASTEIGER

@<TRIPOS>ATOM
      1 C           0.8767    0.0314   -0.2799 C.3     1  UNL1       -0.0216
      2 C           0.4665    1.3706    0.3248 C.3     1  UNL1       -0.0255
      3 H           0.9716    1.5316    1.2840 H       1  UNL1        0.0848
      4 C          -1.0547    1.5095    0.4935 C.3     1  UNL1       -0.0066
      5 C          -1.6638    0.4855    1.4603 C.3     1  UNL1       -0.0295
      6 C          -3.1468    0.7104    1.5932 C.2     1  UNL1       -0.0851
      7 C          -4.1304   -0.1798    1.3502 C.2     1  UNL1       -0.0796
      8 C          -5.5780    0.2006    1.5186 C.3     1  UNL1       -0.0440
      9 C          -3.8892   -1.6011    0.9198 C.3     1  UNL1       -0.0440
     10 N           0.9158    2.4976   -0.5802 N.4     1  UNL1        0.2268
     11 C           2.3811    2.6082   -0.8379 C.3     1  UNL1       -0.0446
     12 H           0.6988   -0.7820    0.4305 H       1  UNL1        0.0284
     13 H           1.9423   -0.0000   -0.5253 H       1  UNL1        0.0284
     14 H           0.3114   -0.1841   -1.1926 H       1  UNL1        0.0284
     15 H          -1.2813    2.5201    0.8612 H       1  UNL1        0.0323
     16 H          -1.5445    1.4209   -0.4861 H       1  UNL1        0.0323
     17 H          -1.4568   -0.5317    1.1136 H       1  UNL1        0.0309
     18 H          -1.2032    0.5913    2.4457 H       1  UNL1        0.0309
     19 H          -3.4358    1.7044    1.9369 H       1  UNL1        0.0571
     20 H          -6.1295    0.0054    0.5930 H       1  UNL1        0.0274
     21 H          -6.0332   -0.3821    2.3263 H       1  UNL1        0.0274
     22 H          -5.7028    1.2617    1.7569 H       1  UNL1        0.0274
     23 H          -3.3474   -1.6341   -0.0306 H       1  UNL1        0.0274
     24 H          -3.3225   -2.1471    1.6807 H       1  UNL1        0.0274
     25 H          -4.8348   -2.1372    0.7729 H       1  UNL1        0.0274
     26 H           0.4215    2.4403   -1.4819 H       1  UNL1        0.2013
     27 H           2.6305    1.9415   -1.6661 H       1  UNL1        0.0777
     28 H           2.5879    3.6442   -1.1146 H       1  UNL1        0.0777
     29 H           2.9233    2.3394    0.0718 H       1  UNL1        0.0777
     30 H           0.6077    3.3854   -0.1581 H       1  UNL1        0.2013
@<TRIPOS>UNITY_ATOM_ATTR
10 1
charge 1
@<TRIPOS>BOND
     1     1    12    1
     2     1    13    1
     3     1    14    1
     4     2     4    1
     5     2    10    1
     6     4     5    1
     7     4    15    1
     8     4    16    1
     9     5     6    1
    10     5    17    1
    11     5    18    1
    12     6     7    2
    13     6    19    1
    14     7     8    1
    15     7     9    1
    16     8    20    1
    17     8    21    1
    18     8    22    1
    19     9    23    1
    20     9    24    1
    21     9    25    1
    22    10    11    1
    23    10    26    1
    24    10    30    1
    25    11    27    1
    26    11    28    1
    27    11    29    1
    28     2     3    1
    29     2     1    1
