@<TRIPOS>MOLECULE
ZINC00403618
 20 19 0 0 0
SMALL
GASTEIGER

@<TRIPOS>ATOM
      1 C           1.2499   -0.1213   -0.2006 C.2     1  UNL1       -0.0974
      2 C           0.4397   -0.9988    0.4119 C.2     1  UNL1       -0.0436
      3 C          -1.0620   -0.9497    0.5181 C.3     1  UNL1       -0.0053
      4 H          -1.4451   -1.8820    0.0850 H       1  UNL1        0.0897
      5 C          -1.5669   -0.8755    1.9780 C.3     1  UNL1        0.0042
      6 C          -1.1302    0.3417    2.8091 C.3     1  UNL1        0.0546
      7 C          -1.6968    1.5750    2.1296 C.2     1  UNL1        0.3562
      8 O          -2.8574    1.9014    2.4666 O.co2   1  UNL1       -0.2464
      9 O          -1.0405    1.9539    1.1077 O.co2   1  UNL1       -0.2464
     10 N          -1.6722    0.1085   -0.3031 N.4     1  UNL1        0.2236
     11 H           0.8926    0.7795   -0.6913 H       1  UNL1        0.0534
     12 H           2.3285   -0.2546   -0.1762 H       1  UNL1        0.0534
     13 H           0.9084   -1.8428    0.9162 H       1  UNL1        0.0622
     14 H          -2.6648   -0.9292    1.9703 H       1  UNL1        0.0328
     15 H          -1.2306   -1.7786    2.5046 H       1  UNL1        0.0328
     16 H          -1.5367    0.2556    3.8244 H       1  UNL1        0.0381
     17 H          -0.0416    0.3998    2.8943 H       1  UNL1        0.0381
     18 H          -1.2800    1.0296    0.0373 H       1  UNL1        0.2000
     19 H          -1.4569    0.0625   -1.2959 H       1  UNL1        0.2000
     20 H          -2.6755    0.2334   -0.1371 H       1  UNL1        0.2000
@<TRIPOS>UNITY_ATOM_ATTR
10 1
charge 1
@<TRIPOS>BOND
     1     1     2    2
     2     1    11    1
     3     1    12    1
     4     2     3    1
     5     2    13    1
     6     3     4    1
     7     3     5    1
     8     3    10    1
     9     5     6    1
    10     5    14    1
    11     5    15    1
    12     6     7    1
    13     6    16    1
    14     6    17    1
    15     7     8   ar
    16     7     9   ar
    17    10    18    1
    18    10    19    1
    19    10    20    1
