@<TRIPOS>MOLECULE
ZINC00056427
 32 32 0 0 0
SMALL
GASTEIGER

@<TRIPOS>ATOM
      1 C           0.3157    1.8345   -1.6558 C.3     1  UNL1       -0.0489
      2 C           0.5640    0.4017   -1.2018 C.3     1  UNL1        0.0173
      3 N           0.9594   -0.4719   -2.3128 N.am    1  UNL1       -0.2680
      4 C          -0.0832   -1.1323   -3.0248 C.ar    1  UNL1        0.0394
      5 C          -0.8666   -2.0568   -2.3131 C.ar    1  UNL1       -0.0400
      6 C          -1.8528   -2.8017   -2.9512 C.ar    1  UNL1       -0.0600
      7 C          -2.0840   -2.6248   -4.3108 C.ar    1  UNL1       -0.0614
      8 C          -1.3350   -1.6899   -5.0242 C.ar    1  UNL1       -0.0571
      9 C          -0.3278   -0.9296   -4.3984 C.ar    1  UNL1       -0.0290
     10 C           0.3417    0.1300   -5.2329 C.3     1  UNL1       -0.0379
     11 C           2.3093   -0.5154   -2.6642 C.2     1  UNL1        0.2433
     12 O           3.1641    0.2039   -2.1469 O.2     1  UNL1       -0.2703
     13 C           2.7110   -1.5291   -3.6856 C.2     1  UNL1       -0.0035
     14 C           3.8138   -1.3494   -4.4288 C.2     1  UNL1       -0.0822
     15 C           4.2250   -2.2760   -5.5242 C.3     1  UNL1       -0.0464
     16 H           1.1908    2.2513   -2.1644 H       1  UNL1        0.0245
     17 H           0.0879    2.4695   -0.7936 H       1  UNL1        0.0245
     18 H          -0.5304    1.8861   -2.3487 H       1  UNL1        0.0245
     19 H           1.3637    0.3974   -0.4517 H       1  UNL1        0.0466
     20 H          -0.3329    0.0146   -0.7084 H       1  UNL1        0.0466
     21 H          -0.6801   -2.2334   -1.2570 H       1  UNL1        0.0636
     22 H          -2.4377   -3.5272   -2.3898 H       1  UNL1        0.0618
     23 H          -2.8503   -3.2078   -4.8154 H       1  UNL1        0.0618
     24 H          -1.5478   -1.5450   -6.0825 H       1  UNL1        0.0621
     25 H           0.6648   -0.2936   -6.1906 H       1  UNL1        0.0278
     26 H          -0.3645    0.9438   -5.4274 H       1  UNL1        0.0278
     27 H           1.2201    0.5720   -4.7618 H       1  UNL1        0.0278
     28 H           2.0703   -2.3886   -3.8326 H       1  UNL1        0.0666
     29 H           4.4416   -0.4753   -4.2640 H       1  UNL1        0.0571
     30 H           3.9727   -1.8345   -6.4938 H       1  UNL1        0.0272
     31 H           5.3058   -2.4422   -5.4933 H       1  UNL1        0.0272
     32 H           3.7308   -3.2496   -5.4479 H       1  UNL1        0.0272
@<TRIPOS>BOND
     1     1     2    1
     2     1    16    1
     3     1    17    1
     4     1    18    1
     5     2     3    1
     6     2    19    1
     7     2    20    1
     8     3     4    1
     9     3    11   am
    10     4     9   ar
    11     4     5   ar
    12     5     6   ar
    13     5    21    1
    14     6     7   ar
    15     6    22    1
    16     7     8   ar
    17     7    23    1
    18     8     9   ar
    19     8    24    1
    20     9    10    1
    21    10    25    1
    22    10    26    1
    23    10    27    1
    24    11    12    2
    25    11    13    1
    26    13    14    2
    27    13    28    1
    28    14    15    1
    29    14    29    1
    30    15    30    1
    31    15    31    1
    32    15    32    1
