@<TRIPOS>MOLECULE
ZINC00538415
 50 52 0 0 0
SMALL
GASTEIGER

@<TRIPOS>ATOM
      1 C           0.5596    2.5123   -1.2545 C.3     1  UNL1       -0.0558
      2 C           0.2901    1.8826    0.1287 C.3     1  UNL1       -0.0095
      3 C          -1.2020    2.0139    0.5071 C.3     1  UNL1       -0.0431
      4 C          -2.0990    1.0045   -0.1823 C.3     1  UNL1       -0.0431
      5 C          -1.6567   -0.4729   -0.0062 C.3     1  UNL1       -0.0095
      6 C          -0.1396   -0.6595    0.1317 C.ar    1  UNL1       -0.0363
      7 C           0.7545    0.4262    0.1130 C.ar    1  UNL1       -0.0379
      8 C           2.1341    0.1438    0.0413 C.ar    1  UNL1       -0.0560
      9 C           2.6330   -1.1610    0.0574 C.ar    1  UNL1       -0.0402
     10 C           1.7708   -2.2410    0.1675 C.ar    1  UNL1        0.0340
     11 C           0.3949   -1.9763    0.2172 C.ar    1  UNL1       -0.0365
     12 N           2.1931   -3.5923    0.1809 N.am    1  UNL1       -0.2815
     13 C           3.4908   -4.0701    0.0437 C.2     1  UNL1        0.2483
     14 O           4.5019   -3.3775   -0.0806 O.2     1  UNL1       -0.2699
     15 C           3.6400   -5.5495   -0.0426 C.ar    1  UNL1        0.0371
     16 C           2.7847   -6.4252    0.6329 C.ar    1  UNL1       -0.0488
     17 C           2.9091   -7.8065    0.4393 C.ar    1  UNL1       -0.0469
     18 C           3.8879   -8.3368   -0.4179 C.ar    1  UNL1        0.0632
     19 C           4.7863   -7.4501   -1.0291 C.ar    1  UNL1       -0.0469
     20 C           4.6668   -6.0669   -0.8443 C.ar    1  UNL1       -0.0488
     21 C           3.9587   -9.8287   -0.6943 C.2     1  UNL1        0.3865
     22 O           4.9007  -10.2392   -1.4350 O.co2   1  UNL1       -0.2406
     23 O           3.0496  -10.5506   -0.1694 O.co2   1  UNL1       -0.2406
     24 C          -2.1306   -1.2084   -1.2849 C.3     1  UNL1       -0.0558
     25 C          -2.3796   -1.0798    1.2169 C.3     1  UNL1       -0.0558
     26 C           1.0622    2.6934    1.1985 C.3     1  UNL1       -0.0558
     27 H           1.6317    2.5222   -1.4923 H       1  UNL1        0.0238
     28 H           0.0584    1.9614   -2.0594 H       1  UNL1        0.0238
     29 H           0.2168    3.5523   -1.2926 H       1  UNL1        0.0238
     30 H          -1.3345    1.9095    1.5912 H       1  UNL1        0.0274
     31 H          -1.5566    3.0240    0.2584 H       1  UNL1        0.0274
     32 H          -3.1236    1.1364    0.1938 H       1  UNL1        0.0274
     33 H          -2.1535    1.2700   -1.2457 H       1  UNL1        0.0274
     34 H           2.8598    0.9474   -0.0532 H       1  UNL1        0.0621
     35 H           3.7063   -1.2919   -0.0243 H       1  UNL1        0.0636
     36 H          -0.2886   -2.8198    0.2903 H       1  UNL1        0.0639
     37 H           1.4588   -4.2850    0.2002 H       1  UNL1        0.1551
     38 H           2.0267   -6.0662    1.3185 H       1  UNL1        0.0625
     39 H           2.2313   -8.4917    0.9492 H       1  UNL1        0.0626
     40 H           5.5706   -7.8481   -1.6724 H       1  UNL1        0.0626
     41 H           5.3654   -5.4056   -1.3461 H       1  UNL1        0.0625
     42 H          -1.8343   -2.2616   -1.3062 H       1  UNL1        0.0238
     43 H          -3.2213   -1.1720   -1.3801 H       1  UNL1        0.0238
     44 H          -1.7010   -0.7409   -2.1807 H       1  UNL1        0.0238
     45 H          -3.4630   -0.9211    1.1572 H       1  UNL1        0.0238
     46 H          -2.2298   -2.1634    1.2876 H       1  UNL1        0.0238
     47 H          -2.0261   -0.6363    2.1541 H       1  UNL1        0.0238
     48 H           0.9272    2.2527    2.1947 H       1  UNL1        0.0238
     49 H           2.1378    2.7399    1.0058 H       1  UNL1        0.0238
     50 H           0.7002    3.7277    1.2416 H       1  UNL1        0.0238
@<TRIPOS>BOND
     1     1     2    1
     2     1    27    1
     3     1    28    1
     4     1    29    1
     5     2     7    1
     6     2     3    1
     7     2    26    1
     8     3     4    1
     9     3    30    1
    10     3    31    1
    11     4     5    1
    12     4    32    1
    13     4    33    1
    14     5     6    1
    15     5    24    1
    16     5    25    1
    17     6    11   ar
    18     6     7   ar
    19     7     8   ar
    20     8     9   ar
    21     8    34    1
    22     9    10   ar
    23     9    35    1
    24    10    11   ar
    25    10    12    1
    26    11    36    1
    27    12    13   am
    28    12    37    1
    29    13    14    2
    30    13    15    1
    31    15    20   ar
    32    15    16   ar
    33    16    17   ar
    34    16    38    1
    35    17    18   ar
    36    17    39    1
    37    18    19   ar
    38    18    21    1
    39    19    20   ar
    40    19    40    1
    41    20    41    1
    42    21    22   ar
    43    21    23   ar
    44    24    42    1
    45    24    43    1
    46    24    44    1
    47    25    45    1
    48    25    46    1
    49    25    47    1
    50    26    48    1
    51    26    49    1
    52    26    50    1
