@<TRIPOS>MOLECULE
ZINC00002191
 33 34 0 0 0
SMALL
GASTEIGER

@<TRIPOS>ATOM
      1 C          -5.6700   -4.7466    2.3572 C.3     1  UNL1       -0.0397
      2 C          -5.0817   -3.5146    1.7364 C.ar    1  UNL1       -0.0504
      3 C          -3.6929   -3.3331    1.7140 C.ar    1  UNL1       -0.0582
      4 C          -3.1374   -2.1865    1.1386 C.ar    1  UNL1       -0.0506
      5 C          -3.9639   -1.2036    0.5784 C.ar    1  UNL1        0.0238
      6 C          -5.3511   -1.4003    0.5744 C.ar    1  UNL1       -0.0506
      7 C          -5.9052   -2.5409    1.1610 C.ar    1  UNL1       -0.0582
      8 C          -3.3376    0.0121   -0.0317 C.2     1  UNL1        0.2093
      9 O          -2.1937   -0.1048   -0.4743 O.2     1  UNL1       -0.2851
     10 C          -4.0815    1.2648   -0.0444 C.ar    1  UNL1        0.0897
     11 C          -4.9595    1.7411    0.9222 C.ar    1  UNL1       -0.0328
     12 C          -5.4416    2.9977    0.5126 C.ar    1  UNL1       -0.0397
     13 C          -4.8422    3.2999   -0.6907 C.ar    1  UNL1        0.0298
     14 N          -4.0313    2.2346   -1.0358 N.ar    1  UNL1       -0.3438
     15 C          -3.3089    2.1448   -2.2892 C.3     1  UNL1        0.0122
     16 C          -5.0140    4.5415   -1.5288 C.3     1  UNL1        0.0895
     17 C          -6.1588    4.3990   -2.5482 C.2     1  UNL1        0.3617
     18 O          -7.3036    4.7507   -2.1405 O.co2   1  UNL1       -0.2460
     19 O          -5.8064    3.9971   -3.6978 O.co2   1  UNL1       -0.2460
     20 H          -5.3292   -5.6381    1.8213 H       1  UNL1        0.0278
     21 H          -5.3718   -4.8198    3.4079 H       1  UNL1        0.0278
     22 H          -6.7644   -4.7303    2.3211 H       1  UNL1        0.0278
     23 H          -3.0344   -4.0849    2.1435 H       1  UNL1        0.0620
     24 H          -2.0570   -2.0582    1.1297 H       1  UNL1        0.0625
     25 H          -6.0167   -0.6746    0.1107 H       1  UNL1        0.0625
     26 H          -6.9865   -2.6601    1.1574 H       1  UNL1        0.0620
     27 H          -5.2321    1.2302    1.8356 H       1  UNL1        0.0640
     28 H          -6.1561    3.6297    1.0244 H       1  UNL1        0.0636
     29 H          -4.0245    2.2213   -3.1097 H       1  UNL1        0.0456
     30 H          -2.5815    2.9595   -2.3280 H       1  UNL1        0.0456
     31 H          -2.7911    1.1910   -2.3776 H       1  UNL1        0.0456
     32 H          -5.2327    5.3928   -0.8712 H       1  UNL1        0.0443
     33 H          -4.0839    4.7946   -2.0495 H       1  UNL1        0.0443
@<TRIPOS>BOND
     1     1     2    1
     2     1    20    1
     3     1    21    1
     4     1    22    1
     5     2     7   ar
     6     2     3   ar
     7     3     4   ar
     8     3    23    1
     9     4     5   ar
    10     4    24    1
    11     5     6   ar
    12     5     8    1
    13     6     7   ar
    14     6    25    1
    15     7    26    1
    16     8     9    2
    17     8    10    1
    18    10    14   ar
    19    10    11   ar
    20    11    12   ar
    21    11    27    1
    22    12    13   ar
    23    12    28    1
    24    13    14   ar
    25    13    16    1
    26    14    15    1
    27    15    29    1
    28    15    30    1
    29    15    31    1
    30    16    17    1
    31    16    32    1
    32    16    33    1
    33    17    18   ar
    34    17    19   ar
