@<TRIPOS>MOLECULE
ZINC01530771
 22 22 0 0 0
SMALL
GASTEIGER

@<TRIPOS>ATOM
      1 C          -1.0090    0.3628    1.1324 C.3     1  UNL1       -0.0612
      2 C           0.4476    0.7643    1.3254 C.3     1  UNL1       -0.0071
      3 C           1.0893    0.2409    2.6116 C.3     1  UNL1        0.1876
      4 C           0.3883    0.6364    3.8881 C.2     1  UNL1        0.2678
      5 O          -0.0589    1.7390    4.1607 O.2     1  UNL1       -0.2707
      6 N           0.4189   -0.4605    4.6906 N.am    1  UNL1       -0.2073
      7 C           0.7440   -1.5533    3.9687 C.2     1  UNL1        0.4101
      8 O           0.7568   -2.7080    4.3572 O.2     1  UNL1       -0.2258
      9 O           1.0403   -1.1936    2.6822 O.3     1  UNL1       -0.4342
     10 C           0.0296   -0.4608    6.0756 C.3     1  UNL1        0.0142
     11 C           2.5533    0.6761    2.7160 C.3     1  UNL1       -0.0160
     12 H          -1.3617    0.7078    0.1541 H       1  UNL1        0.0231
     13 H          -1.6502    0.8167    1.8938 H       1  UNL1        0.0231
     14 H          -1.1363   -0.7230    1.1697 H       1  UNL1        0.0231
     15 H           1.0087    0.3738    0.4664 H       1  UNL1        0.0306
     16 H           0.5178    1.8581    1.2863 H       1  UNL1        0.0306
     17 H           0.6800    0.2372    6.6144 H       1  UNL1        0.0434
     18 H          -1.0006   -0.1069    6.1641 H       1  UNL1        0.0434
     19 H           0.1260   -1.4583    6.5116 H       1  UNL1        0.0434
     20 H           3.1395    0.2867    1.8774 H       1  UNL1        0.0273
     21 H           2.6421    1.7676    2.7362 H       1  UNL1        0.0273
     22 H           3.0202    0.2891    3.6301 H       1  UNL1        0.0273
@<TRIPOS>BOND
     1     1     2    1
     2     1    12    1
     3     1    13    1
     4     1    14    1
     5     2    15    1
     6     2    16    1
     7     3     2    1
     8     3     9    1
     9     3     4    1
    10     3    11    1
    11     4     5    2
    12     4     6   am
    13     6     7   am
    14     6    10    1
    15     7     8    2
    16     7     9    1
    17    10    17    1
    18    10    18    1
    19    10    19    1
    20    11    20    1
    21    11    21    1
    22    11    22    1
