@<TRIPOS>MOLECULE
ZINC00001370
 32 35 0 0 0
SMALL
GASTEIGER

@<TRIPOS>ATOM
      1 C           1.0213   -0.0236   -0.0252 C.ar    1  UNL1       -0.0617
      2 C           0.5495    1.2720   -0.2195 C.ar    1  UNL1       -0.0611
      3 C          -0.7949    1.4926   -0.5454 C.ar    1  UNL1       -0.0526
      4 C          -1.6878    0.4137   -0.6934 C.ar    1  UNL1        0.0006
      5 C          -1.1915   -0.8808   -0.4759 C.ar    1  UNL1       -0.0526
      6 C           0.1484   -1.0992   -0.1487 C.ar    1  UNL1       -0.0611
      7 C          -3.1814    0.5832   -0.8820 C.2     1  UNL1        0.0752
      8 N          -3.9223   -0.4778   -0.7651 N.2     1  UNL1       -0.2749
      9 C          -5.3543   -0.3065   -0.5488 C.3     1  UNL1        0.1004
     10 C          -5.6273    0.4337    0.7272 C.ar    1  UNL1        0.1593
     11 N          -6.5143    0.0847    1.6412 N.ar    1  UNL1       -0.1324
     12 N          -6.5596    1.0715    2.5888 N.ar    1  UNL1       -0.1375
     13 C          -5.6913    1.9950    2.2438 C.ar    1  UNL1        0.1244
     14 N          -5.0402    1.6295    1.0983 N.ar    1  UNL1       -0.2834
     15 C          -4.1442    2.4282    0.3348 C.ar    1  UNL1        0.0585
     16 C          -3.7508    1.9522   -0.9182 C.ar    1  UNL1        0.0258
     17 C          -3.4969    2.8263   -1.9586 C.ar    1  UNL1       -0.0322
     18 C          -3.2706    4.1600   -1.6338 C.ar    1  UNL1        0.0417
     19 C          -3.2603    4.5634   -0.2943 C.ar    1  UNL1       -0.0414
     20 C          -3.7605    3.7133    0.6990 C.ar    1  UNL1       -0.0357
     21 CL         -2.9205    5.2964   -2.8723 Cl      1  UNL1       -0.0835
     22 H           2.0620   -0.1933    0.2394 H       1  UNL1        0.0618
     23 H           1.2244    2.1150   -0.0931 H       1  UNL1        0.0618
     24 H          -1.1135    2.5235   -0.6334 H       1  UNL1        0.0624
     25 H          -1.8635   -1.7349   -0.5143 H       1  UNL1        0.0624
     26 H           0.4987   -2.1115    0.0333 H       1  UNL1        0.0618
     27 H          -5.8406    0.1749   -1.4072 H       1  UNL1        0.0590
     28 H          -5.7932   -1.3087   -0.4724 H       1  UNL1        0.0590
     29 H          -5.5556    2.9345    2.7523 H       1  UNL1        0.1052
     30 H          -3.4335    2.4706   -2.9826 H       1  UNL1        0.0639
     31 H          -2.9025    5.5568   -0.0246 H       1  UNL1        0.0633
     32 H          -3.8245    4.0690    1.7245 H       1  UNL1        0.0639
@<TRIPOS>BOND
     1     1     6   ar
     2     1     2   ar
     3     1    22    1
     4     2     3   ar
     5     2    23    1
     6     3     4   ar
     7     3    24    1
     8     4     5   ar
     9     4     7    1
    10     5     6   ar
    11     5    25    1
    12     6    26    1
    13     7    16    1
    14     7     8    2
    15     8     9    1
    16     9    10    1
    17     9    27    1
    18     9    28    1
    19    10    14   ar
    20    10    11   ar
    21    11    12   ar
    22    12    13   ar
    23    13    14   ar
    24    13    29    1
    25    14    15    1
    26    15    20   ar
    27    15    16   ar
    28    16    17   ar
    29    17    18   ar
    30    17    30    1
    31    18    19   ar
    32    18    21    1
    33    19    20   ar
    34    19    31    1
    35    20    32    1
