@<TRIPOS>MOLECULE
ZINC03831405
 49 52 0 0 0
SMALL
GASTEIGER

@<TRIPOS>ATOM
      1 C          -8.6208    7.7690   -5.9660 C.3     1  UNL1        0.0788
      2 O          -7.4186    7.0257   -5.7709 O.3     1  UNL1       -0.4951
      3 C          -7.1934    6.0062   -6.6529 C.ar    1  UNL1        0.1208
      4 C          -7.7879    5.8627   -7.8939 C.ar    1  UNL1       -0.0179
      5 C          -7.5180    4.7230   -8.6536 C.ar    1  UNL1       -0.0323
      6 C          -6.6494    3.7348   -8.2179 C.ar    1  UNL1        0.0715
      7 C          -5.9418    3.8966   -6.9916 C.ar    1  UNL1        0.0097
      8 C          -6.2664    5.0485   -6.2263 C.ar    1  UNL1       -0.0104
      9 C          -4.9834    2.8797   -6.6472 C.ar    1  UNL1       -0.0031
     10 C          -4.9472    1.7257   -7.4494 C.ar    1  UNL1       -0.0372
     11 C          -5.7264    1.6569   -8.5880 C.ar    1  UNL1        0.0286
     12 N          -6.5138    2.6599   -8.9984 N.ar    1  UNL1       -0.2550
     13 C          -3.9876    2.9376   -5.4926 C.3     1  UNL1        0.1232
     14 H          -3.9484    1.9289   -5.0590 H       1  UNL1        0.0701
     15 C          -2.5105    3.3801   -5.7929 C.3     1  UNL1        0.0102
     16 H          -2.0794    3.5234   -4.7902 H       1  UNL1        0.0880
     17 C          -1.5780    2.4081   -6.5218 C.3     1  UNL1       -0.0032
     18 C          -0.6614    3.1694   -7.5050 C.3     1  UNL1       -0.0200
     19 H           0.0735    2.4800   -7.9374 H       1  UNL1        0.0312
     20 C           0.0629    4.3037   -6.7491 C.3     1  UNL1       -0.0088
     21 C          -0.9484    5.2801   -6.1317 C.3     1  UNL1       -0.0312
     22 N          -2.3490    4.7619   -6.4383 N.4     1  UNL1        0.2399
     23 C          -2.5509    4.7736   -7.9525 C.3     1  UNL1       -0.0249
     24 C          -1.5041    3.8460   -8.6126 C.3     1  UNL1        0.0203
     25 H          -0.8349    4.4892   -9.2021 H       1  UNL1        0.0398
     26 C          -2.1025    2.8446   -9.5643 C.2     1  UNL1       -0.0828
     27 C          -1.5372    2.5090  -10.7318 C.2     1  UNL1       -0.1022
     28 O          -4.4347    3.7904   -4.4360 O.3     1  UNL1       -0.3815
     29 H          -8.7888    8.3730   -5.0695 H       1  UNL1        0.0660
     30 H          -9.4903    7.1130   -6.0909 H       1  UNL1        0.0660
     31 H          -8.5148    8.4481   -6.8171 H       1  UNL1        0.0660
     32 H          -8.4756    6.6004   -8.2944 H       1  UNL1        0.0655
     33 H          -8.0178    4.5960   -9.6152 H       1  UNL1        0.0640
     34 H          -5.8560    5.2047   -5.2344 H       1  UNL1        0.0661
     35 H          -4.3142    0.8761   -7.2096 H       1  UNL1        0.0636
     36 H          -5.7176    0.7827   -9.2331 H       1  UNL1        0.0830
     37 H          -0.9506    1.9070   -5.7714 H       1  UNL1        0.0324
     38 H          -2.1256    1.6110   -7.0284 H       1  UNL1        0.0324
     39 H           0.7150    3.8901   -5.9713 H       1  UNL1        0.0320
     40 H           0.7205    4.8495   -7.4384 H       1  UNL1        0.0320
     41 H          -0.8637    6.2875   -6.5519 H       1  UNL1        0.0814
     42 H          -0.8418    5.3437   -5.0437 H       1  UNL1        0.0814
     43 H          -3.5827    4.5057   -8.1693 H       1  UNL1        0.0820
     44 H          -2.4068    5.8121   -8.2745 H       1  UNL1        0.0820
     45 H          -3.0417    2.3652   -9.3087 H       1  UNL1        0.0571
     46 H          -2.0050    1.7828  -11.3927 H       1  UNL1        0.0532
     47 H          -0.5945    2.9356  -11.0634 H       1  UNL1        0.0532
     48 H          -4.3491    3.3078   -3.5922 H       1  UNL1        0.2105
     49 H          -3.0494    5.3858   -6.0048 H       1  UNL1        0.2037
@<TRIPOS>UNITY_ATOM_ATTR
22 1
charge 1
@<TRIPOS>BOND
     1     1     2    1
     2     1    29    1
     3     1    30    1
     4     1    31    1
     5     2     3    1
     6     3     8   ar
     7     3     4   ar
     8     4     5   ar
     9     4    32    1
    10     5     6   ar
    11     5    33    1
    12     6    12   ar
    13     6     7   ar
    14     7     8   ar
    15     7     9   ar
    16     8    34    1
    17     9    10   ar
    18     9    13    1
    19    10    11   ar
    20    10    35    1
    21    11    12   ar
    22    11    36    1
    23    13    14    1
    24    13    28    1
    25    15    22    1
    26    15    17    1
    27    17    18    1
    28    17    37    1
    29    17    38    1
    30    18    19    1
    31    18    24    1
    32    18    20    1
    33    20    21    1
    34    20    39    1
    35    20    40    1
    36    21    22    1
    37    21    41    1
    38    21    42    1
    39    22    23    1
    40    22    49    1
    41    23    24    1
    42    23    43    1
    43    23    44    1
    44    26    27    2
    45    26    45    1
    46    27    46    1
    47    27    47    1
    48    28    48    1
    49    15    16    1
    50    15    13    1
    51    24    26    1
    52    24    25    1
