@<TRIPOS>MOLECULE
ZINC00896740
 40 42 0 0 0
SMALL
GASTEIGER

@<TRIPOS>ATOM
      1 C           4.3839   -2.7755    3.0487 C.ar    1  UNL1       -0.0430
      2 C           3.9179   -2.8994    1.7363 C.ar    1  UNL1       -0.0536
      3 C           3.1751   -1.8704    1.1352 C.ar    1  UNL1       -0.0035
      4 C           3.0004   -0.6719    1.8528 C.ar    1  UNL1        0.0477
      5 C           3.4529   -0.5502    3.1739 C.ar    1  UNL1       -0.0247
      6 C           4.1188   -1.6157    3.7730 C.ar    1  UNL1        0.0424
      7 CL          4.5777   -1.5209    5.4267 Cl      1  UNL1       -0.0835
      8 CL          2.1807    0.6877    1.1619 Cl      1  UNL1       -0.0831
      9 C           2.4456   -2.1637   -0.1561 C.3     1  UNL1        0.0749
     10 O           3.1257   -1.7281   -1.3406 O.3     1  UNL1       -0.3657
     11 C           2.3863   -2.0222   -2.5778 C.3     1  UNL1        0.1014
     12 H           2.1116   -3.0852   -2.5629 H       1  UNL1        0.0663
     13 C           1.1013   -1.1445   -2.5793 C.3     1  UNL1        0.0480
     14 N           1.3491    0.3148   -2.6327 N.pl3   1  UNL1       -0.2949
     15 C           0.3660    1.2664   -2.8873 C.2     1  UNL1        0.0135
     16 C           0.9842    2.4808   -2.8930 C.2     1  UNL1        0.0167
     17 N           2.3060    2.2459   -2.6280 N.2     1  UNL1       -0.3542
     18 C           2.5216    0.9397   -2.4197 C.2     1  UNL1        0.0640
     19 C           3.3256   -1.8167   -3.7892 C.ar    1  UNL1        0.0010
     20 C           4.7103   -2.0198   -3.6001 C.ar    1  UNL1       -0.0533
     21 C           5.6438   -1.7474   -4.6120 C.ar    1  UNL1       -0.0430
     22 C           5.2182   -1.2629   -5.8398 C.ar    1  UNL1        0.0424
     23 C           3.8644   -1.1273   -6.0908 C.ar    1  UNL1       -0.0247
     24 C           2.9246   -1.4562   -5.0989 C.ar    1  UNL1        0.0480
     25 CL          1.2916   -1.4543   -5.6612 Cl      1  UNL1       -0.0831
     26 CL          6.3597   -0.8440   -7.0527 Cl      1  UNL1       -0.0835
     27 H           4.9169   -3.6042    3.5131 H       1  UNL1        0.0632
     28 H           4.0997   -3.8324    1.2027 H       1  UNL1        0.0622
     29 H           3.2616    0.3534    3.7477 H       1  UNL1        0.0647
     30 H           2.2482   -3.2385   -0.2309 H       1  UNL1        0.0611
     31 H           1.4694   -1.6822   -0.0694 H       1  UNL1        0.0611
     32 H           0.4161   -1.4202   -3.3794 H       1  UNL1        0.0497
     33 H           0.5005   -1.3116   -1.6823 H       1  UNL1        0.0497
     34 H          -0.6500    0.9418   -3.0343 H       1  UNL1        0.0798
     35 H           0.6592    3.4957   -3.0543 H       1  UNL1        0.0820
     36 H           3.4768    0.5004   -2.1646 H       1  UNL1        0.0982
     37 H           5.0909   -2.3941   -2.6485 H       1  UNL1        0.0622
     38 H           6.7039   -1.9178   -4.4304 H       1  UNL1        0.0632
     39 H           3.5315   -0.7848   -7.0699 H       1  UNL1        0.0647
     40 H           3.0390    2.9464   -2.5655 H       1  UNL1        0.1660
@<TRIPOS>BOND
     1     1     6   ar
     2     1     2   ar
     3     1    27    1
     4     2     3   ar
     5     2    28    1
     6     3     4   ar
     7     3     9    1
     8     4     5   ar
     9     4     8    1
    10     5     6   ar
    11     5    29    1
    12     6     7    1
    13     9    10    1
    14     9    30    1
    15     9    31    1
    16    10    11    1
    17    11    12    1
    18    11    13    1
    19    11    19    1
    20    13    14    1
    21    13    32    1
    22    13    33    1
    23    14    18    1
    24    14    15    1
    25    15    16    2
    26    15    34    1
    27    16    17    1
    28    16    35    1
    29    17    18    2
    30    17    40    1
    31    18    36    1
    32    19    24   ar
    33    19    20   ar
    34    20    21   ar
    35    20    37    1
    36    21    22   ar
    37    21    38    1
    38    22    23   ar
    39    22    26    1
    40    23    24   ar
    41    23    39    1
    42    24    25    1
