@<TRIPOS>MOLECULE
ZINC02522648
 37 38 0 0 0
SMALL
GASTEIGER

@<TRIPOS>ATOM
      1 C           1.2702   -0.2066    0.2177 C.3     1  UNL1        0.0817
      2 O           0.6116   -1.4477    0.4902 O.3     1  UNL1       -0.4674
      3 C           0.9747   -2.4626   -0.3270 C.2     1  UNL1        0.3198
      4 O           1.8256   -2.3873   -1.2100 O.2     1  UNL1       -0.2499
      5 C           0.3518   -3.7884    0.0752 C.3     1  UNL1        0.1238
      6 H           0.7890   -4.0216    1.0572 H       1  UNL1        0.0519
      7 C          -1.1570   -3.7309    0.2196 C.ar    1  UNL1       -0.0284
      8 C          -1.7425   -4.0264    1.4657 C.ar    1  UNL1       -0.0576
      9 C          -3.1297   -4.0140    1.6256 C.ar    1  UNL1       -0.0615
     10 C          -3.9493   -3.7064    0.5444 C.ar    1  UNL1       -0.0617
     11 C          -3.3838   -3.4043   -0.6927 C.ar    1  UNL1       -0.0615
     12 C          -1.9948   -3.4147   -0.8565 C.ar    1  UNL1       -0.0576
     13 C           0.8482   -4.8868   -0.9192 C.3     1  UNL1       -0.0053
     14 H           0.6461   -4.5998   -1.9604 H       1  UNL1        0.0862
     15 C           0.2311   -6.2682   -0.6443 C.3     1  UNL1       -0.0084
     16 C           0.9104   -7.3961   -1.4164 C.3     1  UNL1       -0.0431
     17 C           2.4049   -7.4153   -1.1328 C.3     1  UNL1       -0.0124
     18 C           3.0283   -6.1011   -1.5567 C.3     1  UNL1       -0.0334
     19 N           2.3700   -4.9909   -0.8163 N.4     1  UNL1        0.2300
     20 H           0.8444    0.5586    0.8719 H       1  UNL1        0.0661
     21 H           1.1097    0.0966   -0.8221 H       1  UNL1        0.0661
     22 H           2.3409   -0.2917    0.4327 H       1  UNL1        0.0661
     23 H          -1.1318   -4.2681    2.3341 H       1  UNL1        0.0621
     24 H          -3.5717   -4.2418    2.5935 H       1  UNL1        0.0618
     25 H          -5.0318   -3.6932    0.6686 H       1  UNL1        0.0618
     26 H          -4.0319   -3.1569   -1.5307 H       1  UNL1        0.0618
     27 H          -1.5944   -3.1654   -1.8374 H       1  UNL1        0.0621
     28 H          -0.8300   -6.2597   -0.9219 H       1  UNL1        0.0320
     29 H           0.2784   -6.4910    0.4285 H       1  UNL1        0.0320
     30 H           0.4641   -8.3561   -1.1357 H       1  UNL1        0.0269
     31 H           0.7410   -7.2652   -2.4926 H       1  UNL1        0.0269
     32 H           2.5741   -7.5855   -0.0607 H       1  UNL1        0.0317
     33 H           2.8787   -8.2446   -1.6676 H       1  UNL1        0.0317
     34 H           4.0918   -6.0629   -1.3017 H       1  UNL1        0.0814
     35 H           2.9039   -5.9054   -2.6261 H       1  UNL1        0.0814
     36 H           2.6674   -5.0289    0.1679 H       1  UNL1        0.2016
     37 H           2.7468   -4.0946   -1.1851 H       1  UNL1        0.2016
@<TRIPOS>UNITY_ATOM_ATTR
19 1
charge 1
@<TRIPOS>BOND
     1     1     2    1
     2     1    20    1
     3     1    21    1
     4     1    22    1
     5     2     3    1
     6     3     4    2
     7     3     5    1
     8     5     6    1
     9     5     7    1
    10     5    13    1
    11     7    12   ar
    12     7     8   ar
    13     8     9   ar
    14     8    23    1
    15     9    10   ar
    16     9    24    1
    17    10    11   ar
    18    10    25    1
    19    11    12   ar
    20    11    26    1
    21    12    27    1
    22    13    14    1
    23    13    19    1
    24    13    15    1
    25    15    16    1
    26    15    28    1
    27    15    29    1
    28    16    17    1
    29    16    30    1
    30    16    31    1
    31    17    18    1
    32    17    32    1
    33    17    33    1
    34    18    19    1
    35    18    34    1
    36    18    35    1
    37    19    36    1
    38    19    37    1
