@<TRIPOS>MOLECULE
ZINC01530977
 44 46 0 0 0
SMALL
GASTEIGER

@<TRIPOS>ATOM
      1 C           0.5774   -0.0543   -0.5301 C.3     1  UNL1       -0.0425
      2 N          -0.0864   -1.4081   -0.4825 N.4     1  UNL1        0.2392
      3 C           0.3717   -2.2135    0.7166 C.3     1  UNL1       -0.0126
      4 C           0.1948   -1.4989    2.0197 C.2     1  UNL1       -0.0389
      5 C          -0.8792   -1.6232    2.8106 C.2     1  UNL1       -0.0536
      6 C          -1.1577   -0.8288    4.0067 C.ar    1  UNL1       -0.0251
      7 C          -2.0232   -1.3319    4.9879 C.ar    1  UNL1       -0.0546
      8 C          -2.4141   -0.5488    6.0851 C.ar    1  UNL1       -0.0612
      9 C          -1.9429    0.7552    6.2121 C.ar    1  UNL1       -0.0617
     10 C          -1.0687    1.2682    5.2630 C.ar    1  UNL1       -0.0612
     11 C          -0.6809    0.4854    4.1668 C.ar    1  UNL1       -0.0546
     12 C          -1.6193   -1.3899   -0.6496 C.3     1  UNL1       -0.0053
     13 C          -2.0881   -0.6422   -1.8804 C.ar    1  UNL1        0.0048
     14 C          -2.4183    0.7090   -1.7438 C.ar    1  UNL1       -0.0529
     15 C          -2.1306    1.5794   -2.7868 C.ar    1  UNL1       -0.0607
     16 C          -1.3541    1.1224   -3.8550 C.ar    1  UNL1       -0.0540
     17 C          -1.0980   -0.2440   -4.0094 C.ar    1  UNL1       -0.0174
     18 C          -1.8136   -1.0951   -3.1834 C.ar    1  UNL1       -0.0097
     19 C          -2.5894   -2.0487   -3.8776 C.ar    1  UNL1       -0.0536
     20 C          -2.4983   -2.1506   -5.2819 C.ar    1  UNL1       -0.0612
     21 C          -1.4495   -1.5326   -5.9501 C.ar    1  UNL1       -0.0612
     22 C          -0.6106   -0.7217   -5.2157 C.ar    1  UNL1       -0.0540
     23 H           0.1358    0.5929    0.2325 H       1  UNL1        0.0778
     24 H           0.4555    0.3702   -1.5262 H       1  UNL1        0.0778
     25 H           1.6477   -0.1931   -0.3454 H       1  UNL1        0.0778
     26 H          -0.1557   -3.1662    0.6928 H       1  UNL1        0.0861
     27 H           1.4405   -2.4219    0.5653 H       1  UNL1        0.0861
     28 H           0.9899   -0.8111    2.3073 H       1  UNL1        0.0625
     29 H          -1.6753   -2.3539    2.5421 H       1  UNL1        0.0622
     30 H          -2.4186   -2.3433    4.9166 H       1  UNL1        0.0623
     31 H          -3.0912   -0.9540    6.8299 H       1  UNL1        0.0618
     32 H          -2.2626    1.3704    7.0527 H       1  UNL1        0.0618
     33 H          -0.7020    2.2890    5.3578 H       1  UNL1        0.0618
     34 H          -0.0183    0.9404    3.4386 H       1  UNL1        0.0623
     35 H          -1.9439   -2.4348   -0.6819 H       1  UNL1        0.0867
     36 H          -2.0274   -0.9232    0.2535 H       1  UNL1        0.0867
     37 H          -2.8401    1.0988   -0.8205 H       1  UNL1        0.0622
     38 H          -2.4542    2.6161   -2.7501 H       1  UNL1        0.0618
     39 H          -1.0841    1.8171   -4.6488 H       1  UNL1        0.0624
     40 H          -3.4120   -2.5626   -3.3847 H       1  UNL1        0.0624
     41 H          -3.2261   -2.7193   -5.8538 H       1  UNL1        0.0618
     42 H          -1.2594   -1.7000   -7.0066 H       1  UNL1        0.0618
     43 H           0.4549   -0.9819   -5.2875 H       1  UNL1        0.0624
     44 H           0.2544   -1.9126   -1.3093 H       1  UNL1        0.2037
@<TRIPOS>UNITY_ATOM_ATTR
2 1
charge 1
@<TRIPOS>BOND
     1     1     2    1
     2     1    23    1
     3     1    24    1
     4     1    25    1
     5     2     3    1
     6     2    12    1
     7     2    44    1
     8     3     4    1
     9     3    26    1
    10     3    27    1
    11     4     5    2
    12     4    28    1
    13     5     6    1
    14     5    29    1
    15     6    11   ar
    16     6     7   ar
    17     7     8   ar
    18     7    30    1
    19     8     9   ar
    20     8    31    1
    21     9    10   ar
    22     9    32    1
    23    10    11   ar
    24    10    33    1
    25    11    34    1
    26    12    13    1
    27    12    35    1
    28    12    36    1
    29    13    18   ar
    30    13    14   ar
    31    14    15   ar
    32    14    37    1
    33    15    16   ar
    34    15    38    1
    35    16    17   ar
    36    16    39    1
    37    17    22   ar
    38    17    18   ar
    39    18    19   ar
    40    19    20   ar
    41    19    40    1
    42    20    21   ar
    43    20    41    1
    44    21    22   ar
    45    21    42    1
    46    22    43    1
