@<TRIPOS>MOLECULE
ZINC00057490
 35 37 0 0 0
SMALL
GASTEIGER

@<TRIPOS>ATOM
      1 C           1.3692   -0.2449    0.0120 C.ar    1  UNL1       -0.0616
      2 C           0.8772    1.0136   -0.3331 C.ar    1  UNL1       -0.0598
      3 C          -0.4986    1.2414   -0.3545 C.ar    1  UNL1       -0.0362
      4 C          -1.3799    0.2241    0.0233 C.ar    1  UNL1        0.0675
      5 C          -0.8857   -1.0392    0.3746 C.ar    1  UNL1       -0.0362
      6 C           0.4907   -1.2734    0.3518 C.ar    1  UNL1       -0.0598
      7 N          -2.7793    0.4780   -0.0001 N.ar    1  UNL1       -0.2154
      8 C          -3.7926   -0.1036    0.7387 C.ar    1  UNL1        0.1660
      9 C          -4.9816    0.3267    0.1970 C.ar    1  UNL1        0.0014
     10 C          -4.6030    1.2041   -0.8313 C.ar    1  UNL1        0.0518
     11 N          -3.2820    1.3419   -0.9407 N.ar    1  UNL1       -0.1730
     12 N          -3.6716   -0.9109    1.8221 N.pl3   1  UNL1       -0.0778
     13 S          -3.5801   -0.1038    3.2207 S.O2    1  UNL1        0.0930
     14 O          -2.9481   -0.8592    4.3038 O.2     1  UNL1       -0.1483
     15 O          -3.1677    1.2982    3.1642 O.2     1  UNL1       -0.1483
     16 C          -5.2987   -0.0165    3.8133 C.ar    1  UNL1        0.1105
     17 C          -5.9727   -1.2087    4.0876 C.ar    1  UNL1       -0.0333
     18 C          -7.3413   -1.1708    4.3673 C.ar    1  UNL1       -0.0392
     19 C          -8.0241    0.0498    4.4300 C.ar    1  UNL1        0.0247
     20 C          -7.3261    1.2321    4.1522 C.ar    1  UNL1       -0.0392
     21 C          -5.9586    1.2074    3.8674 C.ar    1  UNL1       -0.0333
     22 N          -9.4257    0.0680    4.5177 N.pl3   1  UNL1       -0.3580
     23 H           2.4403   -0.4234    0.0220 H       1  UNL1        0.0618
     24 H           1.5580    1.8237   -0.5742 H       1  UNL1        0.0618
     25 H          -0.8823    2.2252   -0.6144 H       1  UNL1        0.0639
     26 H          -1.5567   -1.8554    0.6254 H       1  UNL1        0.0639
     27 H           0.8696   -2.2592    0.6040 H       1  UNL1        0.0618
     28 H          -5.9810    0.0798    0.5196 H       1  UNL1        0.0669
     29 H          -5.2378    1.7614   -1.5051 H       1  UNL1        0.0848
     30 H          -5.4444   -2.1563    4.0311 H       1  UNL1        0.0638
     31 H          -7.8734   -2.1069    4.5066 H       1  UNL1        0.0636
     32 H          -7.8443    2.1851    4.1215 H       1  UNL1        0.0636
     33 H          -5.4255    2.1245    3.6352 H       1  UNL1        0.0638
     34 H          -9.8065   -0.7359    5.0037 H       1  UNL1        0.1423
     35 H          -9.7902    0.9496    4.8614 H       1  UNL1        0.1423
@<TRIPOS>BOND
     1     1     6   ar
     2     1     2   ar
     3     1    23    1
     4     2     3   ar
     5     2    24    1
     6     3     4   ar
     7     3    25    1
     8     4     5   ar
     9     4     7    1
    10     5     6   ar
    11     5    26    1
    12     6    27    1
    13     7    11   ar
    14     7     8   ar
    15     8     9   ar
    16     8    12    1
    17     9    10   ar
    18     9    28    1
    19    10    11   ar
    20    10    29    1
    21    12    13    1
    22    13    14    2
    23    13    15    2
    24    13    16    1
    25    16    21   ar
    26    16    17   ar
    27    17    18   ar
    28    17    30    1
    29    18    19   ar
    30    18    31    1
    31    19    20   ar
    32    19    22    1
    33    20    21   ar
    34    20    32    1
    35    21    33    1
    36    22    34    1
    37    22    35    1
