@<TRIPOS>MOLECULE
ZINC00000096
 39 40 0 0 0
SMALL
GASTEIGER

@<TRIPOS>ATOM
      1 C          -2.4661   -1.5624   -0.8259 C.3     1  UNL1       -0.0433
      2 N          -3.1480   -0.3523   -0.2511 N.4     1  UNL1        0.2309
      3 C          -3.1595   -0.3740    1.2530 C.3     1  UNL1       -0.0433
      4 C          -2.6920    0.9742   -0.8443 C.3     1  UNL1       -0.0315
      5 C          -1.1888    1.2048   -0.6983 C.3     1  UNL1       -0.0003
      6 C          -0.7256    2.5925   -1.2410 C.3     1  UNL1        0.0312
      7 H          -1.0289    2.6434   -2.2969 H       1  UNL1        0.0414
      8 C          -1.4437    3.7040   -0.4791 C.ar    1  UNL1       -0.0382
      9 C          -2.2817    4.5999   -1.1651 C.ar    1  UNL1       -0.0569
     10 C          -3.0452    5.5352   -0.4619 C.ar    1  UNL1       -0.0475
     11 C          -2.9699    5.5857    0.9276 C.ar    1  UNL1        0.0179
     12 C          -2.1008    4.7442    1.6180 C.ar    1  UNL1       -0.0475
     13 C          -1.3318    3.8153    0.9170 C.ar    1  UNL1       -0.0569
     14 BR         -4.0713    6.7847    1.8862 Br      1  UNL1       -0.0503
     15 C           0.8007    2.7044   -1.2564 C.ar    1  UNL1        0.0488
     16 C           1.4526    3.9387   -1.2839 C.ar    1  UNL1       -0.0398
     17 C           2.8425    3.9755   -1.3632 C.ar    1  UNL1       -0.0586
     18 C           3.5569    2.7868   -1.4437 C.ar    1  UNL1       -0.0436
     19 C           2.8419    1.6037   -1.4360 C.ar    1  UNL1        0.0279
     20 N           1.4932    1.5375   -1.3453 N.ar    1  UNL1       -0.2593
     21 H          -1.4216   -1.5700   -0.5069 H       1  UNL1        0.0777
     22 H          -2.5520   -1.5157   -1.9137 H       1  UNL1        0.0777
     23 H          -2.9833   -2.4501   -0.4481 H       1  UNL1        0.0777
     24 H          -2.1306   -0.3617    1.6191 H       1  UNL1        0.0777
     25 H          -3.7171    0.4983    1.6044 H       1  UNL1        0.0777
     26 H          -3.6694   -1.2879    1.5695 H       1  UNL1        0.0777
     27 H          -2.9812    0.9504   -1.9005 H       1  UNL1        0.0814
     28 H          -3.2913    1.7431   -0.3470 H       1  UNL1        0.0814
     29 H          -0.8833    1.0910    0.3485 H       1  UNL1        0.0326
     30 H          -0.6711    0.4164   -1.2572 H       1  UNL1        0.0326
     31 H          -2.3587    4.5761   -2.2514 H       1  UNL1        0.0621
     32 H          -3.7005    6.2142   -1.0040 H       1  UNL1        0.0629
     33 H          -2.0214    4.8018    2.7013 H       1  UNL1        0.0629
     34 H          -0.6491    3.1756    1.4734 H       1  UNL1        0.0621
     35 H           0.9034    4.8746   -1.2438 H       1  UNL1        0.0636
     36 H           3.3693    4.9276   -1.3729 H       1  UNL1        0.0619
     37 H           4.6408    2.7862   -1.5183 H       1  UNL1        0.0633
     38 H           3.3525    0.6481   -1.5131 H       1  UNL1        0.0829
     39 H          -4.1355   -0.4373   -0.5272 H       1  UNL1        0.2028
@<TRIPOS>UNITY_ATOM_ATTR
2 1
charge 1
@<TRIPOS>BOND
     1     1     2    1
     2     1    21    1
     3     1    22    1
     4     1    23    1
     5     2     3    1
     6     2     4    1
     7     2    39    1
     8     3    24    1
     9     3    25    1
    10     3    26    1
    11     4     5    1
    12     4    27    1
    13     4    28    1
    14     5     6    1
    15     5    29    1
    16     5    30    1
    17     6     7    1
    18     6     8    1
    19     6    15    1
    20     8    13   ar
    21     8     9   ar
    22     9    10   ar
    23     9    31    1
    24    10    11   ar
    25    10    32    1
    26    11    12   ar
    27    11    14    1
    28    12    13   ar
    29    12    33    1
    30    13    34    1
    31    15    20   ar
    32    15    16   ar
    33    16    17   ar
    34    16    35    1
    35    17    18   ar
    36    17    36    1
    37    18    19   ar
    38    18    37    1
    39    19    20   ar
    40    19    38    1
