@<TRIPOS>MOLECULE
ZINC00538658
 57 60 0 0 0
SMALL
GASTEIGER

@<TRIPOS>ATOM
      1 C          -0.2464    2.4611   -0.2408 C.3     1  UNL1       -0.0390
      2 C           0.2516    3.6717    0.4904 C.ar    1  UNL1       -0.0383
      3 C          -0.7011    4.7189    0.6219 C.ar    1  UNL1       -0.0581
      4 C          -0.4591    5.8547    1.3879 C.ar    1  UNL1       -0.0615
      5 C           0.7701    5.9488    2.0437 C.ar    1  UNL1       -0.0610
      6 C           1.7334    4.9530    1.8929 C.ar    1  UNL1       -0.0494
      7 C           1.5352    3.7956    1.0783 C.ar    1  UNL1        0.0399
      8 C           2.7024    2.7700    1.0548 C.2     1  UNL1        0.2485
      9 O           3.4672    2.7667    2.0099 O.2     1  UNL1       -0.2698
     10 N           2.8458    1.9159   -0.0546 N.am    1  UNL1       -0.2815
     11 C           3.7782    0.8122   -0.2335 C.ar    1  UNL1        0.0340
     12 C           3.6832    0.0211   -1.3749 C.ar    1  UNL1       -0.0397
     13 C           4.5371   -1.1204   -1.6095 C.ar    1  UNL1       -0.0476
     14 C           5.5794   -1.5903   -0.7518 C.ar    1  UNL1        0.0402
     15 C           5.6915   -0.7690    0.4107 C.ar    1  UNL1       -0.0366
     16 C           4.7927    0.4050    0.6362 C.ar    1  UNL1       -0.0368
     17 C           6.7105   -0.8720    1.5176 C.3     1  UNL1       -0.0389
     18 C           6.4070   -2.8130   -1.4403 C.2     1  UNL1        0.2511
     19 O           6.4183   -2.7749   -2.6851 O.2     1  UNL1       -0.2696
     20 N           7.0446   -3.9758   -0.8445 N.am    1  UNL1       -0.2671
     21 C           6.8739   -4.3410    0.5590 C.3     1  UNL1        0.0202
     22 C           5.8371   -5.4381    0.8469 C.3     1  UNL1       -0.0341
     23 C           4.6230   -5.4518   -0.0936 C.3     1  UNL1       -0.0212
     24 C           4.8983   -5.8536   -1.5471 C.3     1  UNL1        0.0820
     25 H           4.2757   -6.7206   -1.7983 H       1  UNL1        0.0644
     26 C           6.3413   -6.1940   -1.7875 C.ar    1  UNL1        0.0036
     27 C           7.3442   -5.2011   -1.6672 C.ar    1  UNL1        0.0423
     28 C           8.6493   -5.6126   -1.9975 C.ar    1  UNL1       -0.0385
     29 C           8.9463   -6.9680   -2.3425 C.ar    1  UNL1       -0.0416
     30 C           7.9488   -7.9426   -2.3028 C.ar    1  UNL1        0.0414
     31 C           6.6507   -7.5567   -2.0388 C.ar    1  UNL1       -0.0360
     32 CL          8.3149   -9.6117   -2.5235 Cl      1  UNL1       -0.0835
     33 O           4.4656   -4.8358   -2.4488 O.3     1  UNL1       -0.3871
     34 H          -1.2906    2.2726    0.0358 H       1  UNL1        0.0278
     35 H          -0.1975    2.6346   -1.3190 H       1  UNL1        0.0278
     36 H           0.3030    1.5603    0.0277 H       1  UNL1        0.0278
     37 H          -1.6822    4.6390    0.1461 H       1  UNL1        0.0620
     38 H          -1.2196    6.6208    1.5065 H       1  UNL1        0.0618
     39 H           0.9495    6.8172    2.6945 H       1  UNL1        0.0618
     40 H           2.6848    5.0782    2.4228 H       1  UNL1        0.0625
     41 H           2.2338    2.0949   -0.8384 H       1  UNL1        0.1551
     42 H           2.9425    0.2549   -2.1354 H       1  UNL1        0.0636
     43 H           4.3582   -1.6520   -2.5468 H       1  UNL1        0.0626
     44 H           4.9693    1.0102    1.5304 H       1  UNL1        0.0639
     45 H           7.3575    0.0127    1.5133 H       1  UNL1        0.0278
     46 H           6.1848   -0.8917    2.4835 H       1  UNL1        0.0278
     47 H           7.3552   -1.7413    1.4672 H       1  UNL1        0.0278
     48 H           7.8562   -4.6725    0.9280 H       1  UNL1        0.0469
     49 H           6.5924   -3.4682    1.1276 H       1  UNL1        0.0469
     50 H           6.3282   -6.4216    0.8344 H       1  UNL1        0.0281
     51 H           5.4905   -5.3122    1.8780 H       1  UNL1        0.0281
     52 H           3.9231   -6.1940    0.3101 H       1  UNL1        0.0294
     53 H           4.1086   -4.4863   -0.0592 H       1  UNL1        0.0294
     54 H           9.4852   -4.9174   -1.9749 H       1  UNL1        0.0637
     55 H           9.9512   -7.2729   -2.6178 H       1  UNL1        0.0633
     56 H           5.8708   -8.3157   -1.9753 H       1  UNL1        0.0636
     57 H           5.2532   -4.4518   -2.8939 H       1  UNL1        0.2102
@<TRIPOS>BOND
     1     1     2    1
     2     1    34    1
     3     1    35    1
     4     1    36    1
     5     2     7   ar
     6     2     3   ar
     7     3     4   ar
     8     3    37    1
     9     4     5   ar
    10     4    38    1
    11     5     6   ar
    12     5    39    1
    13     6     7   ar
    14     6    40    1
    15     7     8    1
    16     8     9    2
    17     8    10   am
    18    10    11    1
    19    10    41    1
    20    11    16   ar
    21    11    12   ar
    22    12    13   ar
    23    12    42    1
    24    13    14   ar
    25    13    43    1
    26    14    15   ar
    27    14    18    1
    28    15    16   ar
    29    15    17    1
    30    16    44    1
    31    17    45    1
    32    17    46    1
    33    17    47    1
    34    18    19    2
    35    18    20   am
    36    20    27    1
    37    20    21    1
    38    21    22    1
    39    21    48    1
    40    21    49    1
    41    22    23    1
    42    22    50    1
    43    22    51    1
    44    23    24    1
    45    23    52    1
    46    23    53    1
    47    24    26    1
    48    26    31   ar
    49    26    27   ar
    50    27    28   ar
    51    28    29   ar
    52    28    54    1
    53    29    30   ar
    54    29    55    1
    55    30    31   ar
    56    30    32    1
    57    31    56    1
    58    33    57    1
    59    24    33    1
    60    24    25    1
