@<TRIPOS>MOLECULE
ZINC00004351
 42 45 0 0 0
SMALL
GASTEIGER

@<TRIPOS>ATOM
      1 C           1.1155   -0.0420   -0.1201 C.3     1  UNL1       -0.0431
      2 N           0.6217   -0.9543   -1.2117 N.4     1  UNL1        0.2335
      3 C           1.0568   -2.3983   -0.9679 C.3     1  UNL1       -0.0284
      4 C           0.4587   -3.3479   -2.0184 C.3     1  UNL1        0.0097
      5 C          -1.0515   -3.1953   -2.0148 C.2     1  UNL1       -0.0512
      6 C          -1.9697   -4.1282   -1.6304 C.2     1  UNL1       -0.0097
      7 C          -3.3987   -3.6892   -1.6429 C.ar    1  UNL1       -0.0137
      8 C          -3.8438   -2.6998   -0.7484 C.ar    1  UNL1       -0.0537
      9 C          -5.1135   -2.1432   -0.8845 C.ar    1  UNL1       -0.0612
     10 C          -5.9689   -2.6128   -1.8757 C.ar    1  UNL1       -0.0615
     11 C          -5.5772   -3.6725   -2.6954 C.ar    1  UNL1       -0.0576
     12 C          -4.2965   -4.2330   -2.5765 C.ar    1  UNL1       -0.0322
     13 C          -3.9006   -5.4151   -3.4280 C.3     1  UNL1        0.0367
     14 C          -3.5587   -6.6528   -2.6149 C.2     1  UNL1        0.1745
     15 O          -4.2333   -7.6743   -2.7744 O.2     1  UNL1       -0.2911
     16 C          -2.4073   -6.5861   -1.7071 C.ar    1  UNL1        0.0626
     17 C          -1.6641   -5.4954   -1.2601 C.ar    1  UNL1        0.0002
     18 C          -0.6488   -5.9028   -0.3322 C.ar    1  UNL1       -0.0463
     19 C          -0.6085   -7.2660   -0.1516 C.ar    1  UNL1       -0.0231
     20 S          -1.8216   -8.0598   -1.0428 S.2     1  UNL1       -0.0931
     21 C          -1.3780   -1.7727   -2.4671 C.3     1  UNL1        0.0097
     22 C          -0.8788   -0.7936   -1.4067 C.3     1  UNL1       -0.0284
     23 H           0.6984   -0.3769    0.8336 H       1  UNL1        0.0777
     24 H           0.7882    0.9746   -0.3511 H       1  UNL1        0.0777
     25 H           2.2074   -0.0942   -0.1080 H       1  UNL1        0.0777
     26 H           0.7299   -2.6689    0.0426 H       1  UNL1        0.0817
     27 H           2.1505   -2.4070   -1.0147 H       1  UNL1        0.0817
     28 H           0.7978   -4.3679   -1.8336 H       1  UNL1        0.0362
     29 H           0.8465   -3.0902   -3.0130 H       1  UNL1        0.0362
     30 H          -3.1945   -2.3374    0.0419 H       1  UNL1        0.0624
     31 H          -5.4359   -1.3424   -0.2237 H       1  UNL1        0.0618
     32 H          -6.9569   -2.1723   -1.9942 H       1  UNL1        0.0618
     33 H          -6.2852   -4.0586   -3.4273 H       1  UNL1        0.0621
     34 H          -4.7285   -5.6836   -4.0974 H       1  UNL1        0.0394
     35 H          -3.0557   -5.1624   -4.0780 H       1  UNL1        0.0394
     36 H           0.0269   -5.2418    0.1922 H       1  UNL1        0.0629
     37 H           0.0616   -7.8370    0.4780 H       1  UNL1        0.0694
     38 H          -0.8791   -1.5760   -3.4255 H       1  UNL1        0.0362
     39 H          -2.4371   -1.5968   -2.6678 H       1  UNL1        0.0362
     40 H          -1.0537    0.2407   -1.7208 H       1  UNL1        0.0817
     41 H          -1.3516   -0.9630   -0.4334 H       1  UNL1        0.0817
     42 H           1.0675   -0.6493   -2.0871 H       1  UNL1        0.2031
@<TRIPOS>UNITY_ATOM_ATTR
2 1
charge 1
@<TRIPOS>BOND
     1     1     2    1
     2     1    23    1
     3     1    24    1
     4     1    25    1
     5     2    22    1
     6     2     3    1
     7     2    42    1
     8     3     4    1
     9     3    26    1
    10     3    27    1
    11     4     5    1
    12     4    28    1
    13     4    29    1
    14     5     6    2
    15     5    21    1
    16     6    17    1
    17     6     7    1
    18     7    12   ar
    19     7     8   ar
    20     8     9   ar
    21     8    30    1
    22     9    10   ar
    23     9    31    1
    24    10    11   ar
    25    10    32    1
    26    11    12   ar
    27    11    33    1
    28    12    13    1
    29    13    14    1
    30    13    34    1
    31    13    35    1
    32    14    15    2
    33    14    16    1
    34    16    20   ar
    35    16    17   ar
    36    17    18   ar
    37    18    19   ar
    38    18    36    1
    39    19    20   ar
    40    19    37    1
    41    21    22    1
    42    21    38    1
    43    21    39    1
    44    22    40    1
    45    22    41    1
