@<TRIPOS>MOLECULE
ZINC03812918
 62 64 0 0 0
SMALL
GASTEIGER

@<TRIPOS>ATOM
      1 C           0.3098    1.9650    3.5987 C.3     1  UNL1       -0.0606
      2 C          -0.2383    2.6412    2.3416 C.3     1  UNL1       -0.0232
      3 C           0.0390    4.1442    2.3810 C.3     1  UNL1       -0.0606
      4 C           0.3256    2.0272    1.0322 C.3     1  UNL1        0.0502
      5 O           0.0856    0.6130    0.8404 O.3     1  UNL1       -0.3739
      6 C          -1.3097    0.3363    0.7111 C.3     1  UNL1        0.0918
      7 C          -1.6730   -1.1725    0.5640 C.3     1  UNL1        0.0190
      8 H          -1.2218   -1.5338   -0.3693 H       1  UNL1        0.0890
      9 C          -1.0853   -1.9962    1.7240 C.3     1  UNL1        0.0576
     10 N          -1.3552   -1.7125    3.1750 N.pl3   1  UNL1       -0.3201
     11 C          -0.6001   -2.7334    4.0034 C.3     1  UNL1        0.0374
     12 C           0.7117   -2.2640    4.6077 C.ar    1  UNL1       -0.0302
     13 C           1.6589   -1.5121    3.8969 C.ar    1  UNL1       -0.0571
     14 C           2.8892   -1.1702    4.4708 C.ar    1  UNL1       -0.0615
     15 C           3.1989   -1.5803    5.7638 C.ar    1  UNL1       -0.0617
     16 C           2.2925   -2.3623    6.4721 C.ar    1  UNL1       -0.0615
     17 C           1.0683   -2.7131    5.8937 C.ar    1  UNL1       -0.0571
     18 C          -2.4174   -1.0550    3.8004 C.ar    1  UNL1        0.0301
     19 C          -2.6192   -1.1070    5.1947 C.ar    1  UNL1       -0.0406
     20 C          -3.7557   -0.5944    5.8420 C.ar    1  UNL1       -0.0600
     21 C          -4.7396    0.0588    5.1256 C.ar    1  UNL1       -0.0616
     22 C          -4.5298    0.2806    3.7907 C.ar    1  UNL1       -0.0600
     23 C          -3.3802   -0.2332    3.1783 C.ar    1  UNL1       -0.0406
     24 N          -3.2026   -1.4803    0.4021 N.4     1  UNL1        0.2401
     25 C          -3.6166   -2.8906    0.0453 C.3     1  UNL1       -0.0313
     26 C          -3.6580   -2.8816   -1.4575 C.3     1  UNL1       -0.0077
     27 C          -4.1406   -1.4883   -1.8221 C.3     1  UNL1       -0.0077
     28 C          -3.9714   -0.6295   -0.5787 C.3     1  UNL1       -0.0313
     29 H           1.3942    1.8430    3.5469 H       1  UNL1        0.0233
     30 H          -0.1436    0.9796    3.7351 H       1  UNL1        0.0233
     31 H           0.0751    2.5508    4.4969 H       1  UNL1        0.0233
     32 H          -1.3292    2.5377    2.3677 H       1  UNL1        0.0318
     33 H           1.1112    4.3528    2.3568 H       1  UNL1        0.0233
     34 H          -0.4317    4.6441    1.5278 H       1  UNL1        0.0233
     35 H          -0.3729    4.5932    3.2917 H       1  UNL1        0.0233
     36 H          -0.0903    2.5627    0.1685 H       1  UNL1        0.0562
     37 H           1.4109    2.1715    0.9981 H       1  UNL1        0.0562
     38 H          -1.7394    0.7344    1.6109 H       1  UNL1        0.0617
     39 H          -1.6877    0.9160   -0.1318 H       1  UNL1        0.0617
     40 H          -1.3472   -3.0469    1.5578 H       1  UNL1        0.0520
     41 H           0.0017   -1.9800    1.5802 H       1  UNL1        0.0520
     42 H          -1.2481   -3.1796    4.7672 H       1  UNL1        0.0513
     43 H          -0.3433   -3.6012    3.3779 H       1  UNL1        0.0513
     44 H           1.4658   -1.1737    2.8849 H       1  UNL1        0.0621
     45 H           3.6085   -0.5819    3.9056 H       1  UNL1        0.0618
     46 H           4.1472   -1.2982    6.2149 H       1  UNL1        0.0618
     47 H           2.5424   -2.7048    7.4739 H       1  UNL1        0.0618
     48 H           0.3973   -3.3545    6.4620 H       1  UNL1        0.0621
     49 H          -1.8704   -1.5452    5.8536 H       1  UNL1        0.0636
     50 H          -3.8572   -0.7069    6.9187 H       1  UNL1        0.0618
     51 H          -5.6416    0.4340    5.6121 H       1  UNL1        0.0618
     52 H          -5.2399    0.8683    3.2095 H       1  UNL1        0.0618
     53 H          -3.3117    0.1308    2.1764 H       1  UNL1        0.0636
     54 H          -4.6235   -3.0236    0.4668 H       1  UNL1        0.0814
     55 H          -2.9520   -3.6303    0.4866 H       1  UNL1        0.0814
     56 H          -2.6527   -3.0508   -1.8559 H       1  UNL1        0.0319
     57 H          -4.3125   -3.6644   -1.8520 H       1  UNL1        0.0319
     58 H          -3.5609   -1.0908   -2.6612 H       1  UNL1        0.0319
     59 H          -5.1921   -1.4994   -2.1292 H       1  UNL1        0.0319
     60 H          -3.4660    0.3126   -0.7797 H       1  UNL1        0.0814
     61 H          -4.9386   -0.4151   -0.1097 H       1  UNL1        0.0814
     62 H          -3.6123   -1.4031    1.3347 H       1  UNL1        0.2038
@<TRIPOS>UNITY_ATOM_ATTR
24 1
charge 1
@<TRIPOS>BOND
     1     1     2    1
     2     1    29    1
     3     1    30    1
     4     1    31    1
     5     2     3    1
     6     2     4    1
     7     2    32    1
     8     3    33    1
     9     3    34    1
    10     3    35    1
    11     4     5    1
    12     4    36    1
    13     4    37    1
    14     5     6    1
    15     6     7    1
    16     6    38    1
    17     6    39    1
    18     7     8    1
    19     7     9    1
    20     7    24    1
    21     9    10    1
    22     9    40    1
    23     9    41    1
    24    10    11    1
    25    10    18    1
    26    11    12    1
    27    11    42    1
    28    11    43    1
    29    12    17   ar
    30    12    13   ar
    31    13    14   ar
    32    13    44    1
    33    14    15   ar
    34    14    45    1
    35    15    16   ar
    36    15    46    1
    37    16    17   ar
    38    16    47    1
    39    17    48    1
    40    18    23   ar
    41    18    19   ar
    42    19    20   ar
    43    19    49    1
    44    20    21   ar
    45    20    50    1
    46    21    22   ar
    47    21    51    1
    48    22    23   ar
    49    22    52    1
    50    23    53    1
    51    24    28    1
    52    24    25    1
    53    24    62    1
    54    25    26    1
    55    25    54    1
    56    25    55    1
    57    26    27    1
    58    26    56    1
    59    26    57    1
    60    27    28    1
    61    27    58    1
    62    27    59    1
    63    28    60    1
    64    28    61    1
