@<TRIPOS>MOLECULE
ZINC03777838
 38 40 0 0 0
SMALL
GASTEIGER

@<TRIPOS>ATOM
      1 C          -0.1567    1.2234   -0.0829 C.ar    1  UNL1       -0.0610
      2 C          -1.3745    1.1125   -0.7542 C.ar    1  UNL1       -0.0590
      3 C          -1.8576   -0.1450   -1.1150 C.ar    1  UNL1       -0.0258
      4 C          -1.1120   -1.2848   -0.8222 C.ar    1  UNL1        0.1325
      5 C           0.1387   -1.1845   -0.2075 C.ar    1  UNL1        0.0358
      6 C           0.5986    0.0798    0.1921 C.ar    1  UNL1       -0.0498
      7 C           1.0227   -2.3829   -0.0037 C.2     1  UNL1        0.0807
      8 N           1.7837   -2.3521    1.0363 N.2     1  UNL1       -0.2427
      9 C           2.6475   -3.4787    1.3624 C.3     1  UNL1        0.2248
     10 H           3.1356   -3.2442    2.3146 H       1  UNL1        0.0952
     11 C           1.7304   -4.6924    1.6588 C.2     1  UNL1        0.2712
     12 O           1.4718   -5.0371    2.8167 O.2     1  UNL1       -0.2702
     13 N           1.2406   -5.4004    0.5557 N.am    1  UNL1       -0.2661
     14 C           1.1719   -4.8516   -0.7690 C.ar    1  UNL1        0.0457
     15 C           1.0530   -3.4663   -1.0455 C.ar    1  UNL1        0.0235
     16 C           1.0023   -3.0193   -2.3859 C.ar    1  UNL1       -0.0324
     17 C           1.0319   -3.9182   -3.4436 C.ar    1  UNL1        0.0417
     18 C           1.1590   -5.2723   -3.1919 C.ar    1  UNL1       -0.0416
     19 C           1.2289   -5.7297   -1.8718 C.ar    1  UNL1       -0.0383
     20 CL          0.9269   -3.3448   -5.0597 Cl      1  UNL1       -0.0835
     21 C           0.6713   -6.7269    0.8525 C.3     1  UNL1        0.0327
     22 C          -0.8253   -6.6740    1.1576 C.3     1  UNL1        0.0509
     23 C          -1.3406   -8.0198    1.4330 C.1     1  UNL1        0.0641
     24 N          -1.7456   -9.0924    1.6302 N.1     1  UNL1       -0.1965
     25 O           3.7081   -3.7316    0.4605 O.3     1  UNL1       -0.3636
     26 F          -1.6180   -2.4790   -1.1641 F       1  UNL1       -0.2048
     27 H           0.2112    2.2024    0.2183 H       1  UNL1        0.0618
     28 H          -1.9498    2.0051   -0.9892 H       1  UNL1        0.0618
     29 H          -2.8083   -0.2444   -1.6299 H       1  UNL1        0.0646
     30 H           1.5533    0.1840    0.7049 H       1  UNL1        0.0625
     31 H           0.9328   -1.9589   -2.6204 H       1  UNL1        0.0639
     32 H           1.2252   -5.9815   -4.0137 H       1  UNL1        0.0633
     33 H           1.3958   -6.7960   -1.7467 H       1  UNL1        0.0637
     34 H           0.8801   -7.4394    0.0506 H       1  UNL1        0.0478
     35 H           1.1987   -7.1433    1.7222 H       1  UNL1        0.0478
     36 H          -1.0161   -6.0198    2.0155 H       1  UNL1        0.0433
     37 H          -1.3639   -6.2438    0.3053 H       1  UNL1        0.0433
     38 H           3.5036   -3.2228   -0.3367 H       1  UNL1        0.2125
@<TRIPOS>BOND
     1     1     6   ar
     2     1     2   ar
     3     1    27    1
     4     2     3   ar
     5     2    28    1
     6     3     4   ar
     7     3    29    1
     8     4     5   ar
     9     4    26    1
    10     5     6   ar
    11     5     7    1
    12     6    30    1
    13     7    15    1
    14     7     8    2
    15     8     9    1
    16     9    11    1
    17    11    12    2
    18    11    13   am
    19    13    14    1
    20    13    21    1
    21    14    19   ar
    22    14    15   ar
    23    15    16   ar
    24    16    17   ar
    25    16    31    1
    26    17    18   ar
    27    17    20    1
    28    18    19   ar
    29    18    32    1
    30    19    33    1
    31    21    22    1
    32    21    34    1
    33    21    35    1
    34    22    23    1
    35    22    36    1
    36    22    37    1
    37    23    24    3
    38    25    38    1
    39     9    25    1
    40     9    10    1
