@<TRIPOS>MOLECULE
ZINC03802189
 49 48 0 0 0
SMALL
GASTEIGER

@<TRIPOS>ATOM
      1 C          -7.0200    5.4705   -1.1024 C.3     1  UNL1       -0.0618
      2 C          -6.0974    4.6110   -0.2536 C.3     1  UNL1       -0.0376
      3 C          -6.1762    3.1537   -0.6024 C.2     1  UNL1       -0.0879
      4 C          -5.1519    2.3843   -1.0079 C.2     1  UNL1       -0.0842
      5 C          -3.7659    2.8683   -1.3300 C.3     1  UNL1       -0.0165
      6 C          -2.9238    1.7978   -1.9815 C.2     1  UNL1       -0.0839
      7 C          -2.7864    1.5868   -3.3037 C.2     1  UNL1       -0.0839
      8 C          -3.4573    2.3646   -4.4032 C.3     1  UNL1       -0.0165
      9 C          -4.9514    2.2222   -4.3728 C.2     1  UNL1       -0.0842
     10 C          -5.7940    2.2649   -5.4124 C.2     1  UNL1       -0.0876
     11 C          -5.3809    2.4612   -6.8293 C.3     1  UNL1       -0.0348
     12 C          -6.6106    2.5338   -7.7182 C.3     1  UNL1       -0.0496
     13 C          -6.1973    2.6790   -9.1744 C.3     1  UNL1       -0.0528
     14 C          -7.4296    2.7255  -10.0638 C.3     1  UNL1       -0.0530
     15 C          -7.0378    2.8662  -11.5301 C.3     1  UNL1       -0.0526
     16 C          -8.2871    2.9138  -12.4035 C.3     1  UNL1       -0.0428
     17 C          -7.9358    3.0609  -13.8758 C.3     1  UNL1        0.0492
     18 C          -9.1464    3.1097  -14.8100 C.2     1  UNL1        0.3560
     19 O          -8.8509    3.2275  -16.0325 O.co2   1  UNL1       -0.2464
     20 O         -10.2869    3.0268  -14.2691 O.co2   1  UNL1       -0.2464
     21 H          -6.7992    5.3654   -2.1696 H       1  UNL1        0.0233
     22 H          -6.8948    6.5249   -0.8331 H       1  UNL1        0.0233
     23 H          -8.0702    5.2064   -0.9398 H       1  UNL1        0.0233
     24 H          -5.0746    4.9891   -0.3482 H       1  UNL1        0.0305
     25 H          -6.3754    4.7196    0.8008 H       1  UNL1        0.0305
     26 H          -7.1542    2.6857   -0.4937 H       1  UNL1        0.0569
     27 H          -5.3630    1.3348   -1.2127 H       1  UNL1        0.0572
     28 H          -3.8215    3.7446   -1.9946 H       1  UNL1        0.0350
     29 H          -3.2615    3.1972   -0.4169 H       1  UNL1        0.0350
     30 H          -2.3879    1.1462   -1.2938 H       1  UNL1        0.0572
     31 H          -2.1356    0.7767   -3.6288 H       1  UNL1        0.0572
     32 H          -3.1803    3.4213   -4.3165 H       1  UNL1        0.0350
     33 H          -3.0561    2.0139   -5.3620 H       1  UNL1        0.0350
     34 H          -5.4264    2.0912   -3.4133 H       1  UNL1        0.0572
     35 H          -6.8576    2.1647   -5.1968 H       1  UNL1        0.0569
     36 H          -4.8019    3.3888   -6.9196 H       1  UNL1        0.0307
     37 H          -4.7466    1.6254   -7.1398 H       1  UNL1        0.0307
     38 H          -7.2156    1.6263   -7.5935 H       1  UNL1        0.0268
     39 H          -7.2413    3.3822   -7.4210 H       1  UNL1        0.0268
     40 H          -5.6057    3.5932   -9.3014 H       1  UNL1        0.0265
     41 H          -5.5594    1.8344   -9.4620 H       1  UNL1        0.0265
     42 H          -8.0197    1.8110   -9.9240 H       1  UNL1        0.0265
     43 H          -8.0658    3.5681   -9.7667 H       1  UNL1        0.0265
     44 H          -6.4474    3.7797  -11.6684 H       1  UNL1        0.0265
     45 H          -6.4042    2.0210  -11.8261 H       1  UNL1        0.0265
     46 H          -8.8715    1.9982  -12.2510 H       1  UNL1        0.0270
     47 H          -8.9195    3.7524  -12.0875 H       1  UNL1        0.0270
     48 H          -7.3591    3.9811  -14.0285 H       1  UNL1        0.0379
     49 H          -7.3036    2.2215  -14.1906 H       1  UNL1        0.0379
@<TRIPOS>BOND
     1     1     2    1
     2     1    21    1
     3     1    22    1
     4     1    23    1
     5     2     3    1
     6     2    24    1
     7     2    25    1
     8     3     4    2
     9     3    26    1
    10     4     5    1
    11     4    27    1
    12     5     6    1
    13     5    28    1
    14     5    29    1
    15     6     7    2
    16     6    30    1
    17     7     8    1
    18     7    31    1
    19     8     9    1
    20     8    32    1
    21     8    33    1
    22     9    10    2
    23     9    34    1
    24    10    11    1
    25    10    35    1
    26    11    12    1
    27    11    36    1
    28    11    37    1
    29    12    13    1
    30    12    38    1
    31    12    39    1
    32    13    14    1
    33    13    40    1
    34    13    41    1
    35    14    15    1
    36    14    42    1
    37    14    43    1
    38    15    16    1
    39    15    44    1
    40    15    45    1
    41    16    17    1
    42    16    46    1
    43    16    47    1
    44    17    18    1
    45    17    48    1
    46    17    49    1
    47    18    19   ar
    48    18    20   ar
