@<TRIPOS>MOLECULE
ZINC00896683
 42 45 0 0 0
SMALL
GASTEIGER

@<TRIPOS>ATOM
      1 C          -0.9093   -1.3408   -0.7113 C.3     1  UNL1       -0.0431
      2 N           0.0649   -1.0122    0.3735 N.4     1  UNL1        0.2333
      3 C           1.3160   -1.8403    0.2938 C.3     1  UNL1       -0.0317
      4 C           2.3325   -0.9748   -0.4336 C.3     1  UNL1       -0.0034
      5 C           1.8453    0.4719   -0.3395 C.3     1  UNL1        0.0200
      6 H           2.5365    0.9964    0.3413 H       1  UNL1        0.0370
      7 C           0.5067    0.4262    0.3815 C.3     1  UNL1       -0.0276
      8 C           1.8885    1.3120   -1.6406 C.3     1  UNL1        0.0252
      9 N           1.0908    0.7947   -2.7820 N.pl3   1  UNL1       -0.2979
     10 C          -0.2565    1.2046   -2.9434 C.ar    1  UNL1        0.0479
     11 C          -0.7194    2.4565   -2.5018 C.ar    1  UNL1       -0.0393
     12 C          -2.0618    2.8366   -2.6272 C.ar    1  UNL1       -0.0599
     13 C          -2.9814    1.9736   -3.2057 C.ar    1  UNL1       -0.0606
     14 C          -2.5523    0.7516   -3.7075 C.ar    1  UNL1       -0.0462
     15 C          -1.1949    0.3799   -3.6096 C.ar    1  UNL1        0.0341
     16 S          -0.7616   -1.2125   -4.2998 S.3     1  UNL1       -0.0857
     17 C           1.0068   -1.0353   -4.4441 C.ar    1  UNL1        0.0341
     18 C           1.7323   -0.0532   -3.7311 C.ar    1  UNL1        0.0479
     19 C           3.0959    0.0829   -4.0544 C.ar    1  UNL1       -0.0393
     20 C           3.7283   -0.7686   -4.9670 C.ar    1  UNL1       -0.0599
     21 C           3.0159   -1.7918   -5.5751 C.ar    1  UNL1       -0.0606
     22 C           1.6559   -1.9221   -5.3189 C.ar    1  UNL1       -0.0462
     23 H          -0.3446   -1.4452   -1.6300 H       1  UNL1        0.0777
     24 H          -1.3873   -2.2895   -0.4591 H       1  UNL1        0.0777
     25 H          -1.6593   -0.5481   -0.7650 H       1  UNL1        0.0777
     26 H           1.6206   -2.0505    1.3236 H       1  UNL1        0.0814
     27 H           1.1046   -2.7841   -0.2212 H       1  UNL1        0.0814
     28 H           2.4584   -1.3194   -1.4604 H       1  UNL1        0.0322
     29 H           3.3130   -1.0838    0.0477 H       1  UNL1        0.0322
     30 H          -0.2809    1.0688   -0.0157 H       1  UNL1        0.0818
     31 H           0.6456    0.6735    1.4420 H       1  UNL1        0.0818
     32 H           1.5990    2.3341   -1.3810 H       1  UNL1        0.0472
     33 H           2.9431    1.4237   -1.9032 H       1  UNL1        0.0472
     34 H          -0.0422    3.2068   -2.1073 H       1  UNL1        0.0636
     35 H          -2.3806    3.8232   -2.2957 H       1  UNL1        0.0618
     36 H          -4.0251    2.2652   -3.3002 H       1  UNL1        0.0618
     37 H          -3.2716    0.0959   -4.1908 H       1  UNL1        0.0629
     38 H           3.6961    0.8967   -3.6594 H       1  UNL1        0.0636
     39 H           4.7751   -0.6132   -5.2189 H       1  UNL1        0.0618
     40 H           3.5061   -2.4575   -6.2812 H       1  UNL1        0.0618
     41 H           1.0975   -2.7036   -5.8315 H       1  UNL1        0.0629
     42 H          -0.4155   -1.2105    1.2607 H       1  UNL1        0.2031
@<TRIPOS>UNITY_ATOM_ATTR
2 1
charge 1
@<TRIPOS>BOND
     1     1    23    1
     2     1    24    1
     3     1    25    1
     4     2     7    1
     5     2     3    1
     6     3     4    1
     7     3    26    1
     8     3    27    1
     9     4     5    1
    10     4    28    1
    11     4    29    1
    12     5     7    1
    13     7    30    1
    14     7    31    1
    15     8     9    1
    16     8    32    1
    17     8    33    1
    18     9    18    1
    19     9    10    1
    20    10    15   ar
    21    10    11   ar
    22    11    12   ar
    23    11    34    1
    24    12    13   ar
    25    12    35    1
    26    13    14   ar
    27    13    36    1
    28    14    15   ar
    29    14    37    1
    30    15    16    1
    31    16    17    1
    32    17    22   ar
    33    17    18   ar
    34    18    19   ar
    35    19    20   ar
    36    19    38    1
    37    20    21   ar
    38    20    39    1
    39    21    22   ar
    40    21    40    1
    41    22    41    1
    42     2    42    1
    43     2     1    1
    44     5     8    1
    45     5     6    1
