@<TRIPOS>MOLECULE
ZINC01552908
 68 69 0 0 0
SMALL
GASTEIGER

@<TRIPOS>ATOM
      1 C          -6.6529   -2.2631   -2.8272 C.3     1  UNL1       -0.0525
      2 C          -6.7673   -0.8983   -3.5008 C.3     1  UNL1        0.0512
      3 C          -7.4550    0.0991   -2.5748 C.3     1  UNL1       -0.0525
      4 C          -5.4023   -0.4564   -4.0271 C.2     1  UNL1        0.3149
      5 O          -4.7252   -1.1489   -4.7793 O.2     1  UNL1       -0.2501
      6 O          -5.0595    0.8364   -3.6155 O.3     1  UNL1       -0.4254
      7 C          -4.1919    1.5482   -4.4718 C.ar    1  UNL1        0.1354
      8 C          -4.5031    1.5961   -5.8437 C.ar    1  UNL1       -0.0186
      9 C          -3.7093    2.3184   -6.7295 C.ar    1  UNL1       -0.0529
     10 C          -2.6472    3.0748   -6.2468 C.ar    1  UNL1       -0.0217
     11 C          -2.3935    3.1005   -4.8639 C.ar    1  UNL1       -0.0491
     12 C          -3.1139    2.2938   -3.9520 C.ar    1  UNL1        0.0029
     13 C          -2.6550    2.2057   -2.4916 C.3     1  UNL1        0.0175
     14 H          -3.0800    1.2789   -2.0830 H       1  UNL1        0.0400
     15 C          -3.2819    3.3792   -1.6627 C.3     1  UNL1       -0.0016
     16 C          -2.6661    4.7731   -1.8975 C.3     1  UNL1       -0.0306
     17 C          -3.1398    5.6352    0.5086 C.3     1  UNL1       -0.0264
     18 C          -1.6803    5.5208    0.9341 C.3     1  UNL1       -0.0218
     19 C          -3.8896    6.6726    1.3420 C.3     1  UNL1       -0.0218
     20 C          -3.1761    7.3016   -1.5310 C.3     1  UNL1       -0.0264
     21 C          -1.7339    7.7080   -1.7994 C.3     1  UNL1       -0.0218
     22 C          -4.0283    7.5067   -2.7890 C.3     1  UNL1       -0.0218
     23 C          -1.1320    2.0314   -2.2794 C.ar    1  UNL1       -0.0397
     24 C          -0.2788    1.5703   -3.3004 C.ar    1  UNL1       -0.0580
     25 C           1.1114    1.5457   -3.1436 C.ar    1  UNL1       -0.0615
     26 C           1.6827    1.9118   -1.9326 C.ar    1  UNL1       -0.0617
     27 C           0.8580    2.2542   -0.8681 C.ar    1  UNL1       -0.0615
     28 C          -0.5328    2.2882   -1.0343 C.ar    1  UNL1       -0.0580
     29 C          -1.7236    3.8173   -7.1717 C.3     1  UNL1        0.0692
     30 O          -1.7225    5.1910   -6.8045 O.3     1  UNL1       -0.3904
     31 H          -6.0198   -2.2124   -1.9355 H       1  UNL1        0.0237
     32 H          -6.2134   -3.0034   -3.5048 H       1  UNL1        0.0237
     33 H          -7.6391   -2.6348   -2.5272 H       1  UNL1        0.0237
     34 H          -7.4063   -1.0024   -4.3886 H       1  UNL1        0.0408
     35 H          -6.8691    0.2738   -1.6671 H       1  UNL1        0.0237
     36 H          -7.6015    1.0623   -3.0751 H       1  UNL1        0.0237
     37 H          -8.4433   -0.2687   -2.2761 H       1  UNL1        0.0237
     38 H          -5.3383    1.0241   -6.2453 H       1  UNL1        0.0654
     39 H          -3.9222    2.2709   -7.7944 H       1  UNL1        0.0622
     40 H          -1.5463    3.6901   -4.5252 H       1  UNL1        0.0625
     41 H          -4.3595    3.4300   -1.8702 H       1  UNL1        0.0326
     42 H          -3.2010    3.1143   -0.6039 H       1  UNL1        0.0326
     43 H          -1.5948    4.8179   -1.6930 H       1  UNL1        0.0815
     44 H          -2.8389    5.0745   -2.9307 H       1  UNL1        0.0815
     45 H          -3.6308    4.6800    0.7214 H       1  UNL1        0.0846
     46 H          -1.0225    6.2501    0.4697 H       1  UNL1        0.0284
     47 H          -1.5810    5.6496    2.0181 H       1  UNL1        0.0284
     48 H          -1.2856    4.5301    0.7047 H       1  UNL1        0.0284
     49 H          -4.9119    6.8185    0.9797 H       1  UNL1        0.0284
     50 H          -3.9597    6.3294    2.3819 H       1  UNL1        0.0284
     51 H          -3.3733    7.6374    1.3650 H       1  UNL1        0.0284
     52 H          -3.5944    7.9614   -0.7668 H       1  UNL1        0.0846
     53 H          -1.2956    7.1507   -2.6318 H       1  UNL1        0.0284
     54 H          -1.6985    8.7722   -2.0660 H       1  UNL1        0.0284
     55 H          -1.0917    7.6044   -0.9281 H       1  UNL1        0.0284
     56 H          -5.0929    7.3816   -2.5702 H       1  UNL1        0.0284
     57 H          -3.8916    8.5245   -3.1756 H       1  UNL1        0.0284
     58 H          -3.7615    6.8249   -3.6007 H       1  UNL1        0.0284
     59 H          -0.6710    1.2337   -4.2582 H       1  UNL1        0.0620
     60 H           1.7442    1.2364   -3.9730 H       1  UNL1        0.0618
     61 H           2.7635    1.8957   -1.8122 H       1  UNL1        0.0618
     62 H           1.3010    2.4850    0.0976 H       1  UNL1        0.0618
     63 H          -1.1319    2.5135   -0.1585 H       1  UNL1        0.0620
     64 H          -0.7054    3.4217   -7.0825 H       1  UNL1        0.0607
     65 H          -2.0331    3.7297   -8.2178 H       1  UNL1        0.0607
     66 H          -2.6420    5.4919   -6.9001 H       1  UNL1        0.2098
     67 N          -3.3387    5.8515   -1.0095 N.4     1  UNL1        0.2388
     68 H          -4.3452    5.6799   -1.1339 H       1  UNL1        0.2038
@<TRIPOS>UNITY_ATOM_ATTR
67 1
charge 1
@<TRIPOS>BOND
     1     1     2    1
     2     1    31    1
     3     1    32    1
     4     1    33    1
     5     2     3    1
     6     2     4    1
     7     2    34    1
     8     3    35    1
     9     3    36    1
    10     3    37    1
    11     4     5    2
    12     4     6    1
    13     6     7    1
    14     7    12   ar
    15     7     8   ar
    16     8     9   ar
    17     8    38    1
    18     9    10   ar
    19     9    39    1
    20    10    11   ar
    21    10    29    1
    22    11    12   ar
    23    11    40    1
    24    13    15    1
    25    13    23    1
    26    15    16    1
    27    15    41    1
    28    15    42    1
    29    16    43    1
    30    16    44    1
    31    16    67    1
    32    17    18    1
    33    17    19    1
    34    17    45    1
    35    17    67    1
    36    18    46    1
    37    18    47    1
    38    18    48    1
    39    19    49    1
    40    19    50    1
    41    19    51    1
    42    20    21    1
    43    20    22    1
    44    20    52    1
    45    20    67    1
    46    21    53    1
    47    21    54    1
    48    21    55    1
    49    22    56    1
    50    22    57    1
    51    22    58    1
    52    23    28   ar
    53    23    24   ar
    54    24    25   ar
    55    24    59    1
    56    25    26   ar
    57    25    60    1
    58    26    27   ar
    59    26    61    1
    60    27    28   ar
    61    27    62    1
    62    28    63    1
    63    29    30    1
    64    29    64    1
    65    29    65    1
    66    30    66    1
    67    67    68    1
    68    13    14    1
    69    13    12    1
