@<TRIPOS>MOLECULE
ZINC00001084
 24 25 0 0 0
SMALL
GASTEIGER

@<TRIPOS>ATOM
      1 C          -3.2517   -1.1446    0.0331 C.3     1  UNL1        0.0135
      2 N          -2.2768   -0.0843    0.0023 N.ar    1  UNL1       -0.3277
      3 C          -2.5409    1.2591   -0.0093 C.ar    1  UNL1        0.0986
      4 N          -1.4321    1.9717   -0.0113 N.ar    1  UNL1       -0.2177
      5 C          -0.4320    1.0468   -0.0041 C.ar    1  UNL1        0.1678
      6 C          -0.9189   -0.2253   -0.0023 C.ar    1  UNL1        0.1512
      7 C          -0.0899   -1.3801    0.0029 C.ar    1  UNL1        0.2822
      8 O          -0.5417   -2.5210    0.0019 O.2     1  UNL1       -0.2652
      9 N           1.2725   -1.0682    0.0094 N.ar    1  UNL1       -0.2622
     10 C           1.8156    0.2323    0.0085 C.ar    1  UNL1        0.3331
     11 O           3.0369    0.4169    0.0117 O.2     1  UNL1       -0.2462
     12 N           0.9173    1.3012    0.0048 N.ar    1  UNL1       -0.2796
     13 C           1.4378    2.6533    0.0118 C.3     1  UNL1        0.0181
     14 C           2.2225   -2.1629    0.0223 C.3     1  UNL1        0.0196
     15 H          -3.1007   -1.7845   -0.8398 H       1  UNL1        0.0456
     16 H          -3.1164   -1.7116    0.9577 H       1  UNL1        0.0456
     17 H          -4.2570   -0.7166    0.0066 H       1  UNL1        0.0456
     18 H          -3.5459    1.6621   -0.0121 H       1  UNL1        0.1029
     19 H           2.0809    2.7837    0.8881 H       1  UNL1        0.0458
     20 H           2.0406    2.8067   -0.8889 H       1  UNL1        0.0458
     21 H           0.6380    3.3983    0.0416 H       1  UNL1        0.0458
     22 H           2.8657   -2.0873   -0.8605 H       1  UNL1        0.0458
     23 H           2.8496   -2.0787    0.9159 H       1  UNL1        0.0458
     24 H           1.7361   -3.1416    0.0232 H       1  UNL1        0.0458
@<TRIPOS>BOND
     1     1     2    1
     2     1    15    1
     3     1    16    1
     4     1    17    1
     5     2     6   ar
     6     2     3   ar
     7     3     4   ar
     8     3    18    1
     9     4     5   ar
    10     5    12   ar
    11     5     6   ar
    12     6     7   ar
    13     7     8    2
    14     7     9   ar
    15     9    10   ar
    16     9    14    1
    17    10    11    2
    18    10    12   ar
    19    12    13    1
    20    13    19    1
    21    13    20    1
    22    13    21    1
    23    14    22    1
    24    14    23    1
    25    14    24    1
