@<TRIPOS>MOLECULE
ZINC03830387
 21 20 0 0 0
SMALL
GASTEIGER

@<TRIPOS>ATOM
      1 C           0.9852   -1.1101   -1.7950 C.3     1  UNL1        0.0265
      2 C           0.0487   -0.2844   -2.6697 C.3     1  UNL1        0.0382
      3 CL         -0.1204    1.3846   -2.0519 Cl      1  UNL1       -0.1238
      4 N           0.6068   -1.1330   -0.3908 N.am    1  UNL1       -0.2967
      5 C          -0.2667   -2.0481    0.1588 C.2     1  UNL1        0.3242
      6 O          -0.7718   -2.9428   -0.5147 O.2     1  UNL1       -0.2508
      7 N          -0.5095   -1.8975    1.5321 N.am    1  UNL1       -0.1401
      8 C          -1.3875   -2.8429    2.2252 C.3     1  UNL1        0.0557
      9 C          -0.8303   -4.2625    2.3467 C.3     1  UNL1        0.0405
     10 CL          0.7591   -4.3102    3.1473 Cl      1  UNL1       -0.1237
     11 N           0.0889   -0.8345    2.2272 N.2     1  UNL1        0.0527
     12 O          -0.2256   -0.7477    3.4167 O.2     1  UNL1       -0.1256
     13 H           1.9975   -0.6927   -1.8334 H       1  UNL1        0.0474
     14 H           1.0310   -2.1388   -2.1725 H       1  UNL1        0.0474
     15 H           0.4458   -0.2114   -3.6882 H       1  UNL1        0.0445
     16 H          -0.9534   -0.7211   -2.7154 H       1  UNL1        0.0445
     17 H           0.7754   -0.2766    0.1200 H       1  UNL1        0.1503
     18 H          -1.6542   -2.4769    3.2232 H       1  UNL1        0.0498
     19 H          -2.3273   -2.8894    1.6614 H       1  UNL1        0.0498
     20 H          -1.5103   -4.8713    2.9515 H       1  UNL1        0.0446
     21 H          -0.7269   -4.7462    1.3723 H       1  UNL1        0.0446
@<TRIPOS>BOND
     1     1     2    1
     2     1     4    1
     3     1    13    1
     4     1    14    1
     5     2     3    1
     6     2    15    1
     7     2    16    1
     8     4     5   am
     9     4    17    1
    10     5     6    2
    11     5     7   am
    12     7     8    1
    13     7    11    1
    14     8     9    1
    15     8    18    1
    16     8    19    1
    17     9    10    1
    18     9    20    1
    19     9    21    1
    20    11    12    2
