@<TRIPOS>MOLECULE
ZINC00001382
 30 30 0 0 0
SMALL
GASTEIGER

@<TRIPOS>ATOM
      1 C           0.9672   -0.0555   -0.5969 C.3     1  UNL1       -0.0612
      2 C           2.3865   -0.2986   -0.1073 C.3     1  UNL1       -0.0274
      3 C           2.4258   -1.1921    1.1128 C.2     1  UNL1       -0.0074
      4 C           2.3153   -0.6796    2.3503 C.2     1  UNL1       -0.0919
      5 C           2.5786   -2.6650    0.8217 C.2     1  UNL1        0.1901
      6 O           2.3018   -3.0846   -0.2991 O.2     1  UNL1       -0.2870
      7 C           3.1415   -3.5935    1.8428 C.ar    1  UNL1        0.0418
      8 C           4.2369   -3.1633    2.6055 C.ar    1  UNL1       -0.0460
      9 C           4.8255   -4.0025    3.5531 C.ar    1  UNL1       -0.0177
     10 C           4.3639   -5.3052    3.7317 C.ar    1  UNL1        0.1410
     11 C           3.2945   -5.7668    2.9405 C.ar    1  UNL1        0.1015
     12 C           2.6739   -4.9129    2.0013 C.ar    1  UNL1        0.0736
     13 CL          1.3049   -5.4890    1.0901 Cl      1  UNL1       -0.0812
     14 CL          2.7330   -7.4033    3.1618 Cl      1  UNL1       -0.0782
     15 O           4.9372   -6.1955    4.6019 O.3     1  UNL1       -0.4791
     16 C           5.5642   -5.6660    5.7902 C.3     1  UNL1        0.1901
     17 C           7.0524   -5.3274    5.5768 C.2     1  UNL1        0.3927
     18 O           7.8054   -6.2866    5.2492 O.co2   1  UNL1       -0.2425
     19 O           7.3480   -4.1115    5.7874 O.co2   1  UNL1       -0.2425
     20 H           0.4402   -0.9949   -0.7936 H       1  UNL1        0.0233
     21 H           0.9821    0.5249   -1.5246 H       1  UNL1        0.0233
     22 H           0.3898    0.5097    0.1425 H       1  UNL1        0.0233
     23 H           2.9879   -0.7335   -0.9163 H       1  UNL1        0.0311
     24 H           2.8592    0.6658    0.1187 H       1  UNL1        0.0311
     25 H           2.3071   -1.2863    3.2494 H       1  UNL1        0.0539
     26 H           2.2183    0.3931    2.4980 H       1  UNL1        0.0539
     27 H           4.6663   -2.1725    2.4719 H       1  UNL1        0.0626
     28 H           5.6735   -3.6175    4.1122 H       1  UNL1        0.0655
     29 H           4.9941   -4.8174    6.1900 H       1  UNL1        0.0817
     30 H           5.5132   -6.4575    6.5477 H       1  UNL1        0.0817
@<TRIPOS>BOND
     1     1     2    1
     2     1    20    1
     3     1    21    1
     4     1    22    1
     5     2     3    1
     6     2    23    1
     7     2    24    1
     8     3     4    2
     9     3     5    1
    10     4    25    1
    11     4    26    1
    12     5     6    2
    13     5     7    1
    14     7    12   ar
    15     7     8   ar
    16     8     9   ar
    17     8    27    1
    18     9    10   ar
    19     9    28    1
    20    10    11   ar
    21    10    15    1
    22    11    12   ar
    23    11    14    1
    24    12    13    1
    25    15    16    1
    26    16    17    1
    27    16    29    1
    28    16    30    1
    29    17    18   ar
    30    17    19   ar
