@<TRIPOS>MOLECULE
ZINC03830246
 60 62 0 0 0
SMALL
GASTEIGER

@<TRIPOS>ATOM
      1 C           5.8672    1.2100   -3.2035 C.3     1  UNL1       -0.0245
      2 C           5.2586    2.3633   -3.9771 C.3     1  UNL1       -0.0348
      3 N           3.9765    2.1301   -4.7953 N.4     1  UNL1        0.2348
      4 C           3.8338    3.3667   -5.7253 C.3     1  UNL1       -0.0348
      5 C           3.4255    4.6240   -4.9886 C.3     1  UNL1       -0.0245
      6 C           3.8135    0.9141   -5.6944 C.3     1  UNL1       -0.0319
      7 C           3.1727   -0.3567   -5.1338 C.3     1  UNL1       -0.0109
      8 C           1.8308   -0.3386   -4.3831 C.3     1  UNL1       -0.0300
      9 C           0.5729    0.2647   -5.0466 C.3     1  UNL1        0.0180
     10 H           0.8018    1.3022   -5.3160 H       1  UNL1        0.0495
     11 C           0.0778   -0.4434   -6.3151 C.3     1  UNL1       -0.0467
     12 N          -0.5083    0.2290   -4.0317 N.pl3   1  UNL1       -0.3405
     13 C          -1.2756    1.3688   -3.8116 C.2     1  UNL1        0.0421
     14 C          -2.7663    1.3501   -4.0925 C.ar    1  UNL1        0.0171
     15 C          -3.5263    0.1759   -4.2381 C.ar    1  UNL1       -0.0497
     16 C          -4.9284    0.2299   -4.3315 C.ar    1  UNL1       -0.0427
     17 C          -5.5911    1.4514   -4.2696 C.ar    1  UNL1        0.0428
     18 C          -4.8687    2.6268   -4.1495 C.ar    1  UNL1       -0.0218
     19 C          -3.4716    2.5809   -4.0666 C.ar    1  UNL1        0.0385
     20 N          -2.7650    3.7884   -3.9512 N.pl3   1  UNL1       -0.3282
     21 C          -1.5170    3.7760   -3.3995 C.3     1  UNL1        0.1073
     22 C          -0.7766    2.5086   -3.2310 C.2     1  UNL1        0.0072
     23 C           0.3357    2.5415   -2.2934 C.2     1  UNL1       -0.0126
     24 C           0.6063    3.6849   -1.6211 C.2     1  UNL1        0.1203
     25 C           0.0331    4.9656   -2.0204 C.2     1  UNL1       -0.0215
     26 C          -0.9594    5.0238   -2.9165 C.2     1  UNL1       -0.0504
     27 O           1.4563    3.7247   -0.5370 O.2     1  UNL1       -0.4951
     28 C           0.7354    3.9940    0.6819 C.3     1  UNL1        0.0788
     29 CL         -7.3085    1.5155   -4.3197 Cl      1  UNL1       -0.0835
     30 H           5.1701    0.4205   -2.9251 H       1  UNL1        0.0281
     31 H           6.3075    1.6049   -2.2770 H       1  UNL1        0.0281
     32 H           6.7148    0.7813   -3.7516 H       1  UNL1        0.0281
     33 H           4.9941    3.1490   -3.2586 H       1  UNL1        0.0812
     34 H           6.0231    2.7734   -4.6481 H       1  UNL1        0.0812
     35 H           4.7869    3.4890   -6.2560 H       1  UNL1        0.0812
     36 H           3.0601    3.1461   -6.4646 H       1  UNL1        0.0812
     37 H           4.2624    5.3287   -4.9354 H       1  UNL1        0.0281
     38 H           2.6340    5.1227   -5.5593 H       1  UNL1        0.0281
     39 H           3.0494    4.4335   -3.9822 H       1  UNL1        0.0281
     40 H           3.1383    1.2091   -6.5051 H       1  UNL1        0.0814
     41 H           4.7889    0.7095   -6.1473 H       1  UNL1        0.0814
     42 H           3.0367   -1.0311   -5.9961 H       1  UNL1        0.0317
     43 H           3.9043   -0.8720   -4.4968 H       1  UNL1        0.0317
     44 H           1.5922   -1.3802   -4.1188 H       1  UNL1        0.0285
     45 H           1.9992    0.1742   -3.4308 H       1  UNL1        0.0285
     46 H          -0.5186   -1.3371   -6.1014 H       1  UNL1        0.0247
     47 H          -0.5789    0.2317   -6.8838 H       1  UNL1        0.0247
     48 H           0.8961   -0.7297   -6.9837 H       1  UNL1        0.0247
     49 H          -1.0825   -0.6034   -4.1348 H       1  UNL1        0.1464
     50 H          -3.0709   -0.8086   -4.2395 H       1  UNL1        0.0625
     51 H          -5.5032   -0.6898   -4.4261 H       1  UNL1        0.0632
     52 H          -5.3871    3.5788   -4.0743 H       1  UNL1        0.0651
     53 H           0.7492    1.5965   -1.9674 H       1  UNL1        0.0658
     54 H           0.4100    5.8732   -1.5561 H       1  UNL1        0.0652
     55 H          -1.3736    5.9654   -3.2546 H       1  UNL1        0.0599
     56 H          -0.2417    4.4716    0.5305 H       1  UNL1        0.0660
     57 H           0.5848    3.0571    1.2267 H       1  UNL1        0.0660
     58 H           1.3411    4.6643    1.2997 H       1  UNL1        0.0660
     59 H           3.1883    2.1453   -4.1330 H       1  UNL1        0.2033
     60 H          -3.3199    4.6178   -3.7755 H       1  UNL1        0.1473
@<TRIPOS>UNITY_ATOM_ATTR
3 1
charge 1
@<TRIPOS>BOND
     1     1     2    1
     2     1    30    1
     3     1    31    1
     4     1    32    1
     5     2     3    1
     6     2    33    1
     7     2    34    1
     8     3     4    1
     9     3     6    1
    10     3    59    1
    11     4     5    1
    12     4    35    1
    13     4    36    1
    14     5    37    1
    15     5    38    1
    16     5    39    1
    17     6     7    1
    18     6    40    1
    19     6    41    1
    20     7     8    1
    21     7    42    1
    22     7    43    1
    23     8     9    1
    24     8    44    1
    25     8    45    1
    26     9    10    1
    27     9    11    1
    28     9    12    1
    29    11    46    1
    30    11    47    1
    31    11    48    1
    32    12    13    1
    33    12    49    1
    34    13    22    2
    35    13    14    1
    36    14    19   ar
    37    14    15   ar
    38    15    16   ar
    39    15    50    1
    40    16    17   ar
    41    16    51    1
    42    17    18   ar
    43    17    29    1
    44    18    19   ar
    45    18    52    1
    46    19    20    1
    47    20    21    1
    48    20    60    1
    49    21    26    1
    50    21    22    1
    51    22    23    1
    52    23    24    2
    53    23    53    1
    54    24    25    1
    55    24    27    1
    56    25    26    2
    57    25    54    1
    58    26    55    1
    59    27    28    1
    60    28    56    1
    61    28    57    1
    62    28    58    1
