@<TRIPOS>MOLECULE
ZINC00086599
 42 42 0 0 0
SMALL
GASTEIGER

@<TRIPOS>ATOM
      1 C           0.3817    2.8501   -0.4832 C.3     1  UNL1       -0.0219
      2 C          -0.4674    3.3857    0.6606 C.3     1  UNL1       -0.0283
      3 C          -1.9132    3.6093    0.2396 C.3     1  UNL1       -0.0219
      4 N          -0.3850    2.5115    1.8762 N.4     1  UNL1        0.2307
      5 C          -1.0749    1.1624    1.9186 C.3     1  UNL1       -0.0035
      6 C          -0.9715    0.6275    3.3644 C.3     1  UNL1        0.1285
      7 H          -1.5414    1.2867    4.0375 H       1  UNL1        0.0681
      8 C          -1.5063   -0.8055    3.5295 C.3     1  UNL1        0.1204
      9 O          -0.9503   -1.6492    2.5193 O.3     1  UNL1       -0.4889
     10 C          -1.7805   -2.5212    1.8629 C.ar    1  UNL1        0.1241
     11 C          -3.1387   -2.2715    1.6263 C.ar    1  UNL1       -0.0197
     12 C          -3.9184   -3.1752    0.9002 C.ar    1  UNL1       -0.0583
     13 C          -3.3489   -4.3323    0.3866 C.ar    1  UNL1       -0.0613
     14 C          -1.9968   -4.5853    0.5972 C.ar    1  UNL1       -0.0548
     15 C          -1.1936   -3.6837    1.3231 C.ar    1  UNL1       -0.0020
     16 C           0.2711   -4.0291    1.4965 C.3     1  UNL1       -0.0063
     17 C           0.5261   -4.9439    2.6626 C.2     1  UNL1       -0.0867
     18 C           1.0061   -6.1932    2.5583 C.2     1  UNL1       -0.1023
     19 O           0.4063    0.7521    3.7657 O.3     1  UNL1       -0.3831
     20 H          -0.0719    1.9748   -0.9562 H       1  UNL1        0.0284
     21 H           1.3869    2.5834   -0.1458 H       1  UNL1        0.0284
     22 H           0.4885    3.6221   -1.2553 H       1  UNL1        0.0284
     23 H          -0.0406    4.3429    0.9850 H       1  UNL1        0.0845
     24 H          -2.3793    2.6891   -0.1281 H       1  UNL1        0.0284
     25 H          -2.5131    3.9922    1.0712 H       1  UNL1        0.0284
     26 H          -1.9624    4.3412   -0.5750 H       1  UNL1        0.0284
     27 H           0.6039    2.3091    2.1072 H       1  UNL1        0.2017
     28 H          -2.1186    1.2920    1.6259 H       1  UNL1        0.0841
     29 H          -0.5389    0.5322    1.2037 H       1  UNL1        0.0841
     30 H          -1.1890   -1.2098    4.4985 H       1  UNL1        0.0725
     31 H          -2.5976   -0.7759    3.5472 H       1  UNL1        0.0725
     32 H          -3.6383   -1.3735    1.9678 H       1  UNL1        0.0654
     33 H          -4.9732   -2.9723    0.7306 H       1  UNL1        0.0619
     34 H          -3.9533   -5.0347   -0.1826 H       1  UNL1        0.0618
     35 H          -1.5621   -5.4951    0.1854 H       1  UNL1        0.0622
     36 H           0.6368   -4.4848    0.5668 H       1  UNL1        0.0357
     37 H           0.8693   -3.1184    1.6206 H       1  UNL1        0.0357
     38 H           0.3200   -4.5454    3.6527 H       1  UNL1        0.0570
     39 H           1.1818   -6.7982    3.4430 H       1  UNL1        0.0532
     40 H           1.2326   -6.6454    1.5973 H       1  UNL1        0.0532
     41 H           0.5339    0.2212    4.5785 H       1  UNL1        0.2102
     42 H          -0.7001    3.0599    2.6861 H       1  UNL1        0.2017
@<TRIPOS>UNITY_ATOM_ATTR
4 1
charge 1
@<TRIPOS>BOND
     1     1     2    1
     2     1    20    1
     3     1    21    1
     4     1    22    1
     5     2     3    1
     6     2     4    1
     7     2    23    1
     8     3    24    1
     9     3    25    1
    10     3    26    1
    11     4     5    1
    12     4    27    1
    13     4    42    1
    14     5     6    1
    15     5    28    1
    16     5    29    1
    17     6     7    1
    18     6     8    1
    19     6    19    1
    20     8     9    1
    21     8    30    1
    22     8    31    1
    23     9    10    1
    24    10    15   ar
    25    10    11   ar
    26    11    12   ar
    27    11    32    1
    28    12    13   ar
    29    12    33    1
    30    13    14   ar
    31    13    34    1
    32    14    15   ar
    33    14    35    1
    34    15    16    1
    35    16    17    1
    36    16    36    1
    37    16    37    1
    38    17    18    2
    39    17    38    1
    40    18    39    1
    41    18    40    1
    42    19    41    1
