@<TRIPOS>MOLECULE
ZINC01843099
 56 58 0 0 0
SMALL
GASTEIGER

@<TRIPOS>ATOM
      1 C           7.2978  -15.1986   -2.3245 C.3     1  UNL1        0.0500
      2 N           7.7908  -13.8995   -1.8867 N.pl3   1  UNL1       -0.2196
      3 C           7.7453  -12.8370   -2.9128 C.3     1  UNL1        0.0624
      4 C           6.3832  -12.1236   -2.9642 C.3     1  UNL1       -0.0082
      5 C           6.0256  -11.3943   -1.6723 C.3     1  UNL1        0.0144
      6 N           4.7863  -10.6560   -1.7756 N.am    1  UNL1       -0.3131
      7 C           4.7350   -9.3274   -2.1639 C.2     1  UNL1        0.2419
      8 O           5.7367   -8.6723   -2.4242 O.2     1  UNL1       -0.2730
      9 C           3.3083   -8.7516   -2.1397 C.3     1  UNL1        0.1343
     10 H           3.1253   -8.3940   -1.1199 H       1  UNL1        0.0693
     11 C           3.1199   -7.6334   -3.1529 C.3     1  UNL1       -0.0159
     12 C           2.5536   -8.3750   -4.3402 C.3     1  UNL1       -0.0266
     13 C           1.6754   -9.4089   -3.6698 C.3     1  UNL1        0.0487
     14 O           2.3335   -9.7672   -2.4475 O.3     1  UNL1       -0.3674
     15 C           8.7449  -13.8644   -0.8790 C.cat   1  UNL1        0.4137
     16 N           8.8779  -12.6171   -0.3259 N.pl3   1  UNL1       -0.2127
     17 C           9.5374  -12.4772    0.8484 C.3     1  UNL1        0.1778
     18 C           9.1041  -11.5185    1.8697 C.2     1  UNL1        0.0078
     19 C           9.4844  -11.8927    3.1211 C.2     1  UNL1        0.1614
     20 C          10.9218  -12.2673    3.2049 C.2     1  UNL1        0.1619
     21 C          11.3834  -13.1941    2.3219 C.2     1  UNL1       -0.0016
     22 C          10.4540  -13.5504    1.2288 C.2     1  UNL1        0.0924
     23 C          10.3010  -14.7458    0.6013 C.2     1  UNL1        0.3232
     24 N           9.3830  -14.9182   -0.4355 N.2     1  UNL1        0.0214
     25 N          10.9615  -15.8741    1.0633 N.pl3   1  UNL1       -0.2461
     26 O          11.6052  -11.5298    4.1321 O.2     1  UNL1       -0.4914
     27 C          13.0110  -11.4126    3.9704 C.3     1  UNL1        0.0790
     28 O           8.7550  -12.7770    3.9127 O.2     1  UNL1       -0.4916
     29 C           7.5458  -13.3360    3.4005 C.3     1  UNL1        0.0789
     30 H           6.5036  -15.0988   -3.0711 H       1  UNL1        0.0597
     31 H           6.8699  -15.7430   -1.4737 H       1  UNL1        0.0597
     32 H           8.1042  -15.7974   -2.7601 H       1  UNL1        0.0597
     33 H           8.5349  -12.0951   -2.7666 H       1  UNL1        0.0635
     34 H           7.9399  -13.2785   -3.9012 H       1  UNL1        0.0635
     35 H           6.4086  -11.3984   -3.7878 H       1  UNL1        0.0309
     36 H           5.5898  -12.8398   -3.2069 H       1  UNL1        0.0309
     37 H           5.8980  -12.1013   -0.8466 H       1  UNL1        0.0463
     38 H           6.8202  -10.6891   -1.4062 H       1  UNL1        0.0463
     39 H           3.8930  -11.1358   -1.6985 H       1  UNL1        0.1488
     40 H           2.3730   -6.9237   -2.7823 H       1  UNL1        0.0296
     41 H           4.0260   -7.0754   -3.3971 H       1  UNL1        0.0296
     42 H           2.0020   -7.7392   -5.0360 H       1  UNL1        0.0288
     43 H           3.3618   -8.8726   -4.8894 H       1  UNL1        0.0288
     44 H           0.6944   -8.9914   -3.4127 H       1  UNL1        0.0560
     45 H           1.5266  -10.3028   -4.2811 H       1  UNL1        0.0560
     46 H           9.4569  -10.5380    1.5307 H       1  UNL1        0.0650
     47 H          12.4098  -13.5331    2.2666 H       1  UNL1        0.0662
     48 H          10.4152  -16.6754    0.7554 H       1  UNL1        0.2884
     49 H          11.0177  -15.8539    2.0784 H       1  UNL1        0.2884
     50 H          13.3054  -11.2852    2.9228 H       1  UNL1        0.0660
     51 H          13.3336  -10.5145    4.5090 H       1  UNL1        0.0660
     52 H          13.5088  -12.2772    4.4144 H       1  UNL1        0.0660
     53 H           7.0477  -12.7146    2.6512 H       1  UNL1        0.0660
     54 H           7.7393  -14.3331    2.9867 H       1  UNL1        0.0660
     55 H           6.8567  -13.4527    4.2420 H       1  UNL1        0.0660
     56 H           8.1049  -11.9909   -0.4468 H       1  UNL1        0.2466
@<TRIPOS>BOND
     1     1     2    1
     2     1    30    1
     3     1    31    1
     4     1    32    1
     5     2     3    1
     6     2    15    1
     7     3     4    1
     8     3    33    1
     9     3    34    1
    10     4     5    1
    11     4    35    1
    12     4    36    1
    13     5     6    1
    14     5    37    1
    15     5    38    1
    16     6     7   am
    17     6    39    1
    18     7     8    2
    19     9    14    1
    20     9    11    1
    21    11    12    1
    22    11    40    1
    23    11    41    1
    24    12    13    1
    25    12    42    1
    26    12    43    1
    27    13    14    1
    28    13    44    1
    29    13    45    1
    30    15    24    2
    31    15    16    1
    32    16    17    1
    33    16    56    1
    34    17    22    1
    35    17    18    1
    36    18    19    2
    37    18    46    1
    38    19    20    1
    39    19    28    1
    40    20    21    2
    41    20    26    1
    42    21    22    1
    43    21    47    1
    44    22    23    2
    45    23    24    1
    46    23    25    1
    47    25    48    1
    48    25    49    1
    49    26    27    1
    50    27    50    1
    51    27    51    1
    52    27    52    1
    53    28    29    1
    54    29    53    1
    55    29    54    1
    56    29    55    1
    57     9    10    1
    58     9     7    1
