@<TRIPOS>MOLECULE
ZINC00020240
 41 42 0 0 0
SMALL
GASTEIGER

@<TRIPOS>ATOM
      1 C           2.9342   -3.9995   -2.9192 C.3     1  UNL1       -0.0219
      2 C           2.3613   -3.6756   -1.5461 C.3     1  UNL1       -0.0283
      3 C           3.2948   -2.8402   -0.6858 C.3     1  UNL1       -0.0219
      4 N           1.0429   -2.9872   -1.6879 N.4     1  UNL1        0.2307
      5 C           0.9711   -1.6845   -2.4672 C.3     1  UNL1       -0.0035
      6 C          -0.4725   -1.2089   -2.3597 C.3     1  UNL1        0.1285
      7 H          -1.1296   -2.0240   -2.6931 H       1  UNL1        0.0681
      8 C          -0.8300    0.0001   -3.2252 C.3     1  UNL1        0.1204
      9 O          -0.0874    1.2044   -2.9737 O.3     1  UNL1       -0.4886
     10 C          -0.4899    2.2506   -3.8088 C.ar    1  UNL1        0.1283
     11 C          -1.7847    2.2893   -4.3630 C.ar    1  UNL1       -0.0193
     12 C          -2.1569    3.2607   -5.2799 C.ar    1  UNL1       -0.0577
     13 C          -1.2677    4.2535   -5.6234 C.ar    1  UNL1       -0.0538
     14 C          -0.0055    4.3129   -5.0333 C.ar    1  UNL1       -0.0144
     15 C           0.4175    3.3084   -4.1102 C.ar    1  UNL1        0.0238
     16 C           1.7189    3.4595   -3.5686 C.ar    1  UNL1       -0.0505
     17 C           2.5398    4.5491   -3.9083 C.ar    1  UNL1       -0.0611
     18 C           2.0959    5.5130   -4.8040 C.ar    1  UNL1       -0.0612
     19 C           0.8326    5.3854   -5.3681 C.ar    1  UNL1       -0.0539
     20 O          -0.7597   -1.0302   -0.9654 O.3     1  UNL1       -0.3831
     21 H           3.1932   -3.0952   -3.4788 H       1  UNL1        0.0284
     22 H           2.2201   -4.5768   -3.5179 H       1  UNL1        0.0284
     23 H           3.8475   -4.5949   -2.8215 H       1  UNL1        0.0284
     24 H           2.1391   -4.6132   -1.0226 H       1  UNL1        0.0845
     25 H           3.5758   -1.9036   -1.1766 H       1  UNL1        0.0284
     26 H           2.8267   -2.5965    0.2743 H       1  UNL1        0.0284
     27 H           4.2162   -3.3932   -0.4766 H       1  UNL1        0.0284
     28 H           0.3686   -3.6541   -2.0855 H       1  UNL1        0.2017
     29 H           1.6565   -0.9865   -1.9812 H       1  UNL1        0.0841
     30 H           1.2615   -1.8894   -3.4990 H       1  UNL1        0.0841
     31 H          -0.7021   -0.2786   -4.2791 H       1  UNL1        0.0725
     32 H          -1.8853    0.1710   -2.9957 H       1  UNL1        0.0725
     33 H          -2.5599    1.5797   -4.1077 H       1  UNL1        0.0654
     34 H          -3.1512    3.2385   -5.7214 H       1  UNL1        0.0619
     35 H          -1.5748    5.0049   -6.3525 H       1  UNL1        0.0624
     36 H           2.0996    2.7382   -2.8528 H       1  UNL1        0.0625
     37 H           3.5271    4.6563   -3.4652 H       1  UNL1        0.0618
     38 H           2.7197    6.3658   -5.0636 H       1  UNL1        0.0618
     39 H           0.4989    6.1500   -6.0685 H       1  UNL1        0.0624
     40 H          -1.1139   -0.1264   -0.8340 H       1  UNL1        0.2102
     41 H           0.6525   -2.7694   -0.7524 H       1  UNL1        0.2017
@<TRIPOS>UNITY_ATOM_ATTR
4 1
charge 1
@<TRIPOS>BOND
     1     1     2    1
     2     1    21    1
     3     1    22    1
     4     1    23    1
     5     2     3    1
     6     2     4    1
     7     2    24    1
     8     3    25    1
     9     3    26    1
    10     3    27    1
    11     4     5    1
    12     4    28    1
    13     4    41    1
    14     5    29    1
    15     5    30    1
    16     6     8    1
    17     6    20    1
    18     8     9    1
    19     8    31    1
    20     8    32    1
    21     9    10    1
    22    10    15   ar
    23    10    11   ar
    24    11    12   ar
    25    11    33    1
    26    12    13   ar
    27    12    34    1
    28    13    14   ar
    29    13    35    1
    30    14    19   ar
    31    14    15   ar
    32    15    16   ar
    33    16    17   ar
    34    16    36    1
    35    17    18   ar
    36    17    37    1
    37    18    19   ar
    38    18    38    1
    39    19    39    1
    40    20    40    1
    41     6     7    1
    42     6     5    1
