@<TRIPOS>MOLECULE
ZINC00056643
 45 47 0 0 0
SMALL
GASTEIGER

@<TRIPOS>ATOM
      1 C           3.8939   -1.3543    5.5677 C.3     1  UNL1       -0.0431
      2 N           3.8110   -0.7000    4.2138 N.4     1  UNL1        0.2332
      3 C           4.8275   -1.2912    3.2769 C.3     1  UNL1       -0.0298
      4 C           4.7765   -0.5678    1.9488 C.3     1  UNL1        0.0140
      5 C           3.3819   -0.6830    1.3340 C.3     1  UNL1        0.0695
      6 C           2.3637   -0.0644    2.2952 C.3     1  UNL1        0.0140
      7 C           2.4057   -0.7395    3.6561 C.3     1  UNL1       -0.0298
      8 O           3.2721    0.0052    0.0892 O.3     1  UNL1       -0.3637
      9 C           4.1082   -0.4870   -0.9792 C.3     1  UNL1        0.1090
     10 C           3.7531   -1.9175   -1.3510 C.ar    1  UNL1       -0.0145
     11 C           4.7350   -2.9241   -1.2720 C.ar    1  UNL1       -0.0558
     12 C           4.4190   -4.2538   -1.5553 C.ar    1  UNL1       -0.0614
     13 C           3.1203   -4.5930   -1.9266 C.ar    1  UNL1       -0.0617
     14 C           2.1399   -3.6065   -2.0175 C.ar    1  UNL1       -0.0614
     15 C           2.4534   -2.2745   -1.7356 C.ar    1  UNL1       -0.0558
     16 C           4.1548    0.4999   -2.1390 C.ar    1  UNL1       -0.0145
     17 C           5.0403    0.2685   -3.2080 C.ar    1  UNL1       -0.0558
     18 C           5.2509    1.2394   -4.1879 C.ar    1  UNL1       -0.0614
     19 C           4.5750    2.4542   -4.1204 C.ar    1  UNL1       -0.0617
     20 C           3.6651    2.6864   -3.0917 C.ar    1  UNL1       -0.0614
     21 C           3.4518    1.7151   -2.1103 C.ar    1  UNL1       -0.0558
     22 H           3.6253   -2.4091    5.4621 H       1  UNL1        0.0777
     23 H           4.9193   -1.2481    5.9316 H       1  UNL1        0.0777
     24 H           3.2029   -0.8364    6.2356 H       1  UNL1        0.0777
     25 H           5.8128   -1.1737    3.7397 H       1  UNL1        0.0815
     26 H           4.6012   -2.3574    3.1635 H       1  UNL1        0.0815
     27 H           5.5385   -1.0043    1.2997 H       1  UNL1        0.0342
     28 H           5.0471    0.4904    2.0656 H       1  UNL1        0.0342
     29 H           3.1150   -1.7370    1.1923 H       1  UNL1        0.0600
     30 H           1.3534   -0.1420    1.8726 H       1  UNL1        0.0342
     31 H           2.5550    1.0120    2.4003 H       1  UNL1        0.0342
     32 H           2.1043   -1.7912    3.5934 H       1  UNL1        0.0815
     33 H           1.7603   -0.2170    4.3708 H       1  UNL1        0.0815
     34 H           5.1408   -0.4671   -0.6090 H       1  UNL1        0.0697
     35 H           5.7564   -2.6794   -0.9936 H       1  UNL1        0.0621
     36 H           5.1845   -5.0208   -1.5017 H       1  UNL1        0.0618
     37 H           2.8747   -5.6266   -2.1582 H       1  UNL1        0.0618
     38 H           1.1303   -3.8764   -2.3192 H       1  UNL1        0.0618
     39 H           1.6778   -1.5155   -1.8126 H       1  UNL1        0.0621
     40 H           5.5997   -0.6628   -3.2705 H       1  UNL1        0.0621
     41 H           5.9573    1.0546   -4.9935 H       1  UNL1        0.0618
     42 H           4.7597    3.2212   -4.8683 H       1  UNL1        0.0618
     43 H           3.1353    3.6345   -3.0425 H       1  UNL1        0.0618
     44 H           2.7538    1.9332   -1.3055 H       1  UNL1        0.0621
     45 H           4.0565    0.2909    4.3533 H       1  UNL1        0.2030
@<TRIPOS>UNITY_ATOM_ATTR
2 1
charge 1
@<TRIPOS>BOND
     1     1     2    1
     2     1    22    1
     3     1    23    1
     4     1    24    1
     5     2     7    1
     6     2     3    1
     7     2    45    1
     8     3     4    1
     9     3    25    1
    10     3    26    1
    11     4     5    1
    12     4    27    1
    13     4    28    1
    14     5     6    1
    15     6     7    1
    16     6    30    1
    17     6    31    1
    18     7    32    1
    19     7    33    1
    20     8     9    1
    21     9    10    1
    22     9    16    1
    23     9    34    1
    24    10    15   ar
    25    10    11   ar
    26    11    12   ar
    27    11    35    1
    28    12    13   ar
    29    12    36    1
    30    13    14   ar
    31    13    37    1
    32    14    15   ar
    33    14    38    1
    34    15    39    1
    35    16    21   ar
    36    16    17   ar
    37    17    18   ar
    38    17    40    1
    39    18    19   ar
    40    18    41    1
    41    19    20   ar
    42    19    42    1
    43    20    21   ar
    44    20    43    1
    45    21    44    1
    46     5    29    1
    47     5     8    1
