@<TRIPOS>MOLECULE
ZINC00001460
 33 35 0 0 0
SMALL
GASTEIGER

@<TRIPOS>ATOM
      1 C           1.0254   -0.0886   -0.0828 C.3     1  UNL1        0.0084
      2 N           0.4342    1.1995    0.2694 N.am    1  UNL1       -0.2723
      3 C           0.4887    1.6412    1.6361 C.ar    1  UNL1        0.0453
      4 C           0.4560    0.6744    2.6631 C.ar    1  UNL1       -0.0383
      5 C           0.4633    1.0312    4.0166 C.ar    1  UNL1       -0.0416
      6 C           0.5001    2.3688    4.3739 C.ar    1  UNL1        0.0417
      7 C           0.5367    3.3501    3.3918 C.ar    1  UNL1       -0.0324
      8 C           0.5696    2.9981    2.0259 C.ar    1  UNL1        0.0234
      9 C           0.7474    4.1237    1.0514 C.2     1  UNL1        0.0778
     10 N           0.0627    4.2424   -0.0380 N.2     1  UNL1       -0.2733
     11 C          -0.8868    3.1975   -0.3871 C.3     1  UNL1        0.1169
     12 C          -0.1211    1.9445   -0.7766 C.2     1  UNL1        0.2410
     13 O          -0.0652    1.5907   -1.9553 O.2     1  UNL1       -0.2732
     14 C           1.7388    5.2155    1.3319 C.ar    1  UNL1        0.0357
     15 C           1.4878    6.4960    0.8141 C.ar    1  UNL1       -0.0498
     16 C           2.3861    7.5435    1.0363 C.ar    1  UNL1       -0.0610
     17 C           3.5456    7.3225    1.7796 C.ar    1  UNL1       -0.0590
     18 C           3.8095    6.0517    2.2875 C.ar    1  UNL1       -0.0258
     19 C           2.9172    5.0047    2.0516 C.ar    1  UNL1        0.1325
     20 F           3.2373    3.7926    2.5275 F       1  UNL1       -0.2048
     21 CL          0.5190    2.8132    6.0345 Cl      1  UNL1       -0.0835
     22 H           0.9063   -0.3208   -1.1450 H       1  UNL1        0.0433
     23 H           0.5462   -0.9031    0.4654 H       1  UNL1        0.0433
     24 H           2.0966   -0.0570    0.1388 H       1  UNL1        0.0433
     25 H           0.3764   -0.3867    2.4451 H       1  UNL1        0.0637
     26 H           0.4264    0.2561    4.7778 H       1  UNL1        0.0633
     27 H           0.5701    4.3942    3.6949 H       1  UNL1        0.0639
     28 H          -1.6188    2.9939    0.4029 H       1  UNL1        0.0605
     29 H          -1.4610    3.5277   -1.2611 H       1  UNL1        0.0605
     30 H           0.5906    6.6842    0.2268 H       1  UNL1        0.0625
     31 H           2.1810    8.5290    0.6240 H       1  UNL1        0.0618
     32 H           4.2435    8.1373    1.9527 H       1  UNL1        0.0618
     33 H           4.7143    5.8652    2.8594 H       1  UNL1        0.0646
@<TRIPOS>BOND
     1     1     2    1
     2     1    22    1
     3     1    23    1
     4     1    24    1
     5     2    12   am
     6     2     3    1
     7     3     8   ar
     8     3     4   ar
     9     4     5   ar
    10     4    25    1
    11     5     6   ar
    12     5    26    1
    13     6     7   ar
    14     6    21    1
    15     7     8   ar
    16     7    27    1
    17     8     9    1
    18     9    10    2
    19     9    14    1
    20    10    11    1
    21    11    12    1
    22    11    28    1
    23    11    29    1
    24    12    13    2
    25    14    19   ar
    26    14    15   ar
    27    15    16   ar
    28    15    30    1
    29    16    17   ar
    30    16    31    1
    31    17    18   ar
    32    17    32    1
    33    18    19   ar
    34    18    33    1
    35    19    20    1
