@<TRIPOS>MOLECULE
ZINC00597556
 56 56 0 0 0
SMALL
GASTEIGER

@<TRIPOS>ATOM
      1 C          -2.4360   -0.3227    1.5136 C.3     1  UNL1       -0.0193
      2 C          -2.2639    0.1617    0.0686 C.3     1  UNL1       -0.0203
      3 C          -1.6749   -0.9437   -0.8134 C.3     1  UNL1       -0.0193
      4 C          -3.6226    0.6050   -0.4989 C.3     1  UNL1       -0.0193
      5 N          -1.3693    1.3921    0.0245 N.4     1  UNL1        0.2328
      6 C           0.1049    1.2239    0.2988 C.3     1  UNL1       -0.0023
      7 C           0.9057    2.5487    0.1337 C.3     1  UNL1        0.1199
      8 H           0.8044    2.8781   -0.9053 H       1  UNL1        0.0698
      9 C           0.5194    3.6835    1.0624 C.ar    1  UNL1       -0.0071
     10 C           0.7421    5.0219    0.6960 C.ar    1  UNL1       -0.0131
     11 C           0.4542    6.0609    1.5966 C.ar    1  UNL1        0.1371
     12 C          -0.0504    5.7831    2.8669 C.ar    1  UNL1        0.0233
     13 C          -0.3025    4.4587    3.2165 C.ar    1  UNL1        0.1371
     14 C           0.0149    3.4209    2.3410 C.ar    1  UNL1       -0.0131
     15 O          -0.7823    4.2062    4.5216 O.3     1  UNL1       -0.4113
     16 C          -1.5623    3.0796    4.8362 C.2     1  UNL1        0.4077
     17 O          -1.9943    2.2905    3.9924 O.2     1  UNL1       -0.2258
     18 N          -1.7731    2.9526    6.1975 N.am    1  UNL1       -0.2732
     19 C          -2.5637    1.8593    6.7325 C.3     1  UNL1        0.0060
     20 C          -1.2655    3.9360    7.1376 C.3     1  UNL1        0.0060
     21 O           0.8025    7.3655    1.1615 O.3     1  UNL1       -0.4113
     22 C           0.1206    8.5061    1.6058 C.2     1  UNL1        0.4077
     23 O          -0.8668    8.4727    2.3263 O.2     1  UNL1       -0.2258
     24 N           0.6748    9.6954    1.1453 N.am    1  UNL1       -0.2732
     25 C           1.7935    9.7855    0.2242 C.3     1  UNL1        0.0060
     26 C           0.1019   10.9364    1.6262 C.3     1  UNL1        0.0060
     27 O           2.2804    2.2425    0.3482 O.3     1  UNL1       -0.3819
     28 H          -2.6913   -1.3895    1.5341 H       1  UNL1        0.0287
     29 H          -3.2484    0.2061    2.0242 H       1  UNL1        0.0287
     30 H          -1.5329   -0.2006    2.1173 H       1  UNL1        0.0287
     31 H          -2.3615   -1.7961   -0.8756 H       1  UNL1        0.0287
     32 H          -1.4928   -0.5907   -1.8343 H       1  UNL1        0.0287
     33 H          -0.7332   -1.3292   -0.4085 H       1  UNL1        0.0287
     34 H          -4.0278    1.4583    0.0577 H       1  UNL1        0.0287
     35 H          -3.5377    0.9074   -1.5492 H       1  UNL1        0.0287
     36 H          -4.3570   -0.2060   -0.4448 H       1  UNL1        0.0287
     37 H          -1.4714    1.8316   -0.9002 H       1  UNL1        0.2020
     38 H           0.2210    0.7996    1.3002 H       1  UNL1        0.0843
     39 H           0.5000    0.4912   -0.4120 H       1  UNL1        0.0843
     40 H           1.1710    5.2737   -0.2721 H       1  UNL1        0.0658
     41 H          -0.2310    6.5699    3.5945 H       1  UNL1        0.0691
     42 H          -0.0965    2.4035    2.6919 H       1  UNL1        0.0658
     43 H          -1.9710    1.3231    7.4807 H       1  UNL1        0.0429
     44 H          -3.4574    2.2757    7.2072 H       1  UNL1        0.0429
     45 H          -2.8694    1.1571    5.9532 H       1  UNL1        0.0429
     46 H          -0.1732    3.9538    7.0807 H       1  UNL1        0.0429
     47 H          -1.6548    4.9218    6.8640 H       1  UNL1        0.0429
     48 H          -1.5741    3.6927    8.1575 H       1  UNL1        0.0429
     49 H           1.4610   10.3259   -0.6674 H       1  UNL1        0.0429
     50 H           2.6025   10.3442    0.7037 H       1  UNL1        0.0429
     51 H           2.1655    8.8050   -0.0789 H       1  UNL1        0.0429
     52 H          -0.9716   10.9496    1.4106 H       1  UNL1        0.0429
     53 H           0.2441   10.9965    2.7093 H       1  UNL1        0.0429
     54 H           0.5787   11.7979    1.1491 H       1  UNL1        0.0429
     55 H           2.7938    3.0709    0.3147 H       1  UNL1        0.2105
     56 H          -1.7483    2.0779    0.6985 H       1  UNL1        0.2020
@<TRIPOS>UNITY_ATOM_ATTR
5 1
charge 1
@<TRIPOS>BOND
     1     1     2    1
     2     1    28    1
     3     1    29    1
     4     1    30    1
     5     2     3    1
     6     2     4    1
     7     2     5    1
     8     3    31    1
     9     3    32    1
    10     3    33    1
    11     4    34    1
    12     4    35    1
    13     4    36    1
    14     5     6    1
    15     5    37    1
    16     5    56    1
    17     6     7    1
    18     6    38    1
    19     6    39    1
    20     7     8    1
    21     7     9    1
    22     7    27    1
    23     9    14   ar
    24     9    10   ar
    25    10    11   ar
    26    10    40    1
    27    11    12   ar
    28    11    21    1
    29    12    13   ar
    30    12    41    1
    31    13    14   ar
    32    13    15    1
    33    14    42    1
    34    15    16    1
    35    16    17    2
    36    16    18   am
    37    18    19    1
    38    18    20    1
    39    19    43    1
    40    19    44    1
    41    19    45    1
    42    20    46    1
    43    20    47    1
    44    20    48    1
    45    21    22    1
    46    22    23    2
    47    22    24   am
    48    24    25    1
    49    24    26    1
    50    25    49    1
    51    25    50    1
    52    25    51    1
    53    26    52    1
    54    26    53    1
    55    26    54    1
    56    27    55    1
