@<TRIPOS>MOLECULE
ZINC00403567
 24 25 0 0 0
SMALL
GASTEIGER

@<TRIPOS>ATOM
      1 C           0.5882   -2.4090   -2.6346 C.3     1  UNL1       -0.0637
      2 C          -0.0355   -2.6231   -1.2622 C.3     1  UNL1       -0.0376
      3 C           0.9913   -2.3848   -0.1565 C.3     1  UNL1        0.0293
      4 N           0.4597   -2.5980    1.1840 N.ar    1  UNL1       -0.2766
      5 C           0.4367   -3.8531    1.7570 C.ar    1  UNL1        0.1679
      6 C           0.0226   -4.0423    3.0426 C.ar    1  UNL1        0.1487
      7 C          -0.4029   -2.9889    3.8856 C.ar    1  UNL1        0.2796
      8 O          -0.7445   -3.1239    5.0523 O.2     1  UNL1       -0.2654
      9 N          -0.4010   -1.7731    3.2363 N.ar    1  UNL1       -0.2731
     10 H          -0.7186   -0.9762    3.7632 H       1  UNL1        0.1735
     11 C          -0.0350   -1.5264    1.9236 C.ar    1  UNL1        0.3310
     12 O          -0.1517   -0.3816    1.4782 O.2     1  UNL1       -0.2464
     13 N           0.1198   -5.3834    3.2638 N.ar    1  UNL1       -0.3389
     14 H          -0.1156   -5.8704    4.1198 H       1  UNL1        0.1670
     15 C           0.5815   -5.9402    2.0982 C.ar    1  UNL1        0.0963
     16 N           0.7998   -5.0273    1.1714 N.ar    1  UNL1       -0.2179
     17 H           1.0618   -1.4246   -2.7050 H       1  UNL1        0.0230
     18 H          -0.1740   -2.4759   -3.4167 H       1  UNL1        0.0230
     19 H           1.3502   -3.1688   -2.8384 H       1  UNL1        0.0230
     20 H          -0.8843   -1.9410   -1.1364 H       1  UNL1        0.0280
     21 H          -0.4336   -3.6424   -1.2014 H       1  UNL1        0.0280
     22 H           1.8639   -3.0365   -0.2931 H       1  UNL1        0.0494
     23 H           1.3601   -1.3543   -0.2240 H       1  UNL1        0.0494
     24 H           0.7346   -7.0063    1.9872 H       1  UNL1        0.1027
@<TRIPOS>BOND
     1     1     2    1
     2     1    17    1
     3     1    18    1
     4     1    19    1
     5     2     3    1
     6     2    20    1
     7     2    21    1
     8     3     4    1
     9     3    22    1
    10     3    23    1
    11     4    11   ar
    12     4     5   ar
    13     5    16   ar
    14     5     6   ar
    15     6     7   ar
    16     6    13   ar
    17     7     8    2
    18     7     9   ar
    19     9    10    1
    20     9    11   ar
    21    11    12    2
    22    13    14    1
    23    13    15   ar
    24    15    16   ar
    25    15    24    1
