@<TRIPOS>MOLECULE
ZINC03831139
 34 35 0 0 0
SMALL
GASTEIGER

@<TRIPOS>ATOM
      1 C           1.4957   -0.2699    0.1007 C.ar    1  UNL1       -0.0617
      2 C           0.5420   -1.2094    0.4789 C.ar    1  UNL1       -0.0615
      3 C          -0.8180   -0.8987    0.3943 C.ar    1  UNL1       -0.0571
      4 C          -1.2520    0.3546   -0.0753 C.ar    1  UNL1       -0.0277
      5 C          -0.2721    1.2951   -0.4240 C.ar    1  UNL1       -0.0571
      6 C           1.0895    0.9836   -0.3452 C.ar    1  UNL1       -0.0615
      7 C          -2.7522    0.6212   -0.1821 C.3     1  UNL1        0.0851
      8 C          -3.3924    1.3159    1.0171 C.ar    1  UNL1       -0.0277
      9 C          -4.5470    0.7558    1.5975 C.ar    1  UNL1       -0.0571
     10 C          -5.2458    1.4288    2.6012 C.ar    1  UNL1       -0.0615
     11 C          -4.8005    2.6701    3.0455 C.ar    1  UNL1       -0.0617
     12 C          -3.6468    3.2291    2.4998 C.ar    1  UNL1       -0.0615
     13 C          -2.9463    2.5580    1.4934 C.ar    1  UNL1       -0.0571
     14 S          -3.3363    1.4462   -1.7355 S.O     1  UNL1        0.0429
     15 O          -2.6057    2.7433   -1.9403 O.2     1  UNL1       -0.2558
     16 C          -2.7077    0.2560   -2.9390 C.3     1  UNL1        0.1004
     17 C          -3.4069   -1.0801   -2.8937 C.2     1  UNL1        0.2228
     18 O          -4.2845   -1.4011   -2.1006 O.2     1  UNL1       -0.2750
     19 N          -2.9907   -1.9704   -3.8461 N.am    1  UNL1       -0.3286
     20 H           2.5541   -0.5099    0.1644 H       1  UNL1        0.0618
     21 H           0.8544   -2.1863    0.8406 H       1  UNL1        0.0618
     22 H          -1.5422   -1.6535    0.6989 H       1  UNL1        0.0621
     23 H          -0.5489    2.2899   -0.7697 H       1  UNL1        0.0621
     24 H           1.8305    1.7265   -0.6301 H       1  UNL1        0.0618
     25 H          -3.2182   -0.3681   -0.2327 H       1  UNL1        0.0535
     26 H          -4.9332   -0.1998    1.2459 H       1  UNL1        0.0621
     27 H          -6.1499    0.9934    3.0187 H       1  UNL1        0.0618
     28 H          -5.3589    3.2080    3.8069 H       1  UNL1        0.0618
     29 H          -3.3039    4.2032    2.8394 H       1  UNL1        0.0618
     30 H          -2.0730    3.0379    1.0584 H       1  UNL1        0.0621
     31 H          -2.8877    0.6944   -3.9268 H       1  UNL1        0.0496
     32 H          -1.6311    0.1197   -2.8179 H       1  UNL1        0.0496
     33 H          -2.2873   -1.7589   -4.5417 H       1  UNL1        0.1450
     34 H          -3.4358   -2.8798   -3.8715 H       1  UNL1        0.1450
@<TRIPOS>BOND
     1     1     6   ar
     2     1     2   ar
     3     1    20    1
     4     2     3   ar
     5     2    21    1
     6     3     4   ar
     7     3    22    1
     8     4     5   ar
     9     4     7    1
    10     5     6   ar
    11     5    23    1
    12     6    24    1
    13     7     8    1
    14     7    14    1
    15     7    25    1
    16     8    13   ar
    17     8     9   ar
    18     9    10   ar
    19     9    26    1
    20    10    11   ar
    21    10    27    1
    22    11    12   ar
    23    11    28    1
    24    12    13   ar
    25    12    29    1
    26    13    30    1
    27    14    15    2
    28    14    16    1
    29    16    17    1
    30    16    31    1
    31    16    32    1
    32    17    18    2
    33    17    19   am
    34    19    33    1
    35    19    34    1
