@<TRIPOS>MOLECULE
ZINC00000607
 39 40 0 0 0
SMALL
GASTEIGER

@<TRIPOS>ATOM
      1 C          -2.6606   -1.6555    0.2153 C.3     1  UNL1       -0.0433
      2 N          -3.3015   -0.3224   -0.0682 N.4     1  UNL1        0.2309
      3 C          -3.2320    0.5930    1.1219 C.3     1  UNL1       -0.0433
      4 C          -2.8480    0.3316   -1.3695 C.3     1  UNL1       -0.0315
      5 C          -1.3513    0.6101   -1.3700 C.3     1  UNL1       -0.0003
      6 C          -0.8305    1.2645   -2.6780 C.3     1  UNL1        0.0312
      7 H          -1.1308    0.6133   -3.5115 H       1  UNL1        0.0414
      8 C          -1.4489    2.6429   -2.9035 C.ar    1  UNL1       -0.0383
      9 C          -2.1181    2.9226   -4.1082 C.ar    1  UNL1       -0.0579
     10 C          -2.5875    4.2095   -4.3780 C.ar    1  UNL1       -0.0615
     11 C          -2.4008    5.2316   -3.4508 C.ar    1  UNL1       -0.0617
     12 C          -1.7609    4.9651   -2.2430 C.ar    1  UNL1       -0.0615
     13 C          -1.2908    3.6799   -1.9671 C.ar    1  UNL1       -0.0579
     14 C           0.7040    1.2500   -2.6832 C.ar    1  UNL1        0.0488
     15 C           1.4662    2.2411   -3.3044 C.ar    1  UNL1       -0.0398
     16 C           2.8566    2.1526   -3.2726 C.ar    1  UNL1       -0.0586
     17 C           3.4599    1.0697   -2.6516 C.ar    1  UNL1       -0.0436
     18 C           2.6431    0.1110   -2.0857 C.ar    1  UNL1        0.0279
     19 N           1.2924    0.1759   -2.0910 N.ar    1  UNL1       -0.2593
     20 H          -1.6131   -1.5015    0.4873 H       1  UNL1        0.0777
     21 H          -2.7534   -2.2767   -0.6784 H       1  UNL1        0.0777
     22 H          -3.2006   -2.1163    1.0471 H       1  UNL1        0.0777
     23 H          -2.1842    0.7794    1.3730 H       1  UNL1        0.0777
     24 H          -3.7488    1.5212    0.8703 H       1  UNL1        0.0777
     25 H          -3.7378    0.0985    1.9559 H       1  UNL1        0.0777
     26 H          -3.1223   -0.3632   -2.1719 H       1  UNL1        0.0814
     27 H          -3.4471    1.2402   -1.4817 H       1  UNL1        0.0814
     28 H          -1.0709    1.2269   -0.5088 H       1  UNL1        0.0326
     29 H          -0.8458   -0.3522   -1.2333 H       1  UNL1        0.0326
     30 H          -2.2469    2.1545   -4.8685 H       1  UNL1        0.0620
     31 H          -3.0752    4.4255   -5.3269 H       1  UNL1        0.0618
     32 H          -2.7356    6.2415   -3.6786 H       1  UNL1        0.0618
     33 H          -1.5990    5.7706   -1.5298 H       1  UNL1        0.0618
     34 H          -0.7484    3.5158   -1.0384 H       1  UNL1        0.0620
     35 H           1.0077    3.0898   -3.8037 H       1  UNL1        0.0636
     36 H           3.4642    2.9273   -3.7342 H       1  UNL1        0.0619
     37 H           4.5396    0.9724   -2.6149 H       1  UNL1        0.0633
     38 H           3.0653   -0.7641   -1.5992 H       1  UNL1        0.0829
     39 H          -4.3012   -0.5217   -0.2051 H       1  UNL1        0.2028
@<TRIPOS>UNITY_ATOM_ATTR
2 1
charge 1
@<TRIPOS>BOND
     1     1     2    1
     2     1    20    1
     3     1    21    1
     4     1    22    1
     5     2     3    1
     6     2     4    1
     7     2    39    1
     8     3    23    1
     9     3    24    1
    10     3    25    1
    11     4     5    1
    12     4    26    1
    13     4    27    1
    14     5     6    1
    15     5    28    1
    16     5    29    1
    17     6     7    1
    18     6     8    1
    19     6    14    1
    20     8    13   ar
    21     8     9   ar
    22     9    10   ar
    23     9    30    1
    24    10    11   ar
    25    10    31    1
    26    11    12   ar
    27    11    32    1
    28    12    13   ar
    29    12    33    1
    30    13    34    1
    31    14    19   ar
    32    14    15   ar
    33    15    16   ar
    34    15    35    1
    35    16    17   ar
    36    16    36    1
    37    17    18   ar
    38    17    37    1
    39    18    19   ar
    40    18    38    1
