@<TRIPOS>MOLECULE
ZINC00020241
 32 33 0 0 0
SMALL
GASTEIGER

@<TRIPOS>ATOM
      1 C           1.8133    1.7424   -0.0701 C.3     1  UNL1       -0.0394
      2 C           0.5856    0.8722   -0.1278 C.ar    1  UNL1       -0.0458
      3 C          -0.6681    1.4968   -0.0463 C.ar    1  UNL1       -0.0585
      4 C          -1.8320    0.7411   -0.0329 C.ar    1  UNL1       -0.0597
      5 C          -1.7541   -0.6485   -0.1049 C.ar    1  UNL1       -0.0403
      6 C          -0.5229   -1.3203   -0.2139 C.ar    1  UNL1        0.0345
      7 C           0.6638   -0.5438   -0.2453 C.ar    1  UNL1       -0.0264
      8 C           2.0055   -1.2237   -0.3639 C.3     1  UNL1       -0.0377
      9 N          -0.4910   -2.7278   -0.3725 N.pl3   1  UNL1       -0.3136
     10 C          -1.4847   -3.6056   -0.8677 C.ar    1  UNL1        0.0456
     11 C          -2.2193   -3.2098   -2.0084 C.ar    1  UNL1       -0.0397
     12 C          -3.1912   -4.0278   -2.5755 C.ar    1  UNL1       -0.0600
     13 C          -3.4795   -5.2565   -2.0039 C.ar    1  UNL1       -0.0609
     14 C          -2.8102   -5.6437   -0.8420 C.ar    1  UNL1       -0.0458
     15 C          -1.8158   -4.8281   -0.2502 C.ar    1  UNL1        0.0842
     16 C          -1.1621   -5.3345    1.0222 C.2     1  UNL1        0.3883
     17 O          -1.8038   -6.1924    1.7169 O.co2   1  UNL1       -0.2405
     18 O           0.0078   -4.8716    1.2851 O.co2   1  UNL1       -0.2405
     19 H           2.4380    1.4549    0.7816 H       1  UNL1        0.0278
     20 H           2.3889    1.6683   -0.9974 H       1  UNL1        0.0278
     21 H           1.5515    2.7983    0.0640 H       1  UNL1        0.0278
     22 H          -0.7430    2.5793    0.0238 H       1  UNL1        0.0620
     23 H          -2.8003    1.2252    0.0491 H       1  UNL1        0.0618
     24 H          -2.6759   -1.2232   -0.0477 H       1  UNL1        0.0636
     25 H           2.3445   -1.5533    0.6224 H       1  UNL1        0.0278
     26 H           1.9606   -2.0826   -1.0408 H       1  UNL1        0.0278
     27 H           2.7654   -0.5589   -0.7857 H       1  UNL1        0.0278
     28 H           0.2204   -3.2405    0.1644 H       1  UNL1        0.1522
     29 H          -1.9871   -2.2589   -2.4776 H       1  UNL1        0.0636
     30 H          -3.7065   -3.7092   -3.4738 H       1  UNL1        0.0618
     31 H          -4.2200   -5.9163   -2.4473 H       1  UNL1        0.0618
     32 H          -3.0512   -6.6001   -0.3815 H       1  UNL1        0.0626
@<TRIPOS>BOND
     1     1     2    1
     2     1    19    1
     3     1    20    1
     4     1    21    1
     5     2     7   ar
     6     2     3   ar
     7     3     4   ar
     8     3    22    1
     9     4     5   ar
    10     4    23    1
    11     5     6   ar
    12     5    24    1
    13     6     7   ar
    14     6     9    1
    15     7     8    1
    16     8    25    1
    17     8    26    1
    18     8    27    1
    19     9    10    1
    20     9    28    1
    21    10    15   ar
    22    10    11   ar
    23    11    12   ar
    24    11    29    1
    25    12    13   ar
    26    12    30    1
    27    13    14   ar
    28    13    31    1
    29    14    15   ar
    30    14    32    1
    31    15    16    1
    32    16    17   ar
    33    16    18   ar
