@<TRIPOS>MOLECULE
ZINC00537805
 60 62 0 0 0
SMALL
GASTEIGER

@<TRIPOS>ATOM
      1 C           4.3829    0.7525   -2.7725 C.3     1  UNL1        0.0788
      2 O           3.3680    0.5972   -1.7655 O.3     1  UNL1       -0.4944
      3 C           3.7833    0.8370   -0.4742 C.ar    1  UNL1        0.1323
      4 C           4.9419    1.6064   -0.2185 C.ar    1  UNL1       -0.0178
      5 C           5.4000    1.8393    1.0764 C.ar    1  UNL1       -0.0399
      6 C           4.7044    1.3077    2.1457 C.ar    1  UNL1        0.0419
      7 C           3.5505    0.5634    1.9256 C.ar    1  UNL1       -0.0277
      8 C           3.0506    0.3304    0.6242 C.ar    1  UNL1        0.0796
      9 C           1.7613   -0.4496    0.6143 C.2     1  UNL1        0.2477
     10 O           1.3205   -0.8973    1.6783 O.2     1  UNL1       -0.2701
     11 N           1.0786   -0.6350   -0.5656 N.am    1  UNL1       -0.3109
     12 C          -0.1720   -1.3923   -0.6169 C.3     1  UNL1        0.0159
     13 C          -1.4417   -0.5241   -0.5071 C.3     1  UNL1       -0.0120
     14 C          -2.7494   -1.2667   -0.7342 C.ar    1  UNL1       -0.0458
     15 C          -3.9511   -0.5446   -0.8629 C.ar    1  UNL1       -0.0567
     16 C          -5.1380   -1.1914   -1.2341 C.ar    1  UNL1       -0.0346
     17 C          -5.1306   -2.5698   -1.4654 C.ar    1  UNL1        0.1125
     18 C          -3.9763   -3.3119   -1.2375 C.ar    1  UNL1       -0.0346
     19 C          -2.7959   -2.6619   -0.8832 C.ar    1  UNL1       -0.0567
     20 S          -6.5981   -3.3867   -2.0945 S.O2    1  UNL1        0.0993
     21 O          -6.5747   -4.7675   -1.6315 O.2     1  UNL1       -0.1463
     22 O          -7.7074   -2.5543   -1.6361 O.2     1  UNL1       -0.1463
     23 N          -6.5074   -3.2508   -3.7133 N.2     1  UNL1       -0.1295
     24 C          -5.5152   -3.7314   -4.3912 C.2     1  UNL1        0.0684
     25 O          -4.5217   -4.4072   -4.1282 O.co2   1  UNL1       -0.8484
     26 N          -5.3422   -3.5119   -5.7188 N.pl3   1  UNL1       -0.3365
     27 C          -6.3717   -3.2649   -6.6929 C.3     1  UNL1        0.0210
     28 C          -5.7803   -2.3555   -7.7795 C.3     1  UNL1       -0.0346
     29 C          -6.7446   -2.1416   -8.9404 C.3     1  UNL1       -0.0514
     30 C          -7.2036   -3.4686   -9.5341 C.3     1  UNL1       -0.0529
     31 C          -7.8148   -4.3691   -8.4646 C.3     1  UNL1       -0.0514
     32 C          -6.8553   -4.5916   -7.2962 C.3     1  UNL1       -0.0346
     33 CL          5.2593    1.5897    3.7473 Cl      1  UNL1       -0.0835
     34 H           3.9767    0.4473   -3.7403 H       1  UNL1        0.0660
     35 H           5.2497    0.1156   -2.5543 H       1  UNL1        0.0660
     36 H           4.6945    1.7992   -2.8828 H       1  UNL1        0.0660
     37 H           5.5253    2.0599   -1.0141 H       1  UNL1        0.0655
     38 H           6.2952    2.4347    1.2337 H       1  UNL1        0.0633
     39 H           3.0222    0.1611    2.7891 H       1  UNL1        0.0641
     40 H           1.4728   -0.2794   -1.4286 H       1  UNL1        0.1490
     41 H          -0.1638   -1.9299   -1.5711 H       1  UNL1        0.0465
     42 H          -0.1753   -2.1429    0.1853 H       1  UNL1        0.0465
     43 H          -1.4775   -0.0305    0.4719 H       1  UNL1        0.0328
     44 H          -1.3733    0.2670   -1.2657 H       1  UNL1        0.0328
     45 H          -3.9673    0.5339   -0.7230 H       1  UNL1        0.0621
     46 H          -6.0494   -0.6197   -1.3899 H       1  UNL1        0.0637
     47 H          -3.9641   -4.3828   -1.4337 H       1  UNL1        0.0637
     48 H          -1.9093   -3.2808   -0.7907 H       1  UNL1        0.0621
     49 H          -4.5310   -4.0430   -6.0147 H       1  UNL1        0.1467
     50 H          -7.2243   -2.7468   -6.2334 H       1  UNL1        0.0497
     51 H          -5.5096   -1.3856   -7.3442 H       1  UNL1        0.0283
     52 H          -4.8477   -2.7915   -8.1639 H       1  UNL1        0.0283
     53 H          -6.2590   -1.5380   -9.7153 H       1  UNL1        0.0266
     54 H          -7.6165   -1.5753   -8.5914 H       1  UNL1        0.0266
     55 H          -6.3505   -3.9774  -10.0005 H       1  UNL1        0.0265
     56 H          -7.9367   -3.2836  -10.3273 H       1  UNL1        0.0265
     57 H          -8.0884   -5.3329   -8.9085 H       1  UNL1        0.0266
     58 H          -8.7405   -3.9134   -8.0928 H       1  UNL1        0.0266
     59 H          -5.9964   -5.1808   -7.6455 H       1  UNL1        0.0283
     60 H          -7.3503   -5.1967   -6.5269 H       1  UNL1        0.0283
@<TRIPOS>UNITY_ATOM_ATTR
25 1
charge -1
@<TRIPOS>BOND
     1     1     2    1
     2     1    34    1
     3     1    35    1
     4     1    36    1
     5     2     3    1
     6     3     8   ar
     7     3     4   ar
     8     4     5   ar
     9     4    37    1
    10     5     6   ar
    11     5    38    1
    12     6     7   ar
    13     6    33    1
    14     7     8   ar
    15     7    39    1
    16     8     9    1
    17     9    10    2
    18     9    11   am
    19    11    12    1
    20    11    40    1
    21    12    13    1
    22    12    41    1
    23    12    42    1
    24    13    14    1
    25    13    43    1
    26    13    44    1
    27    14    19   ar
    28    14    15   ar
    29    15    16   ar
    30    15    45    1
    31    16    17   ar
    32    16    46    1
    33    17    18   ar
    34    17    20    1
    35    18    19   ar
    36    18    47    1
    37    19    48    1
    38    20    21    2
    39    20    22    2
    40    20    23    1
    41    23    24    2
    42    24    25    1
    43    24    26    1
    44    26    27    1
    45    26    49    1
    46    27    32    1
    47    27    28    1
    48    27    50    1
    49    28    29    1
    50    28    51    1
    51    28    52    1
    52    29    30    1
    53    29    53    1
    54    29    54    1
    55    30    31    1
    56    30    55    1
    57    30    56    1
    58    31    32    1
    59    31    57    1
    60    31    58    1
    61    32    59    1
    62    32    60    1
