@<TRIPOS>MOLECULE
ZINC02041360
 33 34 0 0 0
SMALL
GASTEIGER

@<TRIPOS>ATOM
      1 C           0.9438   -0.1019    0.1241 C.3     1  UNL1       -0.0389
      2 C           2.4951   -0.0425    0.0876 C.3     1  UNL1        0.1417
      3 C           2.9572   -1.4257   -0.3720 C.2     1  UNL1        0.2393
      4 O           3.2223   -2.3628    0.3853 O.2     1  UNL1       -0.2739
      5 N           2.9787   -1.6296   -1.7272 N.am    1  UNL1       -0.2386
      6 C           2.7416   -0.7020   -2.7072 C.2     1  UNL1        0.3146
      7 N           2.4885    0.5843   -2.2801 N.am    1  UNL1       -0.2277
      8 C           2.8077    1.0045   -0.9933 C.2     1  UNL1        0.2416
      9 O           3.2096    2.1417   -0.7490 O.2     1  UNL1       -0.2737
     10 C           2.1820    1.5806   -3.2874 C.3     1  UNL1        0.0124
     11 O           2.7982   -1.0364   -3.8850 O.2     1  UNL1       -0.2518
     12 C           3.1141    0.3499    1.4530 C.2     1  UNL1       -0.0501
     13 C           2.3755    0.7429    2.5151 C.2     1  UNL1       -0.0833
     14 C           2.9281    1.1987    3.8341 C.3     1  UNL1       -0.0345
     15 C           4.4223    1.4893    3.7893 C.3     1  UNL1       -0.0493
     16 C           5.1501    0.3969    3.0201 C.3     1  UNL1       -0.0490
     17 C           4.6328    0.2964    1.5762 C.3     1  UNL1       -0.0303
     18 H           0.5854   -0.8100    0.8794 H       1  UNL1        0.0247
     19 H           0.5162    0.8872    0.3332 H       1  UNL1        0.0247
     20 H           0.5148   -0.4242   -0.8317 H       1  UNL1        0.0247
     21 H           2.9863    1.6345   -4.0254 H       1  UNL1        0.0434
     22 H           1.2623    1.2700   -3.7972 H       1  UNL1        0.0434
     23 H           2.0122    2.5657   -2.8437 H       1  UNL1        0.0434
     24 H           1.2916    0.7767    2.4705 H       1  UNL1        0.0572
     25 H           2.7172    0.4250    4.5819 H       1  UNL1        0.0307
     26 H           2.3970    2.1036    4.1512 H       1  UNL1        0.0307
     27 H           4.8127    1.5669    4.8103 H       1  UNL1        0.0268
     28 H           4.5978    2.4583    3.3053 H       1  UNL1        0.0268
     29 H           6.2284    0.5955    3.0175 H       1  UNL1        0.0268
     30 H           5.0072   -0.5639    3.5323 H       1  UNL1        0.0268
     31 H           5.0641    1.1160    0.9893 H       1  UNL1        0.0310
     32 H           5.0266   -0.6351    1.1558 H       1  UNL1        0.0310
     33 H           3.2045   -2.5630   -2.0444 H       1  UNL1        0.1591
@<TRIPOS>BOND
     1     1    18    1
     2     1    19    1
     3     1    20    1
     4     2     1    1
     5     2     8    1
     6     2     3    1
     7     2    12    1
     8     3     4    2
     9     3     5   am
    10     5     6   am
    11     5    33    1
    12     6     7   am
    13     6    11    2
    14     7     8   am
    15     7    10    1
    16     8     9    2
    17    10    21    1
    18    10    22    1
    19    10    23    1
    20    12    17    1
    21    12    13    2
    22    13    14    1
    23    13    24    1
    24    14    15    1
    25    14    25    1
    26    14    26    1
    27    15    16    1
    28    15    27    1
    29    15    28    1
    30    16    17    1
    31    16    29    1
    32    16    30    1
    33    17    31    1
    34    17    32    1
