@<TRIPOS>MOLECULE
ZINC00061044
 26 27 0 0 0
SMALL
GASTEIGER

@<TRIPOS>ATOM
      1 C           0.9419   -0.0309   -0.2323 C.3     1  UNL1       -0.0226
      2 C           0.5043    1.3727    0.0347 C.ar    1  UNL1        0.0381
      3 C          -0.5105    1.6959    0.8494 C.ar    1  UNL1        0.0252
      4 C          -0.4796    3.1694    0.9685 C.ar    1  UNL1        0.2720
      5 O          -1.2723    3.7974    1.6495 O.2     1  UNL1       -0.2658
      6 N           0.5670    3.6044    0.1606 N.ar    1  UNL1       -0.2172
      7 N           1.1489    2.4920   -0.5078 N.ar    1  UNL1       -0.2841
      8 C           2.6023    2.5437   -0.6852 C.3     1  UNL1        0.0291
      9 C           0.9100    4.9384   -0.0954 C.ar    1  UNL1        0.0673
     10 C           1.1527    5.3859   -1.3987 C.ar    1  UNL1       -0.0362
     11 C           1.4850    6.7239   -1.6336 C.ar    1  UNL1       -0.0598
     12 C           1.6122    7.6095   -0.5649 C.ar    1  UNL1       -0.0616
     13 C           1.3839    7.1690    0.7382 C.ar    1  UNL1       -0.0598
     14 C           1.0076    5.8450    0.9673 C.ar    1  UNL1       -0.0362
     15 H           0.8004   -0.2876   -1.2861 H       1  UNL1        0.0292
     16 H           0.3720   -0.7441    0.3728 H       1  UNL1        0.0292
     17 H           1.9949   -0.1682    0.0287 H       1  UNL1        0.0292
     18 H          -1.1897    1.0672    1.3911 H       1  UNL1        0.0690
     19 H           2.8621    3.2099   -1.5138 H       1  UNL1        0.0472
     20 H           3.1038    2.8975    0.2225 H       1  UNL1        0.0472
     21 H           3.0172    1.5649   -0.9420 H       1  UNL1        0.0472
     22 H           1.0276    4.7102   -2.2402 H       1  UNL1        0.0639
     23 H           1.6285    7.0764   -2.6514 H       1  UNL1        0.0618
     24 H           1.8822    8.6471   -0.7459 H       1  UNL1        0.0618
     25 H           1.4970    7.8515    1.5749 H       1  UNL1        0.0618
     26 H           0.8362    5.5110    1.9891 H       1  UNL1        0.0639
@<TRIPOS>BOND
     1     1     2    1
     2     1    15    1
     3     1    16    1
     4     1    17    1
     5     2     7   ar
     6     2     3   ar
     7     3     4   ar
     8     3    18    1
     9     4     5    2
    10     4     6   ar
    11     6     7   ar
    12     6     9    1
    13     7     8    1
    14     8    19    1
    15     8    20    1
    16     8    21    1
    17     9    14   ar
    18     9    10   ar
    19    10    11   ar
    20    10    22    1
    21    11    12   ar
    22    11    23    1
    23    12    13   ar
    24    12    24    1
    25    13    14   ar
    26    13    25    1
    27    14    26    1
