@<TRIPOS>MOLECULE
ZINC01530637
 41 42 0 0 0
SMALL
GASTEIGER

@<TRIPOS>ATOM
      1 C           1.0014    0.0000   -2.6470 C.3     1  UNL1       -0.0449
      2 N           0.5600   -0.7471   -1.4442 N.4     1  UNL1        0.2249
      3 C           0.9477   -2.1892   -1.4286 C.3     1  UNL1       -0.0302
      4 C           0.4751   -2.8655   -0.1481 C.3     1  UNL1        0.0287
      5 C          -1.0584   -2.9971   -0.0389 C.3     1  UNL1        0.1300
      6 H          -1.3877   -3.6237   -0.8735 H       1  UNL1        0.0786
      7 C          -1.3756   -3.6724    1.2832 C.ar    1  UNL1       -0.0072
      8 C          -1.4828   -5.0723    1.3351 C.ar    1  UNL1       -0.0551
      9 C          -1.6492   -5.7291    2.5553 C.ar    1  UNL1       -0.0614
     10 C          -1.7138   -4.9979    3.7383 C.ar    1  UNL1       -0.0617
     11 C          -1.6238   -3.6083    3.7022 C.ar    1  UNL1       -0.0614
     12 C          -1.4557   -2.9476    2.4830 C.ar    1  UNL1       -0.0551
     13 O          -1.6138   -1.6701   -0.1323 O.3     1  UNL1       -0.4840
     14 C          -2.9197   -1.5345   -0.5239 C.ar    1  UNL1        0.1214
     15 C          -3.5638   -0.3874   -0.0534 C.ar    1  UNL1       -0.0194
     16 C          -4.8913   -0.1162   -0.4072 C.ar    1  UNL1       -0.0467
     17 C          -5.5908   -0.9846   -1.2534 C.ar    1  UNL1        0.0550
     18 C          -4.9265   -2.1174   -1.7466 C.ar    1  UNL1       -0.0467
     19 C          -3.5997   -2.3884   -1.3897 C.ar    1  UNL1       -0.0194
     20 C          -7.0341   -0.7345   -1.6311 C.3     1  UNL1        0.4174
     21 F          -7.5494    0.4001   -1.0891 F       1  UNL1       -0.1659
     22 F          -7.1953   -0.6167   -2.9782 F       1  UNL1       -0.1659
     23 F          -7.8528   -1.7493   -1.2421 F       1  UNL1       -0.1659
     24 H           2.0937    0.0240   -2.6505 H       1  UNL1        0.0777
     25 H           0.5951    1.0107   -2.5719 H       1  UNL1        0.0777
     26 H           0.6120   -0.5067   -3.5331 H       1  UNL1        0.0777
     27 H           0.9225   -0.2806   -0.6017 H       1  UNL1        0.2011
     28 H           0.5174   -2.6613   -2.3180 H       1  UNL1        0.0815
     29 H           2.0405   -2.2224   -1.4907 H       1  UNL1        0.0815
     30 H           0.9236   -3.8668   -0.1046 H       1  UNL1        0.0356
     31 H           0.8708   -2.3067    0.7104 H       1  UNL1        0.0356
     32 H          -1.4186   -5.6714    0.4292 H       1  UNL1        0.0621
     33 H          -1.7193   -6.8142    2.5868 H       1  UNL1        0.0618
     34 H          -1.8339   -5.5117    4.6896 H       1  UNL1        0.0618
     35 H          -1.6754   -3.0414    4.6290 H       1  UNL1        0.0618
     36 H          -1.3740   -1.8636    2.4867 H       1  UNL1        0.0621
     37 H          -3.0497    0.2989    0.6165 H       1  UNL1        0.0654
     38 H          -5.3809    0.7740   -0.0111 H       1  UNL1        0.0624
     39 H          -5.4497   -2.8006   -2.4172 H       1  UNL1        0.0624
     40 H          -3.1456   -3.2727   -1.8219 H       1  UNL1        0.0654
     41 H          -0.4689   -0.6809   -1.3528 H       1  UNL1        0.2011
@<TRIPOS>UNITY_ATOM_ATTR
2 1
charge 1
@<TRIPOS>BOND
     1     1     2    1
     2     1    24    1
     3     1    25    1
     4     1    26    1
     5     2     3    1
     6     2    27    1
     7     2    41    1
     8     3     4    1
     9     3    28    1
    10     3    29    1
    11     4     5    1
    12     4    30    1
    13     4    31    1
    14     5     6    1
    15     5     7    1
    16     5    13    1
    17     7    12   ar
    18     7     8   ar
    19     8     9   ar
    20     8    32    1
    21     9    10   ar
    22     9    33    1
    23    10    11   ar
    24    10    34    1
    25    11    12   ar
    26    11    35    1
    27    12    36    1
    28    13    14    1
    29    14    19   ar
    30    14    15   ar
    31    15    16   ar
    32    15    37    1
    33    16    17   ar
    34    16    38    1
    35    17    18   ar
    36    17    20    1
    37    18    19   ar
    38    18    39    1
    39    19    40    1
    40    20    21    1
    41    20    22    1
    42    20    23    1
