@<TRIPOS>MOLECULE
ZINC00001798
 27 28 0 0 0
SMALL
GASTEIGER

@<TRIPOS>ATOM
      1 C          -0.9727    0.1728   -1.8339 C.3     1  UNL1       -0.0425
      2 N          -0.6904   -0.0180   -0.3639 N.4     1  UNL1        0.2385
      3 C           0.0749   -1.2848   -0.0681 C.3     1  UNL1       -0.0314
      4 C           1.5382   -0.8694   -0.0899 C.3     1  UNL1       -0.0071
      5 C           1.5612    0.6581   -0.0664 C.3     1  UNL1       -0.0005
      6 C           0.1364    1.0976    0.2680 C.3     1  UNL1        0.0064
      7 H          -0.0987    2.0326   -0.2550 H       1  UNL1        0.0904
      8 C          -0.1748    1.2906    1.7339 C.ar    1  UNL1        0.0182
      9 C           0.5211    0.6693    2.7803 C.ar    1  UNL1       -0.0504
     10 C           0.1761    0.9264    4.1077 C.ar    1  UNL1       -0.0431
     11 C          -0.8728    1.7893    4.3564 C.ar    1  UNL1        0.0276
     12 N          -1.5815    2.3895    3.3808 N.ar    1  UNL1       -0.2628
     13 C          -1.2175    2.1405    2.1040 C.ar    1  UNL1        0.0360
     14 H          -0.4103   -0.5645   -2.4164 H       1  UNL1        0.0778
     15 H          -2.0454    0.0305   -1.9828 H       1  UNL1        0.0778
     16 H          -0.6817    1.1802   -2.1404 H       1  UNL1        0.0778
     17 H          -0.2348   -1.6191    0.9277 H       1  UNL1        0.0814
     18 H          -0.1787   -2.0574   -0.7983 H       1  UNL1        0.0814
     19 H           2.0415   -1.2415   -0.9887 H       1  UNL1        0.0319
     20 H           2.0714   -1.2944    0.7680 H       1  UNL1        0.0319
     21 H           1.8253    1.0187   -1.0690 H       1  UNL1        0.0325
     22 H           2.3183    1.0559    0.6170 H       1  UNL1        0.0325
     23 H           1.3595    0.0017    2.6044 H       1  UNL1        0.0623
     24 H           0.7199    0.4719    4.9286 H       1  UNL1        0.0633
     25 H          -1.1716    2.0332    5.3730 H       1  UNL1        0.0829
     26 H          -1.8159    2.6741    1.3703 H       1  UNL1        0.0834
     27 H          -1.5971   -0.0643    0.1224 H       1  UNL1        0.2037
@<TRIPOS>UNITY_ATOM_ATTR
2 1
charge 1
@<TRIPOS>BOND
     1     1    14    1
     2     1    15    1
     3     1    16    1
     4     2     6    1
     5     2     3    1
     6     3     4    1
     7     3    17    1
     8     3    18    1
     9     4     5    1
    10     4    19    1
    11     4    20    1
    12     5     6    1
    13     5    21    1
    14     5    22    1
    15     6     7    1
    16     6     8    1
    17     8    13   ar
    18     8     9   ar
    19     9    10   ar
    20     9    23    1
    21    10    11   ar
    22    10    24    1
    23    11    12   ar
    24    11    25    1
    25    12    13   ar
    26    13    26    1
    27     2    27    1
    28     2     1    1
