@<TRIPOS>MOLECULE
ZINC00901555
 14 13 0 0 0
SMALL
GASTEIGER

@<TRIPOS>ATOM
      1 C           1.0998   -0.3633   -2.3817 C.3     1  UNL1        0.0565
      2 C           0.5854    0.5923   -1.2935 C.3     1  UNL1        0.0341
      3 H           0.9678    0.2382   -0.3281 H       1  UNL1        0.0440
      4 C          -0.9523    0.6107   -1.2679 C.3     1  UNL1        0.0044
      5 S          -1.6648    1.5787    0.1058 S.3     1  UNL1       -0.1771
      6 S           1.3086    2.2574   -1.5862 S.3     1  UNL1       -0.1718
      7 O           0.6500    0.0171   -3.6794 O.3     1  UNL1       -0.3939
      8 H           0.7281   -1.3767   -2.1926 H       1  UNL1        0.0568
      9 H           2.1934   -0.4184   -2.3905 H       1  UNL1        0.0568
     10 H          -1.3637    1.0001   -2.2056 H       1  UNL1        0.0385
     11 H          -1.3251   -0.4148   -1.1537 H       1  UNL1        0.0385
     12 H          -0.9962    0.9724    1.0981 H       1  UNL1        0.1017
     13 H           0.4758    2.6200   -2.5752 H       1  UNL1        0.1020
     14 H           1.1547    0.8125   -3.9283 H       1  UNL1        0.2094
@<TRIPOS>BOND
     1     1     7    1
     2     1     8    1
     3     1     9    1
     4     2     4    1
     5     2     6    1
     6     4     5    1
     7     4    10    1
     8     4    11    1
     9     5    12    1
    10     6    13    1
    11     7    14    1
    12     2     3    1
    13     2     1    1
