@<TRIPOS>MOLECULE
ZINC03831477
 14 13 0 0 0
SMALL
GASTEIGER

@<TRIPOS>ATOM
      1 C           1.0903    0.0519    0.0148 C.3     1  UNL1        0.1254
      2 H           0.6690   -0.9619    0.0443 H       1  UNL1        0.0542
      3 C           0.6577    0.6962   -1.3071 C.3     1  UNL1        0.1254
      4 H          -0.4288    0.8474   -1.2891 H       1  UNL1        0.0542
      5 C           0.9342   -0.1047   -2.6132 C.2     1  UNL1        0.3700
      6 O           0.3873    0.3624   -3.6658 O.co2   1  UNL1       -0.2451
      7 O           1.6623   -1.1366   -2.5265 O.co2   1  UNL1       -0.2451
      8 S           1.3892    2.3693   -1.6503 S.3     1  UNL1       -0.1620
      9 C           0.4949    0.7638    1.2640 C.2     1  UNL1        0.3700
     10 O           1.2534    1.1070    2.2167 O.co2   1  UNL1       -0.2451
     11 O          -0.7776    0.8774    1.2408 O.co2   1  UNL1       -0.2451
     12 S           2.9061   -0.1949    0.2102 S.3     1  UNL1       -0.1620
     13 H           0.9418    2.3943   -2.9187 H       1  UNL1        0.1025
     14 H           3.0291   -0.8064   -0.9848 H       1  UNL1        0.1025
@<TRIPOS>BOND
     1     1     9    1
     2     1    12    1
     3     3     8    1
     4     5     6   ar
     5     5     7   ar
     6     8    13    1
     7     9    10   ar
     8     9    11   ar
     9    12    14    1
    10     1     3    1
    11     1     2    1
    12     3     5    1
    13     3     4    1
