@<TRIPOS>MOLECULE
ZINC03830394
 48 51 0 0 0
SMALL
GASTEIGER

@<TRIPOS>ATOM
      1 C           1.0775   -3.8295    1.2061 C.3     1  UNL1        0.0346
      2 N           1.2036   -2.4601    0.8002 N.ar    1  UNL1       -0.2233
      3 C           0.4643   -1.6610   -0.0249 C.ar    1  UNL1        0.2094
      4 N           1.0809   -0.5004   -0.1307 N.ar    1  UNL1       -0.1015
      5 N           2.2057   -0.5842    0.6454 N.ar    1  UNL1       -0.0222
      6 N           2.3005   -1.7779    1.2095 N.ar    1  UNL1       -0.0435
      7 S          -0.9286   -2.0501   -0.9689 S.3     1  UNL1       -0.0801
      8 C          -2.1084   -2.9214    0.0914 C.3     1  UNL1        0.0253
      9 C          -2.5014   -2.3132    1.4317 C.2     1  UNL1       -0.0210
     10 CA         -2.9006   -3.0963    2.4754 C.2     1  UNL1        0.1271
     11 N          -3.3821   -2.5105    3.6268 N.am    1  UNL1       -0.2488
     12 C          -3.8433   -1.1604    3.7582 C.3     1  UNL1        0.1042
     13 H          -4.8413   -0.9901    3.3405 H       1  UNL1        0.0644
     14 CA         -3.8409   -1.3981    5.3062 C.3     1  UNL1        0.1284
     15 HA         -4.8408   -1.5985    5.7133 H       1  UNL1        0.0622
     16 C          -3.0808   -2.7154    4.9345 C.2     1  UNL1        0.2440
     17 O          -2.3871   -3.5205    5.5093 O.2     1  UNL1       -0.2731
     18 N          -3.1366   -0.3698    6.1178 N.am    1  UNL1       -0.2993
     19 C          -3.0482   -0.4158    7.4918 C.2     1  UNL1        0.2468
     20 O          -3.5292   -1.3179    8.1740 O.2     1  UNL1       -0.2726
     21 C          -2.3178    0.7953    8.1196 C.3     1  UNL1        0.1558
     22 H          -2.7571    0.9412    9.1152 H       1  UNL1        0.0741
     23 C          -0.8270    0.5677    8.2395 C.ar    1  UNL1       -0.0103
     24 C          -0.3105   -0.0984    9.3619 C.ar    1  UNL1       -0.0557
     25 C           1.0510   -0.3954    9.4482 C.ar    1  UNL1       -0.0614
     26 C           1.9117   -0.0324    8.4146 C.ar    1  UNL1       -0.0617
     27 C           1.4175    0.6502    7.3057 C.ar    1  UNL1       -0.0614
     28 C           0.0579    0.9525    7.2197 C.ar    1  UNL1       -0.0557
     29 O          -2.5678    2.0000    7.3893 O.3     1  UNL1       -0.3779
     30 S          -2.5598   -0.0427    3.1278 S.3     1  UNL1       -0.1311
     31 C          -2.5451   -0.7942    1.4772 C.3     1  UNL1        0.0196
     32 C          -3.0262   -4.6981    2.4304 C.2     1  UNL1        0.4006
     33 O          -4.0397   -5.1509    3.0410 O.co2   1  UNL1       -0.2392
     34 OXT        -2.1742   -5.3033    1.7208 O.co2   1  UNL1       -0.2392
     35 H           1.9534   -4.3737    0.8415 H       1  UNL1        0.0474
     36 H           1.0475   -3.8637    2.2981 H       1  UNL1        0.0474
     37 H           0.1875   -4.2867    0.7919 H       1  UNL1        0.0474
     38 H          -3.0259   -3.0082   -0.5006 H       1  UNL1        0.0427
     39 H          -1.7095   -3.9275    0.1515 H       1  UNL1        0.0427
     40 H          -2.6749    0.4092    5.6543 H       1  UNL1        0.1496
     41 H          -0.9724   -0.4200   10.1640 H       1  UNL1        0.0621
     42 H           1.4345   -0.9363   10.3092 H       1  UNL1        0.0618
     43 H           2.9639   -0.2987    8.4627 H       1  UNL1        0.0618
     44 H           2.0846    0.9250    6.4925 H       1  UNL1        0.0618
     45 H          -0.3100    1.4707    6.3360 H       1  UNL1        0.0621
     46 H          -2.4853    2.7207    8.0369 H       1  UNL1        0.2109
     47 H          -3.4229   -0.4487    0.9221 H       1  UNL1        0.0423
     48 H          -1.6666   -0.3519    1.0114 H       1  UNL1        0.0423
@<TRIPOS>BOND
     1     1     2    1
     2     1    35    1
     3     1    36    1
     4     1    37    1
     5     2     6   ar
     6     2     3   ar
     7     3     4   ar
     8     3     7    1
     9     4     5   ar
    10     5     6   ar
    11     7     8    1
    12     8     9    1
    13     8    38    1
    14     8    39    1
    15     9    31    1
    16     9    10    2
    17    10    11    1
    18    10    32    1
    19    11    16   am
    20    11    12    1
    21    12    13    1
    22    12    14    1
    23    12    30    1
    24    14    16    1
    25    16    17    2
    26    18    19   am
    27    18    40    1
    28    19    20    2
    29    19    21    1
    30    21    22    1
    31    21    23    1
    32    21    29    1
    33    23    28   ar
    34    23    24   ar
    35    24    25   ar
    36    24    41    1
    37    25    26   ar
    38    25    42    1
    39    26    27   ar
    40    26    43    1
    41    27    28   ar
    42    27    44    1
    43    28    45    1
    44    29    46    1
    45    30    31    1
    46    31    47    1
    47    31    48    1
    48    32    33   ar
    49    32    34   ar
    50    14    18    1
    51    14    15    1
