@<TRIPOS>MOLECULE
ZINC00001677
 21 22 0 0 0
SMALL
GASTEIGER

@<TRIPOS>ATOM
      1 C          -3.5157    0.3051    0.0090 C.3     1  UNL1       -0.0359
      2 C          -2.0658   -0.0677    0.0139 C.2     1  UNL1        0.0004
      3 C          -1.6394   -1.3367    0.0347 C.2     1  UNL1       -0.0078
      4 C          -0.2085   -1.6963    0.0197 C.2     1  UNL1        0.1871
      5 O           0.1315   -2.8718    0.0174 O.2     1  UNL1       -0.2872
      6 C           0.7748   -0.5995    0.0078 C.ar    1  UNL1        0.0325
      7 C           2.1435   -0.8984    0.0090 C.ar    1  UNL1       -0.0503
      8 C           3.0827    0.1341    0.0100 C.ar    1  UNL1       -0.0610
      9 C           2.6589    1.4627    0.0074 C.ar    1  UNL1       -0.0610
     10 C           1.2950    1.7617   -0.0003 C.ar    1  UNL1       -0.0502
     11 C           0.3494    0.7274   -0.0006 C.ar    1  UNL1        0.0327
     12 C          -1.0911    1.0568   -0.0102 C.2     1  UNL1        0.1897
     13 O          -1.4684    2.2220   -0.0355 O.2     1  UNL1       -0.2870
     14 H          -3.7604    0.9134    0.8858 H       1  UNL1        0.0279
     15 H          -3.7608    0.8764   -0.8925 H       1  UNL1        0.0279
     16 H          -4.1633   -0.5780    0.0266 H       1  UNL1        0.0279
     17 H          -2.3273   -2.1754    0.0567 H       1  UNL1        0.0660
     18 H           2.4807   -1.9338    0.0110 H       1  UNL1        0.0625
     19 H           4.1455   -0.0986    0.0141 H       1  UNL1        0.0618
     20 H           3.3907    2.2676    0.0111 H       1  UNL1        0.0618
     21 H           0.9727    2.8017   -0.0048 H       1  UNL1        0.0625
@<TRIPOS>BOND
     1     1     2    1
     2     1    14    1
     3     1    15    1
     4     1    16    1
     5     2    12    1
     6     2     3    2
     7     3     4    1
     8     3    17    1
     9     4     5    2
    10     4     6    1
    11     6    11   ar
    12     6     7   ar
    13     7     8   ar
    14     7    18    1
    15     8     9   ar
    16     8    19    1
    17     9    10   ar
    18     9    20    1
    19    10    11   ar
    20    10    21    1
    21    11    12    1
    22    12    13    2
