@<TRIPOS>MOLECULE
ZINC00968263
 43 45 0 0 0
SMALL
GASTEIGER

@<TRIPOS>ATOM
      1 C           1.0278    0.6760    0.9317 C.3     1  UNL1       -0.0433
      2 N           0.7351   -0.0212   -0.3662 N.4     1  UNL1        0.2311
      3 C           1.4020   -1.3730   -0.3986 C.3     1  UNL1       -0.0433
      4 C          -0.7378   -0.1165   -0.6999 C.3     1  UNL1       -0.0289
      5 C          -1.4107    1.2561   -0.8748 C.3     1  UNL1        0.0065
      6 C          -0.9155    2.2754   -1.8777 C.2     1  UNL1       -0.0707
      7 C          -0.3385    2.1708   -3.0922 C.2     1  UNL1       -0.0133
      8 C          -0.0159    0.8720   -3.7222 C.ar    1  UNL1       -0.0105
      9 C          -1.0549   -0.0055   -4.0720 C.ar    1  UNL1       -0.0535
     10 C          -0.7651   -1.2667   -4.5904 C.ar    1  UNL1       -0.0611
     11 C           0.5583   -1.6378   -4.8084 C.ar    1  UNL1       -0.0612
     12 C           1.5920   -0.7368   -4.5408 C.ar    1  UNL1       -0.0540
     13 C           1.3204    0.5330   -4.0106 C.ar    1  UNL1       -0.0173
     14 C           2.4672    1.4213   -3.7266 C.2     1  UNL1       -0.0534
     15 C           2.4916    2.7652   -3.7801 C.2     1  UNL1       -0.0534
     16 C           1.3838    3.6695   -4.1454 C.ar    1  UNL1       -0.0173
     17 C           0.0419    3.4268   -3.7896 C.ar    1  UNL1       -0.0105
     18 C          -0.9523    4.3464   -4.1753 C.ar    1  UNL1       -0.0535
     19 C          -0.6204    5.4936   -4.8942 C.ar    1  UNL1       -0.0611
     20 C           0.7057    5.7412   -5.2338 C.ar    1  UNL1       -0.0612
     21 C           1.7029    4.8398   -4.8504 C.ar    1  UNL1       -0.0540
     22 H           0.5827    0.0975    1.7466 H       1  UNL1        0.0777
     23 H           0.6129    1.6848    0.8974 H       1  UNL1        0.0777
     24 H           2.1131    0.7362    1.0451 H       1  UNL1        0.0777
     25 H           1.1472   -1.9123    0.5196 H       1  UNL1        0.0777
     26 H           1.0537   -1.9243   -1.2754 H       1  UNL1        0.0777
     27 H           2.4810   -1.2104   -0.4637 H       1  UNL1        0.0777
     28 H          -0.8268   -0.7237   -1.6013 H       1  UNL1        0.0817
     29 H          -1.2158   -0.6744    0.1140 H       1  UNL1        0.0817
     30 H          -2.4763    1.0908   -1.0778 H       1  UNL1        0.0359
     31 H          -1.3937    1.7518    0.1040 H       1  UNL1        0.0359
     32 H          -1.0999    3.2974   -1.5203 H       1  UNL1        0.0580
     33 H          -2.0942    0.2863   -3.9349 H       1  UNL1        0.0624
     34 H          -1.5716   -1.9557   -4.8338 H       1  UNL1        0.0618
     35 H           0.7868   -2.6203   -5.2180 H       1  UNL1        0.0618
     36 H           2.6134   -1.0312   -4.7776 H       1  UNL1        0.0624
     37 H           3.4048    0.9151   -3.5115 H       1  UNL1        0.0624
     38 H           3.4385    3.2676   -3.5842 H       1  UNL1        0.0624
     39 H          -1.9971    4.1589   -3.9398 H       1  UNL1        0.0624
     40 H          -1.3981    6.1900   -5.2049 H       1  UNL1        0.0618
     41 H           0.9659    6.6287   -5.8072 H       1  UNL1        0.0618
     42 H           2.7316    5.0526   -5.1365 H       1  UNL1        0.0624
     43 H           1.1570    0.5374   -1.1238 H       1  UNL1        0.2028
@<TRIPOS>UNITY_ATOM_ATTR
2 1
charge 1
@<TRIPOS>BOND
     1     1     2    1
     2     1    22    1
     3     1    23    1
     4     1    24    1
     5     2     3    1
     6     2     4    1
     7     2    43    1
     8     3    25    1
     9     3    26    1
    10     3    27    1
    11     4     5    1
    12     4    28    1
    13     4    29    1
    14     5     6    1
    15     5    30    1
    16     5    31    1
    17     6     7    2
    18     6    32    1
    19     7    17    1
    20     7     8    1
    21     8    13   ar
    22     8     9   ar
    23     9    10   ar
    24     9    33    1
    25    10    11   ar
    26    10    34    1
    27    11    12   ar
    28    11    35    1
    29    12    13   ar
    30    12    36    1
    31    13    14    1
    32    14    15    2
    33    14    37    1
    34    15    16    1
    35    15    38    1
    36    16    21   ar
    37    16    17   ar
    38    17    18   ar
    39    18    19   ar
    40    18    39    1
    41    19    20   ar
    42    19    40    1
    43    20    21   ar
    44    20    41    1
    45    21    42    1
