@<TRIPOS>MOLECULE
ZINC03861599
 61 65 0 0 0
SMALL
GASTEIGER

@<TRIPOS>ATOM
      1 C           0.3300   -0.5100   -0.1900 C.3     1  UNL1        0.0044
      2 C          -0.1179   -0.3883    1.2477 C.2     1  UNL1        0.1866
      3 O          -1.1137    0.2375    1.5874 O.2     1  UNL1       -0.2855
      4 S           0.9084   -1.2575    2.3754 S.3     1  UNL1       -0.0844
      5 C           0.1454   -0.9933    4.0461 C.3     1  UNL1        0.0195
      6 H          -0.8688   -1.4103    4.0144 H       1  UNL1        0.0422
      7 C           0.0514    0.4892    4.4449 C.3     1  UNL1       -0.0182
      8 C           1.4104    1.1190    4.6551 C.2     1  UNL1       -0.0590
      9 C           1.7670    2.1948    3.9244 C.2     1  UNL1       -0.0194
     10 C           3.0434    2.8966    4.1800 C.2     1  UNL1        0.1561
     11 O           3.3899    3.8081    3.4366 O.2     1  UNL1       -0.2927
     12 C           3.8125    2.5204    5.4167 C.3     1  UNL1        0.0107
     13 C           3.7579    1.0150    5.6130 C.3     1  UNL1       -0.0366
     14 C           2.3105    0.4477    5.6885 C.3     1  UNL1       -0.0071
     15 C           2.3760   -1.0938    5.3763 C.3     1  UNL1       -0.0278
     16 H           2.8981   -1.1956    4.4126 H       1  UNL1        0.0312
     17 C           0.9584   -1.7430    5.1715 C.3     1  UNL1       -0.0214
     18 H           0.3957   -1.6316    6.1078 H       1  UNL1        0.0317
     19 C           1.1237   -3.2491    4.9100 C.3     1  UNL1       -0.0277
     20 H           1.6690   -3.3388    3.9615 H       1  UNL1        0.0310
     21 C          -0.1359   -4.1063    4.7691 C.3     1  UNL1       -0.0457
     22 C           0.3435   -5.5500    5.0426 C.3     1  UNL1       -0.0120
     23 C           1.8571   -5.4426    5.3806 C.3     1  UNL1        0.1196
     24 C           1.9537   -4.0040    5.9684 C.3     1  UNL1        0.0109
     25 C           3.3500   -3.3707    6.0454 C.3     1  UNL1       -0.0434
     26 C           3.2648   -1.8762    6.3782 C.3     1  UNL1       -0.0485
     27 C           1.3293   -3.9838    7.3965 C.3     1  UNL1       -0.0557
     28 C           2.7086   -5.7465    4.1470 C.3     1  UNL1       -0.0022
     29 C           2.8890   -7.2437    4.2186 C.3     1  UNL1        0.0486
     30 C           2.8328   -7.4923    5.6922 C.2     1  UNL1        0.3077
     31 O           3.2190   -8.5035    6.2536 O.2     1  UNL1       -0.2508
     32 O           2.2482   -6.4361    6.3285 O.3     1  UNL1       -0.4575
     33 C           1.7264    0.7353    7.0906 C.3     1  UNL1       -0.0556
     34 H          -0.3036    0.1104   -0.8298 H       1  UNL1        0.0315
     35 H           0.2489   -1.5476   -0.5267 H       1  UNL1        0.0315
     36 H           1.3659   -0.1638   -0.3065 H       1  UNL1        0.0315
     37 H          -0.5046    0.5601    5.3899 H       1  UNL1        0.0321
     38 H          -0.5578    1.0633    3.7411 H       1  UNL1        0.0321
     39 H           1.1367    2.6242    3.1560 H       1  UNL1        0.0652
     40 H           4.8566    2.8296    5.2906 H       1  UNL1        0.0345
     41 H           3.3966    3.0596    6.2740 H       1  UNL1        0.0345
     42 H           4.2900    0.5488    4.7721 H       1  UNL1        0.0278
     43 H           4.3224    0.7577    6.5175 H       1  UNL1        0.0278
     44 H          -0.9052   -3.8169    5.4940 H       1  UNL1        0.0269
     45 H          -0.5756   -4.0180    3.7705 H       1  UNL1        0.0269
     46 H          -0.2181   -5.9872    5.8770 H       1  UNL1        0.0304
     47 H           0.1529   -6.1910    4.1753 H       1  UNL1        0.0304
     48 H           3.8781   -3.4500    5.0896 H       1  UNL1        0.0272
     49 H           3.9700   -3.8843    6.7897 H       1  UNL1        0.0272
     50 H           4.2864   -1.4806    6.3653 H       1  UNL1        0.0268
     51 H           2.9085   -1.7392    7.4020 H       1  UNL1        0.0268
     52 H           0.2852   -4.3072    7.4118 H       1  UNL1        0.0236
     53 H           1.8829   -4.6513    8.0678 H       1  UNL1        0.0236
     54 H           1.3396   -2.9934    7.8565 H       1  UNL1        0.0236
     55 H           2.2573   -5.4305    3.2008 H       1  UNL1        0.0309
     56 H           3.7001   -5.2898    4.2059 H       1  UNL1        0.0309
     57 H           2.0721   -7.7811    3.7306 H       1  UNL1        0.0379
     58 H           3.8532   -7.5470    3.8035 H       1  UNL1        0.0379
     59 H           0.7237    0.3158    7.2206 H       1  UNL1        0.0238
     60 H           2.3513    0.3216    7.8875 H       1  UNL1        0.0238
     61 H           1.6445    1.8126    7.2739 H       1  UNL1        0.0238
@<TRIPOS>BOND
     1     1     2    1
     2     1    34    1
     3     1    35    1
     4     1    36    1
     5     2     3    2
     6     2     4    1
     7     4     5    1
     8     5     6    1
     9     5    17    1
    10     5     7    1
    11     7     8    1
    12     7    37    1
    13     7    38    1
    14     8    14    1
    15     8     9    2
    16     9    10    1
    17     9    39    1
    18    10    11    2
    19    10    12    1
    20    12    13    1
    21    12    40    1
    22    12    41    1
    23    13    14    1
    24    13    42    1
    25    13    43    1
    26    14    15    1
    27    14    33    1
    28    15    16    1
    29    15    26    1
    30    15    17    1
    31    17    18    1
    32    17    19    1
    33    19    20    1
    34    19    24    1
    35    19    21    1
    36    21    22    1
    37    21    44    1
    38    21    45    1
    39    22    23    1
    40    22    46    1
    41    22    47    1
    42    23    32    1
    43    23    24    1
    44    23    28    1
    45    24    25    1
    46    24    27    1
    47    25    26    1
    48    25    48    1
    49    25    49    1
    50    26    50    1
    51    26    51    1
    52    27    52    1
    53    27    53    1
    54    27    54    1
    55    28    29    1
    56    28    55    1
    57    28    56    1
    58    29    30    1
    59    29    57    1
    60    29    58    1
    61    30    31    2
    62    30    32    1
    63    33    59    1
    64    33    60    1
    65    33    61    1
