@<TRIPOS>MOLECULE
ZINC00057534
 43 44 0 0 0
SMALL
GASTEIGER

@<TRIPOS>ATOM
      1 C           2.4933    1.0586    0.1564 C.3     1  UNL1       -0.0394
      2 C           1.2430    0.2137    0.1055 C.ar    1  UNL1       -0.0462
      3 C           0.0279    0.9362    0.1040 C.ar    1  UNL1       -0.0549
      4 C          -1.2209    0.3160    0.0071 C.ar    1  UNL1       -0.0415
      5 C          -1.2161   -1.0796   -0.1193 C.ar    1  UNL1       -0.0549
      6 C          -0.0262   -1.8396   -0.1562 C.ar    1  UNL1       -0.0462
      7 C           1.2248   -1.1977    0.0054 C.ar    1  UNL1       -0.0302
      8 C           2.5048   -2.0061    0.1383 C.3     1  UNL1        0.0720
      9 C           2.8490   -2.4226    1.5243 C.2     1  UNL1        0.2428
     10 N           2.1643   -2.1006    2.6067 N.2     1  UNL1       -0.2754
     11 C           2.8445   -2.6033    3.8041 C.3     1  UNL1        0.1197
     12 C           3.9334   -3.5153    3.2184 C.3     1  UNL1        0.1149
     13 N           3.9035   -3.1746    1.7880 N.pl3   1  UNL1       -0.2367
     14 C          -0.2065   -3.3203   -0.3862 C.3     1  UNL1       -0.0394
     15 C          -2.5471    1.1009   -0.0050 C.3     1  UNL1       -0.0127
     16 C          -2.3614    2.6343    0.0634 C.3     1  UNL1       -0.0560
     17 C          -3.3297    0.7966   -1.3017 C.3     1  UNL1       -0.0560
     18 C          -3.4105    0.6912    1.2068 C.3     1  UNL1       -0.0560
     19 H           2.5345    1.6970   -0.7354 H       1  UNL1        0.0278
     20 H           2.4778    1.6955    1.0458 H       1  UNL1        0.0278
     21 H           3.4198    0.4868    0.1872 H       1  UNL1        0.0278
     22 H           0.0924    2.0226    0.1651 H       1  UNL1        0.0623
     23 H          -2.1667   -1.6053   -0.2202 H       1  UNL1        0.0623
     24 H           2.4619   -2.8980   -0.4931 H       1  UNL1        0.0434
     25 H           3.3514   -1.4576   -0.2853 H       1  UNL1        0.0434
     26 H           2.1465   -3.1425    4.4511 H       1  UNL1        0.0782
     27 H           3.2805   -1.7563    4.3437 H       1  UNL1        0.0782
     28 H           4.9220   -3.3229    3.6424 H       1  UNL1        0.0764
     29 H           3.6741   -4.5727    3.3299 H       1  UNL1        0.0764
     30 H           4.5328   -3.4844    1.0534 H       1  UNL1        0.2910
     31 H          -0.5933   -3.7986    0.5167 H       1  UNL1        0.0278
     32 H          -0.9181   -3.4802   -1.2067 H       1  UNL1        0.0278
     33 H           0.7084   -3.8328   -0.6855 H       1  UNL1        0.0278
     34 H          -1.7930    3.0084   -0.7965 H       1  UNL1        0.0238
     35 H          -3.3280    3.1518    0.0611 H       1  UNL1        0.0238
     36 H          -1.8372    2.9379    0.9773 H       1  UNL1        0.0238
     37 H          -3.5792   -0.2655   -1.3984 H       1  UNL1        0.0238
     38 H          -4.2758    1.3499   -1.3303 H       1  UNL1        0.0238
     39 H          -2.7502    1.0805   -2.1876 H       1  UNL1        0.0238
     40 H          -3.6762   -0.3712    1.1840 H       1  UNL1        0.0238
     41 H          -2.8846    0.8794    2.1499 H       1  UNL1        0.0238
     42 H          -4.3503    1.2577    1.2310 H       1  UNL1        0.0238
     43 H           1.3185   -1.5330    2.5341 H       1  UNL1        0.3036
@<TRIPOS>BOND
     1     1     2    1
     2     1    19    1
     3     1    20    1
     4     1    21    1
     5     2     7   ar
     6     2     3   ar
     7     3     4   ar
     8     3    22    1
     9     4     5   ar
    10     4    15    1
    11     5     6   ar
    12     5    23    1
    13     6     7   ar
    14     6    14    1
    15     7     8    1
    16     8     9    1
    17     8    24    1
    18     8    25    1
    19     9    13    1
    20     9    10    2
    21    10    11    1
    22    10    43    1
    23    11    12    1
    24    11    26    1
    25    11    27    1
    26    12    13    1
    27    12    28    1
    28    12    29    1
    29    13    30    1
    30    14    31    1
    31    14    32    1
    32    14    33    1
    33    15    16    1
    34    15    17    1
    35    15    18    1
    36    16    34    1
    37    16    35    1
    38    16    36    1
    39    17    37    1
    40    17    38    1
    41    17    39    1
    42    18    40    1
    43    18    41    1
    44    18    42    1
