@<TRIPOS>MOLECULE
ZINC03800475
 61 63 0 0 0
SMALL
GASTEIGER

@<TRIPOS>ATOM
      1 C          -0.0387    0.3795    4.6307 C.3     1  UNL1       -0.0653
      2 C          -1.1046    1.3273    4.0979 C.3     1  UNL1       -0.0559
      3 C          -2.0948    0.5964    3.1884 C.3     1  UNL1       -0.0532
      4 C          -3.2201    1.4898    2.6576 C.3     1  UNL1       -0.0507
      5 C          -2.7834    2.6309    1.7358 C.3     1  UNL1       -0.0269
      6 C          -2.0366    2.2329    0.4497 C.3     1  UNL1        0.0553
      7 H          -1.1145    1.7007    0.7057 H       1  UNL1        0.0593
      8 C          -2.8919    1.3960   -0.5264 C.3     1  UNL1       -0.0265
      9 C          -2.1685    1.0610   -1.8517 C.3     1  UNL1       -0.0453
     10 C          -2.9807    0.1694   -2.8444 C.3     1  UNL1       -0.0115
     11 H          -3.1666   -0.7971   -2.3590 H       1  UNL1        0.0328
     12 C          -2.2083   -0.0381   -4.1906 C.3     1  UNL1       -0.0287
     13 H          -1.1241   -0.0777   -4.0302 H       1  UNL1        0.0310
     14 C          -2.6422   -1.3204   -4.9518 C.3     1  UNL1       -0.0239
     15 C          -2.5437   -1.2624   -6.4668 C.ar    1  UNL1       -0.0404
     16 C          -2.7026   -2.4483   -7.2032 C.ar    1  UNL1       -0.0581
     17 C          -2.7050   -2.4307   -8.5993 C.ar    1  UNL1       -0.0580
     18 C          -2.5829   -1.2229   -9.2834 C.ar    1  UNL1       -0.0196
     19 C          -2.4617   -0.0268   -8.5783 C.ar    1  UNL1        0.1247
     20 C          -2.4101   -0.0467   -7.1640 C.ar    1  UNL1       -0.0022
     21 C          -2.1513    1.2351   -6.4171 C.3     1  UNL1       -0.0208
     22 C          -2.6018    1.2214   -4.9646 C.3     1  UNL1       -0.0311
     23 H          -2.1581    2.1045   -4.4871 H       1  UNL1        0.0308
     24 C          -4.1139    1.2786   -4.7533 C.3     1  UNL1       -0.0232
     25 C          -4.3023    0.8462   -3.2926 C.3     1  UNL1        0.0586
     26 H          -4.5647    1.7134   -2.6837 H       1  UNL1        0.0596
     27 O          -5.3699   -0.0899   -3.1835 O.3     1  UNL1       -0.3915
     28 O          -2.3711    1.2001   -9.1913 O.3     1  UNL1       -0.4804
     29 C          -3.0067    1.2974  -10.4850 C.3     1  UNL1        0.1901
     30 C          -3.3044    2.7528  -10.9015 C.2     1  UNL1        0.3927
     31 O          -3.8130    2.8561  -12.0641 O.co2   1  UNL1       -0.2425
     32 O          -1.6595    3.4639   -0.1748 O.3     1  UNL1       -0.3918
     33 H          -0.4879   -0.4313    5.2133 H       1  UNL1        0.0230
     34 H           0.6578    0.9180    5.2813 H       1  UNL1        0.0230
     35 H           0.5369   -0.0638    3.8116 H       1  UNL1        0.0230
     36 H          -1.6378    1.7768    4.9442 H       1  UNL1        0.0263
     37 H          -0.6111    2.1399    3.5545 H       1  UNL1        0.0263
     38 H          -1.5616    0.1279    2.3539 H       1  UNL1        0.0265
     39 H          -2.5551   -0.2208    3.7580 H       1  UNL1        0.0265
     40 H          -3.9498    0.8620    2.1338 H       1  UNL1        0.0266
     41 H          -3.7570    1.9239    3.5116 H       1  UNL1        0.0266
     42 H          -3.6744    3.2128    1.4611 H       1  UNL1        0.0290
     43 H          -2.1633    3.3387    2.3022 H       1  UNL1        0.0290
     44 H          -3.2011    0.4634   -0.0438 H       1  UNL1        0.0290
     45 H          -3.7984    1.9692   -0.7475 H       1  UNL1        0.0290
     46 H          -1.8860    1.9986   -2.3411 H       1  UNL1        0.0270
     47 H          -1.2321    0.5413   -1.6124 H       1  UNL1        0.0270
     48 H          -3.6857   -1.5672   -4.7158 H       1  UNL1        0.0316
     49 H          -2.0413   -2.1623   -4.5845 H       1  UNL1        0.0316
     50 H          -2.8359   -3.3975   -6.6914 H       1  UNL1        0.0620
     51 H          -2.8172   -3.3540   -9.1618 H       1  UNL1        0.0619
     52 H          -2.5851   -1.2365  -10.3678 H       1  UNL1        0.0654
     53 H          -2.6286    2.0861   -6.9158 H       1  UNL1        0.0317
     54 H          -1.0663    1.4065   -6.4432 H       1  UNL1        0.0317
     55 H          -4.6558    0.6136   -5.4366 H       1  UNL1        0.0293
     56 H          -4.4958    2.2901   -4.9221 H       1  UNL1        0.0293
     57 H          -6.1269    0.2855   -3.6666 H       1  UNL1        0.2098
     58 H          -2.3374    0.8681  -11.2393 H       1  UNL1        0.0817
     59 H          -3.9685    0.7693  -10.4822 H       1  UNL1        0.0817
     60 H          -0.8814    3.2910   -0.7309 H       1  UNL1        0.2098
     61 O          -3.0382    3.6732  -10.0797 O.co2   1  UNL1       -0.2425
@<TRIPOS>BOND
     1     1     2    1
     2     1    33    1
     3     1    34    1
     4     1    35    1
     5     2     3    1
     6     2    36    1
     7     2    37    1
     8     3     4    1
     9     3    38    1
    10     3    39    1
    11     4     5    1
    12     4    40    1
    13     4    41    1
    14     5     6    1
    15     5    42    1
    16     5    43    1
    17     6     7    1
    18     6     8    1
    19     6    32    1
    20     8     9    1
    21     8    44    1
    22     8    45    1
    23     9    46    1
    24     9    47    1
    25    10    25    1
    26    10    12    1
    27    12    13    1
    28    12    22    1
    29    12    14    1
    30    14    15    1
    31    14    48    1
    32    14    49    1
    33    15    20   ar
    34    15    16   ar
    35    16    17   ar
    36    16    50    1
    37    17    18   ar
    38    17    51    1
    39    18    19   ar
    40    18    52    1
    41    19    20   ar
    42    19    28    1
    43    20    21    1
    44    21    22    1
    45    21    53    1
    46    21    54    1
    47    22    23    1
    48    22    24    1
    49    24    25    1
    50    24    55    1
    51    24    56    1
    52    25    26    1
    53    25    27    1
    54    27    57    1
    55    28    29    1
    56    29    30    1
    57    29    58    1
    58    29    59    1
    59    30    31   ar
    60    30    61   ar
    61    32    60    1
    62    10    11    1
    63    10     9    1
