@<TRIPOS>MOLECULE
ZINC01542891
 53 54 0 0 0
SMALL
GASTEIGER

@<TRIPOS>ATOM
      1 C           3.6632   11.2747   -1.0919 C.3     1  UNL1       -0.0396
      2 C           3.2511   10.2049   -2.0635 C.ar    1  UNL1       -0.0470
      3 C           3.7975   10.1632   -3.3498 C.ar    1  UNL1       -0.0586
      4 C           3.4760    9.1165   -4.2038 C.ar    1  UNL1       -0.0581
      5 C           2.6412    8.0832   -3.7718 C.ar    1  UNL1       -0.0199
      6 C           2.0957    8.1027   -2.4850 C.ar    1  UNL1        0.1209
      7 C           2.3611    9.1988   -1.6625 C.ar    1  UNL1       -0.0170
      8 O           1.3708    6.9954   -2.1185 O.3     1  UNL1       -0.4892
      9 C           0.9252    6.9444   -0.7573 C.3     1  UNL1        0.1204
     10 C           0.5934    5.4914   -0.3711 C.3     1  UNL1        0.1285
     11 H          -0.0595    5.0414   -1.1276 H       1  UNL1        0.0681
     12 C          -0.0282    5.3485    1.0363 C.3     1  UNL1       -0.0038
     13 N          -1.3442    6.0370    1.1984 N.4     1  UNL1        0.2291
     14 C          -1.8990    6.1014    2.6007 C.3     1  UNL1       -0.0295
     15 C          -2.3551    4.7473    3.1738 C.3     1  UNL1        0.0127
     16 C          -3.2581    3.9100    2.3008 C.ar    1  UNL1       -0.0387
     17 C          -3.2070    2.5175    2.4289 C.ar    1  UNL1       -0.0547
     18 C          -3.9432    1.6929    1.5765 C.ar    1  UNL1       -0.0160
     19 C          -4.7219    2.2367    0.5507 C.ar    1  UNL1        0.1615
     20 C          -4.8608    3.6293    0.4764 C.ar    1  UNL1        0.1617
     21 C          -4.1721    4.4482    1.3871 C.ar    1  UNL1       -0.0129
     22 O          -5.6157    4.3499   -0.4119 O.3     1  UNL1       -0.4914
     23 C          -5.7614    3.7976   -1.7165 C.3     1  UNL1        0.0790
     24 O          -5.3987    1.4395   -0.3334 O.3     1  UNL1       -0.4915
     25 C          -4.7010    0.2553   -0.7238 C.3     1  UNL1        0.0790
     26 O           1.7961    4.7075   -0.3314 O.3     1  UNL1       -0.3831
     27 H           4.7283   11.1644   -0.8633 H       1  UNL1        0.0278
     28 H           3.4769   12.2678   -1.5020 H       1  UNL1        0.0278
     29 H           3.1138   11.1884   -0.1447 H       1  UNL1        0.0278
     30 H           4.4871   10.9400   -3.6738 H       1  UNL1        0.0620
     31 H           3.9028    9.0948   -5.2066 H       1  UNL1        0.0619
     32 H           2.4337    7.2568   -4.4463 H       1  UNL1        0.0654
     33 H           1.9064    9.2935   -0.6834 H       1  UNL1        0.0657
     34 H           1.7137    7.2856   -0.0784 H       1  UNL1        0.0725
     35 H           0.0416    7.5837   -0.6736 H       1  UNL1        0.0725
     36 H          -0.1907    4.2884    1.2620 H       1  UNL1        0.0840
     37 H           0.6525    5.7515    1.7945 H       1  UNL1        0.0840
     38 H          -1.2880    7.0071    0.8665 H       1  UNL1        0.2014
     39 H          -1.1224    6.5445    3.2333 H       1  UNL1        0.0817
     40 H          -2.7395    6.8005    2.5543 H       1  UNL1        0.0817
     41 H          -2.8621    4.9256    4.1303 H       1  UNL1        0.0365
     42 H          -1.4522    4.1640    3.3903 H       1  UNL1        0.0365
     43 H          -2.5956    2.0489    3.1991 H       1  UNL1        0.0621
     44 H          -3.8971    0.6195    1.7376 H       1  UNL1        0.0655
     45 H          -4.3580    5.5185    1.3352 H       1  UNL1        0.0658
     46 H          -4.8195    3.3790   -2.0884 H       1  UNL1        0.0660
     47 H          -6.5692    3.0620   -1.7428 H       1  UNL1        0.0660
     48 H          -6.0408    4.6155   -2.3886 H       1  UNL1        0.0660
     49 H          -3.6570    0.4711   -0.9830 H       1  UNL1        0.0660
     50 H          -4.7578   -0.5085    0.0584 H       1  UNL1        0.0660
     51 H          -5.1894   -0.1465   -1.6163 H       1  UNL1        0.0660
     52 H           2.5396    5.2252   -0.6984 H       1  UNL1        0.2102
     53 H          -2.0362    5.5717    0.5885 H       1  UNL1        0.2014
@<TRIPOS>UNITY_ATOM_ATTR
13 1
charge 1
@<TRIPOS>BOND
     1     1     2    1
     2     1    27    1
     3     1    28    1
     4     1    29    1
     5     2     7   ar
     6     2     3   ar
     7     3     4   ar
     8     3    30    1
     9     4     5   ar
    10     4    31    1
    11     5     6   ar
    12     5    32    1
    13     6     7   ar
    14     6     8    1
    15     7    33    1
    16     8     9    1
    17     9    34    1
    18     9    35    1
    19    10    12    1
    20    10    26    1
    21    12    13    1
    22    12    36    1
    23    12    37    1
    24    13    14    1
    25    13    38    1
    26    13    53    1
    27    14    15    1
    28    14    39    1
    29    14    40    1
    30    15    16    1
    31    15    41    1
    32    15    42    1
    33    16    21   ar
    34    16    17   ar
    35    17    18   ar
    36    17    43    1
    37    18    19   ar
    38    18    44    1
    39    19    20   ar
    40    19    24    1
    41    20    21   ar
    42    20    22    1
    43    21    45    1
    44    22    23    1
    45    23    46    1
    46    23    47    1
    47    23    48    1
    48    24    25    1
    49    25    49    1
    50    25    50    1
    51    25    51    1
    52    26    52    1
    53    10    11    1
    54    10     9    1
