@<TRIPOS>MOLECULE
ZINC00009073
 38 41 0 0 0
SMALL
GASTEIGER

@<TRIPOS>ATOM
      1 C          -1.1525    0.9544    0.8386 C.3     1  UNL1       -0.0425
      2 N          -0.9347    1.6800   -0.4431 N.4     1  UNL1        0.2390
      3 C           0.3143    2.6048   -0.3340 C.3     1  UNL1       -0.0275
      4 C           0.2694    3.7626   -1.3382 C.3     1  UNL1        0.0132
      5 C          -0.2081    3.1836   -2.6390 C.ar    1  UNL1       -0.0333
      6 C           0.6167    3.0940   -3.7448 C.ar    1  UNL1       -0.0579
      7 C           0.1920    2.3357   -4.8237 C.ar    1  UNL1       -0.0609
      8 C          -1.0770    1.7388   -4.8220 C.ar    1  UNL1       -0.0534
      9 C          -1.9626    1.8430   -3.7366 C.ar    1  UNL1       -0.0053
     10 C          -1.4725    2.5316   -2.6156 C.ar    1  UNL1        0.0116
     11 C          -2.0817    2.3813   -1.2302 C.3     1  UNL1        0.0096
     12 H          -2.2151    3.3552   -0.7424 H       1  UNL1        0.0907
     13 C          -3.4579    1.6865   -1.2070 C.3     1  UNL1        0.0206
     14 C          -4.1282    1.4789   -2.5531 C.ar    1  UNL1       -0.0303
     15 C          -3.3683    1.3633   -3.7440 C.ar    1  UNL1        0.0310
     16 C          -4.0673    0.9637   -4.9029 C.ar    1  UNL1        0.1664
     17 C          -5.4604    0.8523   -4.9205 C.ar    1  UNL1        0.1589
     18 C          -6.2014    1.0702   -3.7840 C.ar    1  UNL1       -0.0162
     19 C          -5.5375    1.3463   -2.5911 C.ar    1  UNL1       -0.0541
     20 O          -6.0989    0.5377   -6.0916 O.3     1  UNL1       -0.5033
     21 O          -3.4593    0.6450   -6.0905 O.3     1  UNL1       -0.5029
     22 H          -0.2768    0.3052    0.9764 H       1  UNL1        0.0778
     23 H          -2.0386    0.3283    0.7744 H       1  UNL1        0.0778
     24 H          -1.2146    1.6731    1.6562 H       1  UNL1        0.0778
     25 H           1.1744    1.9550   -0.5370 H       1  UNL1        0.0818
     26 H           0.3777    2.9834    0.6908 H       1  UNL1        0.0818
     27 H           1.2459    4.2482   -1.4325 H       1  UNL1        0.0365
     28 H          -0.4252    4.5441   -1.0030 H       1  UNL1        0.0365
     29 H           1.6049    3.5488   -3.7570 H       1  UNL1        0.0620
     30 H           0.8480    2.2007   -5.6798 H       1  UNL1        0.0618
     31 H          -1.3308    1.1936   -5.7240 H       1  UNL1        0.0624
     32 H          -4.1232    2.3262   -0.6072 H       1  UNL1        0.0372
     33 H          -3.4324    0.7193   -0.6973 H       1  UNL1        0.0372
     34 H          -7.2874    1.0190   -3.8264 H       1  UNL1        0.0655
     35 H          -6.1367    1.4891   -1.6925 H       1  UNL1        0.0622
     36 H          -5.4012    0.5774   -6.7895 H       1  UNL1        0.2923
     37 H          -3.0288   -0.2245   -5.9287 H       1  UNL1        0.2923
     38 H          -0.6498    0.9424   -1.1042 H       1  UNL1        0.2037
@<TRIPOS>UNITY_ATOM_ATTR
2 1
charge 1
@<TRIPOS>BOND
     1     1    22    1
     2     1    23    1
     3     1    24    1
     4     2    11    1
     5     2     3    1
     6     3     4    1
     7     4     5    1
     8     5    10   ar
     9     5     6   ar
    10     6     7   ar
    11     7     8   ar
    12     8     9   ar
    13     9    15    1
    14     9    10   ar
    15    10    11    1
    16    11    13    1
    17    13    14    1
    18    14    19   ar
    19    14    15   ar
    20    15    16   ar
    21    16    17   ar
    22    17    18   ar
    23    18    19   ar
    24    20    36    1
    25    21    37    1
    26     3    25    1
    27     3    26    1
    28     4    27    1
    29     4    28    1
    30     6    29    1
    31     7    30    1
    32     8    31    1
    33    11    12    1
    34    13    32    1
    35    13    33    1
    36    16    21    1
    37    17    20    1
    38    18    34    1
    39    19    35    1
    40     2    38    1
    41     2     1    1
