@<TRIPOS>MOLECULE
ZINC03778874
 33 35 0 0 0
SMALL
GASTEIGER

@<TRIPOS>ATOM
      1 C           0.2241   -1.2626    0.0636 C.ar    1  UNL1       -0.0440
      2 C           1.6213   -1.1986    0.1216 C.ar    1  UNL1       -0.0550
      3 C           2.2830    0.0415    0.0891 C.ar    1  UNL1       -0.0186
      4 C           1.5040    1.2089   -0.0062 C.ar    1  UNL1       -0.0550
      5 C           0.1117    1.1465   -0.0612 C.ar    1  UNL1       -0.0440
      6 C          -0.5321   -0.0899   -0.0270 C.ar    1  UNL1        0.0518
      7 C          -1.9620   -0.1503   -0.0793 C.1     1  UNL1        0.0992
      8 N          -3.1218   -0.1938   -0.1258 N.1     1  UNL1       -0.1909
      9 C           3.8090    0.1097    0.1669 C.3     1  UNL1        0.1042
     10 C           4.4488    0.7902   -1.0472 C.ar    1  UNL1       -0.0186
     11 C           4.7834    0.0251   -2.1796 C.ar    1  UNL1       -0.0550
     12 C           5.3582    0.6254   -3.3056 C.ar    1  UNL1       -0.0440
     13 C           5.5933    2.0029   -3.3259 C.ar    1  UNL1        0.0518
     14 C           5.2440    2.7776   -2.2183 C.ar    1  UNL1       -0.0440
     15 C           4.6772    2.1771   -1.0908 C.ar    1  UNL1       -0.0550
     16 C           6.1884    2.6187   -4.4757 C.1     1  UNL1        0.0992
     17 N           6.6745    3.1160   -5.4048 N.1     1  UNL1       -0.1909
     18 N           4.3011    0.6673    1.4408 N.ar    1  UNL1       -0.2402
     19 C           5.4910    0.3794    2.0471 C.ar    1  UNL1        0.1153
     20 N           5.5955    1.0571    3.1649 N.ar    1  UNL1       -0.2228
     21 C           4.4372    1.7766    3.2008 C.ar    1  UNL1        0.1380
     22 N           3.6246    1.5947    2.1592 N.ar    1  UNL1       -0.1575
     23 H          -0.2704   -2.2320    0.0983 H       1  UNL1        0.0630
     24 H           2.1812   -2.1286    0.2013 H       1  UNL1        0.0621
     25 H           1.9763    2.1898   -0.0045 H       1  UNL1        0.0621
     26 H          -0.4600    2.0708   -0.1171 H       1  UNL1        0.0630
     27 H           4.1877   -0.9240    0.1870 H       1  UNL1        0.0646
     28 H           4.5964   -1.0479   -2.2001 H       1  UNL1        0.0621
     29 H           5.6173    0.0115   -4.1672 H       1  UNL1        0.0630
     30 H           5.4073    3.8542   -2.2218 H       1  UNL1        0.0630
     31 H           4.4104    2.8131   -0.2467 H       1  UNL1        0.0621
     32 H           6.2216   -0.3061    1.6403 H       1  UNL1        0.1044
     33 H           4.1793    2.4553    4.0037 H       1  UNL1        0.1065
@<TRIPOS>BOND
     1     1     6   ar
     2     1     2   ar
     3     1    23    1
     4     2     3   ar
     5     2    24    1
     6     3     4   ar
     7     3     9    1
     8     4     5   ar
     9     4    25    1
    10     5     6   ar
    11     5    26    1
    12     6     7    1
    13     7     8    3
    14     9    10    1
    15     9    18    1
    16     9    27    1
    17    10    15   ar
    18    10    11   ar
    19    11    12   ar
    20    11    28    1
    21    12    13   ar
    22    12    29    1
    23    13    14   ar
    24    13    16    1
    25    14    15   ar
    26    14    30    1
    27    15    31    1
    28    16    17    3
    29    18    22   ar
    30    18    19   ar
    31    19    20   ar
    32    19    32    1
    33    20    21   ar
    34    21    22   ar
    35    21    33    1
