@<TRIPOS>MOLECULE
ZINC01532805
 14 13 0 0 0
SMALL
GASTEIGER

@<TRIPOS>ATOM
      1 C           0.9995    0.0353   -0.0773 C.3     1  UNL1       -0.0195
      2 C           0.5399   -0.3397   -1.4866 C.3     1  UNL1        0.0513
      3 C          -0.9846   -0.3521   -1.5438 C.2     1  UNL1        0.3561
      4 O          -1.5489    0.7474   -1.3042 O.co2   1  UNL1       -0.2464
      5 C           0.5145   -0.9406    0.9922 C.3     1  UNL1        0.0447
      6 O           0.9952   -2.2547    0.7248 O.3     1  UNL1       -0.3950
      7 H           0.6570    1.0452    0.1767 H       1  UNL1        0.0292
      8 H           2.0961    0.0549   -0.0724 H       1  UNL1        0.0292
      9 H           0.9198    0.3853   -2.2121 H       1  UNL1        0.0380
     10 H           0.9433   -1.3175   -1.7765 H       1  UNL1        0.0380
     11 H           0.8962   -0.6383    1.9725 H       1  UNL1        0.0557
     12 H          -0.5777   -0.9726    1.0595 H       1  UNL1        0.0557
     13 H           0.5197   -2.5374   -0.0827 H       1  UNL1        0.2094
     14 O          -1.4804   -1.4867   -1.7998 O.co2   1  UNL1       -0.2464
@<TRIPOS>BOND
     1     1     2    1
     2     1     5    1
     3     1     7    1
     4     1     8    1
     5     2     3    1
     6     2     9    1
     7     2    10    1
     8     3     4   ar
     9     3    14   ar
    10     5     6    1
    11     5    11    1
    12     5    12    1
    13     6    13    1
