@<TRIPOS>MOLECULE
ZINC00007601
 39 39 0 0 0
SMALL
GASTEIGER

@<TRIPOS>ATOM
      1 C          -0.6244    5.1255   -2.0910 C.3     1  UNL1       -0.0193
      2 C           0.8638    4.7859   -1.9541 C.3     1  UNL1       -0.0203
      3 C           1.3158    3.8014   -3.0364 C.3     1  UNL1       -0.0193
      4 C           1.6997    6.0721   -2.0547 C.3     1  UNL1       -0.0193
      5 N           1.1393    4.2068   -0.5752 N.4     1  UNL1        0.2328
      6 C           0.6223    2.8219   -0.2600 C.3     1  UNL1       -0.0023
      7 C           1.0371    2.3371    1.1557 C.3     1  UNL1        0.1197
      8 H           2.1332    2.2940    1.1793 H       1  UNL1        0.0698
      9 C           0.5604    3.1793    2.3212 C.ar    1  UNL1       -0.0135
     10 C           1.3112    3.2393    3.5021 C.ar    1  UNL1       -0.0525
     11 C           0.8842    4.0213    4.5834 C.ar    1  UNL1       -0.0195
     12 C          -0.2929    4.7560    4.4884 C.ar    1  UNL1        0.1222
     13 C          -1.0704    4.7087    3.3350 C.ar    1  UNL1        0.0195
     14 C          -0.6464    3.8902    2.2698 C.ar    1  UNL1       -0.0471
     15 C          -2.3260    5.5134    3.1628 C.3     1  UNL1        0.0727
     16 O          -2.1103    6.3841    2.0513 O.3     1  UNL1       -0.3903
     17 O          -0.7011    5.5420    5.5262 O.3     1  UNL1       -0.5064
     18 O           0.5643    1.0041    1.3156 O.3     1  UNL1       -0.3819
     19 H          -0.8975    5.2431   -3.1467 H       1  UNL1        0.0287
     20 H          -0.8692    6.0682   -1.5885 H       1  UNL1        0.0287
     21 H          -1.2779    4.3530   -1.6776 H       1  UNL1        0.0287
     22 H           1.2294    4.2535   -4.0316 H       1  UNL1        0.0287
     23 H           2.3624    3.5072   -2.8990 H       1  UNL1        0.0287
     24 H           0.7023    2.8948   -3.0486 H       1  UNL1        0.0287
     25 H           1.4622    6.7684   -1.2420 H       1  UNL1        0.0287
     26 H           2.7730    5.8562   -2.0029 H       1  UNL1        0.0287
     27 H           1.5107    6.5901   -3.0018 H       1  UNL1        0.0287
     28 H           2.1564    4.2064   -0.4221 H       1  UNL1        0.2020
     29 H          -0.4649    2.8226   -0.3840 H       1  UNL1        0.0843
     30 H           1.0409    2.1332   -1.0004 H       1  UNL1        0.0843
     31 H           2.2357    2.6742    3.6037 H       1  UNL1        0.0622
     32 H           1.4867    4.0401    5.4899 H       1  UNL1        0.0654
     33 H          -1.3027    3.8428    1.3993 H       1  UNL1        0.0626
     34 H          -3.1677    4.8485    2.9298 H       1  UNL1        0.0608
     35 H          -2.5990    6.1070    4.0403 H       1  UNL1        0.0608
     36 H          -1.6697    7.1656    2.4307 H       1  UNL1        0.2098
     37 H          -0.1276    5.3868    6.3012 H       1  UNL1        0.2921
     38 H           0.6832    0.7411    2.2484 H       1  UNL1        0.2105
     39 H           0.7594    4.8602    0.1288 H       1  UNL1        0.2020
@<TRIPOS>UNITY_ATOM_ATTR
5 1
charge 1
@<TRIPOS>BOND
     1     1     2    1
     2     1    19    1
     3     1    20    1
     4     1    21    1
     5     2     3    1
     6     2     4    1
     7     2     5    1
     8     3    22    1
     9     3    23    1
    10     3    24    1
    11     4    25    1
    12     4    26    1
    13     4    27    1
    14     5     6    1
    15     5    28    1
    16     5    39    1
    17     6     7    1
    18     6    29    1
    19     6    30    1
    20     7     8    1
    21     7     9    1
    22     7    18    1
    23     9    14   ar
    24     9    10   ar
    25    10    11   ar
    26    10    31    1
    27    11    12   ar
    28    11    32    1
    29    12    13   ar
    30    12    17    1
    31    13    14   ar
    32    13    15    1
    33    14    33    1
    34    15    16    1
    35    15    34    1
    36    15    35    1
    37    16    36    1
    38    17    37    1
    39    18    38    1
