@<TRIPOS>MOLECULE
ZINC01531007
 28 27 0 0 0
SMALL
GASTEIGER

@<TRIPOS>ATOM
      1 C          -1.5007   -6.6508    0.4277 C.3     1  UNL1        0.0727
      2 C          -0.4358   -5.6120    0.7735 C.3     1  UNL1        0.1065
      3 H           0.1786   -6.0088    1.5895 H       1  UNL1        0.0643
      4 C          -0.9136   -4.1896    1.1372 C.3     1  UNL1        0.1115
      5 H           0.0152   -3.6804    1.4378 H       1  UNL1        0.0647
      6 C          -1.8514   -4.0213    2.3522 C.3     1  UNL1        0.1123
      7 H          -1.7492   -2.9764    2.6782 H       1  UNL1        0.0647
      8 C          -3.3739   -4.3009    2.3007 C.3     1  UNL1        0.1199
      9 H          -3.5552   -5.3657    2.1180 H       1  UNL1        0.0652
     10 C          -4.1740   -3.4441    1.3161 C.3     1  UNL1        0.1842
     11 H          -4.0352   -2.3757    1.5043 H       1  UNL1        0.0739
     12 C          -5.6876   -3.7758    1.4727 C.2     1  UNL1        0.3866
     13 O          -6.2587   -4.0792    0.3844 O.co2   1  UNL1       -0.2433
     14 O          -3.7911   -3.7250   -0.0491 O.3     1  UNL1       -0.3782
     15 O          -3.7994   -4.0635    3.6769 O.3     1  UNL1       -0.3860
     16 O          -1.3167   -4.8080    3.4465 O.3     1  UNL1       -0.3865
     17 O          -1.2882   -3.4861   -0.0505 O.3     1  UNL1       -0.3865
     18 O           0.4265   -5.4942   -0.3893 O.3     1  UNL1       -0.3869
     19 O          -2.2162   -6.3080   -0.7539 O.3     1  UNL1       -0.3924
     20 H          -2.2068   -6.8028    1.2449 H       1  UNL1        0.0584
     21 H          -1.0172   -7.6131    0.2262 H       1  UNL1        0.0584
     22 H          -4.6529   -4.0112   -0.4542 H       1  UNL1        0.2106
     23 H          -4.7869   -3.9498    3.6306 H       1  UNL1        0.2100
     24 H          -2.0249   -4.7429    4.1269 H       1  UNL1        0.2100
     25 H          -2.2366   -3.7053   -0.2267 H       1  UNL1        0.2100
     26 H           0.0845   -4.6952   -0.8483 H       1  UNL1        0.2100
     27 H          -1.5507   -6.2605   -1.4635 H       1  UNL1        0.2095
     28 O          -6.1405   -3.7198    2.6547 O.co2   1  UNL1       -0.2433
@<TRIPOS>BOND
     1     1    19    1
     2     1    20    1
     3     1    21    1
     4     2    18    1
     5     4     6    1
     6     4    17    1
     7     6     7    1
     8     6    16    1
     9     8    15    1
    10    10    12    1
    11    10    14    1
    12    12    13   ar
    13    12    28   ar
    14    14    22    1
    15    15    23    1
    16    16    24    1
    17    17    25    1
    18    18    26    1
    19    19    27    1
    20     2     3    1
    21     2     1    1
    22     4     5    1
    23     4     2    1
    24     8     9    1
    25     8     6    1
    26    10    11    1
    27    10     8    1
