@<TRIPOS>MOLECULE
ZINC00608382
 55 58 0 0 0
SMALL
GASTEIGER

@<TRIPOS>ATOM
      1 C          -3.7327    0.2084    0.0780 C.3     1  UNL1       -0.0325
      2 C          -2.2887   -0.1722    0.0146 C.ar    1  UNL1        0.0397
      3 C          -1.2722    0.9139   -0.0954 C.ar    1  UNL1        0.1960
      4 O          -1.5823    2.0876   -0.2552 O.2     1  UNL1       -0.2867
      5 C           0.1444    0.5281    0.0477 C.ar    1  UNL1        0.0651
      6 C           1.1736    1.4753    0.0573 C.ar    1  UNL1       -0.0473
      7 C           2.4943    1.0656    0.2725 C.ar    1  UNL1       -0.0601
      8 C           2.7824   -0.2815    0.5115 C.ar    1  UNL1       -0.0441
      9 C           1.7496   -1.2250    0.4891 C.ar    1  UNL1        0.1018
     10 C           0.4418   -0.8164    0.2079 C.ar    1  UNL1        0.1532
     11 O          -0.5085   -1.7828    0.0405 O.2     1  UNL1       -0.4535
     12 C          -1.8343   -1.4382    0.0536 C.ar    1  UNL1        0.1421
     13 C          -2.6767   -2.6398    0.0856 C.ar    1  UNL1        0.0177
     14 C          -3.0307   -3.2318    1.3040 C.ar    1  UNL1       -0.0511
     15 C          -3.7647   -4.4202    1.3184 C.ar    1  UNL1       -0.0611
     16 C          -4.1384   -5.0245    0.1181 C.ar    1  UNL1       -0.0617
     17 C          -3.7684   -4.4511   -1.0975 C.ar    1  UNL1       -0.0611
     18 C          -3.0332   -3.2654   -1.1148 C.ar    1  UNL1       -0.0511
     19 C           2.0617   -2.6528    0.7356 C.2     1  UNL1        0.3430
     20 O           3.1435   -3.1706    0.5438 O.2     1  UNL1       -0.2448
     21 O           0.9867   -3.2916    1.2718 O.3     1  UNL1       -0.4557
     22 C           0.9892   -4.7192    1.1512 C.3     1  UNL1        0.1323
     23 C           1.9002   -5.3434    2.2006 C.3     1  UNL1        0.0032
     24 N           1.5825   -4.8570    3.6257 N.4     1  UNL1        0.2376
     25 C           0.1303   -5.0663    4.0002 C.3     1  UNL1       -0.0318
     26 C          -0.1230   -4.9172    5.4932 C.3     1  UNL1       -0.0123
     27 C           0.8621   -5.7313    6.3117 C.3     1  UNL1       -0.0434
     28 C           2.2652   -5.2328    6.0163 C.3     1  UNL1       -0.0123
     29 C           2.6103   -5.4626    4.5584 C.3     1  UNL1       -0.0318
     30 H          -4.2644   -0.1388   -0.8131 H       1  UNL1        0.0280
     31 H          -4.2021   -0.2320    0.9650 H       1  UNL1        0.0280
     32 H          -3.8735    1.2900    0.1528 H       1  UNL1        0.0280
     33 H           0.9532    2.5287   -0.1115 H       1  UNL1        0.0626
     34 H           3.2984    1.8001    0.2584 H       1  UNL1        0.0618
     35 H           3.8105   -0.5872    0.6993 H       1  UNL1        0.0627
     36 H          -2.7378   -2.7722    2.2441 H       1  UNL1        0.0625
     37 H          -4.0590   -4.8724    2.2621 H       1  UNL1        0.0618
     38 H          -4.7253   -5.9406    0.1261 H       1  UNL1        0.0618
     39 H          -4.0545   -4.9260   -2.0335 H       1  UNL1        0.0618
     40 H          -2.7327   -2.8399   -2.0707 H       1  UNL1        0.0625
     41 H          -0.0452   -5.0617    1.2762 H       1  UNL1        0.0752
     42 H           1.2856   -5.0205    0.1387 H       1  UNL1        0.0752
     43 H           1.8130   -6.4345    2.1946 H       1  UNL1        0.0848
     44 H           2.9428   -5.0666    2.0239 H       1  UNL1        0.0848
     45 H          -0.1600   -6.0626    3.6540 H       1  UNL1        0.0814
     46 H          -0.4511   -4.3092    3.4616 H       1  UNL1        0.0814
     47 H          -1.1458   -5.2401    5.7195 H       1  UNL1        0.0317
     48 H          -0.0572   -3.8610    5.7837 H       1  UNL1        0.0317
     49 H           0.6416   -5.6356    7.3797 H       1  UNL1        0.0269
     50 H           0.7754   -6.7952    6.0557 H       1  UNL1        0.0269
     51 H           2.3450   -4.1666    6.2611 H       1  UNL1        0.0317
     52 H           2.9875   -5.7613    6.6479 H       1  UNL1        0.0317
     53 H           3.5726   -4.9995    4.3135 H       1  UNL1        0.0814
     54 H           2.6606   -6.5349    4.3398 H       1  UNL1        0.0814
     55 H           1.7395   -3.8384    3.6210 H       1  UNL1        0.2034
@<TRIPOS>UNITY_ATOM_ATTR
24 1
charge 1
@<TRIPOS>BOND
     1     1     2    1
     2     1    30    1
     3     1    31    1
     4     1    32    1
     5     2    12   ar
     6     2     3   ar
     7     3     4    2
     8     3     5   ar
     9     5    10   ar
    10     5     6   ar
    11     6     7   ar
    12     6    33    1
    13     7     8   ar
    14     7    34    1
    15     8     9   ar
    16     8    35    1
    17     9    10   ar
    18     9    19    1
    19    10    11   ar
    20    11    12   ar
    21    12    13    1
    22    13    18   ar
    23    13    14   ar
    24    14    15   ar
    25    14    36    1
    26    15    16   ar
    27    15    37    1
    28    16    17   ar
    29    16    38    1
    30    17    18   ar
    31    17    39    1
    32    18    40    1
    33    19    20    2
    34    19    21    1
    35    21    22    1
    36    22    23    1
    37    22    41    1
    38    22    42    1
    39    23    24    1
    40    23    43    1
    41    23    44    1
    42    24    29    1
    43    24    25    1
    44    24    55    1
    45    25    26    1
    46    25    45    1
    47    25    46    1
    48    26    27    1
    49    26    47    1
    50    26    48    1
    51    27    28    1
    52    27    49    1
    53    27    50    1
    54    28    29    1
    55    28    51    1
    56    28    52    1
    57    29    53    1
    58    29    54    1
