@<TRIPOS>MOLECULE
ZINC01851149
 58 61 0 0 0
SMALL
GASTEIGER

@<TRIPOS>ATOM
      1 C          -1.4290    0.5064    1.6715 C.ar    1  UNL1       -0.0585
      2 C          -1.3799   -0.8730    1.4609 C.ar    1  UNL1       -0.0391
      3 C          -1.0971   -1.4318    0.1961 C.ar    1  UNL1        0.0500
      4 C          -0.8080   -0.5160   -0.8561 C.ar    1  UNL1        0.0802
      5 C          -0.8915    0.8755   -0.6451 C.ar    1  UNL1        0.0610
      6 C          -1.1986    1.3795    0.6175 C.ar    1  UNL1       -0.0419
      7 CL         -0.6103    2.0296   -1.9036 Cl      1  UNL1       -0.0820
      8 CL         -0.2362   -1.1027   -2.3978 Cl      1  UNL1       -0.0801
      9 N          -1.0920   -2.8231    0.0205 N.pl3   1  UNL1       -0.3186
     10 C          -1.9543   -3.3959   -1.0388 C.3     1  UNL1        0.0525
     11 C          -3.2050   -4.0921   -0.4517 C.3     1  UNL1       -0.0158
     12 N          -2.8472   -5.0884    0.6547 N.4     1  UNL1        0.2374
     13 C          -2.0394   -4.3544    1.7307 C.3     1  UNL1       -0.0158
     14 C          -0.7643   -3.7268    1.1375 C.3     1  UNL1        0.0525
     15 C          -2.2317   -6.3648    0.1008 C.3     1  UNL1       -0.0317
     16 C          -1.9313   -7.3486    1.2233 C.3     1  UNL1       -0.0094
     17 C          -1.3787   -8.6823    0.7170 C.3     1  UNL1       -0.0138
     18 C          -0.9984   -9.5547    1.9142 C.3     1  UNL1        0.0898
     19 O          -0.4285  -10.7858    1.4732 O.3     1  UNL1       -0.4919
     20 C          -0.2517  -11.6825    2.5012 C.ar    1  UNL1        0.1223
     21 C           0.1787  -11.3233    3.7845 C.ar    1  UNL1       -0.0196
     22 C           0.2808  -12.2839    4.7922 C.ar    1  UNL1       -0.0534
     23 C          -0.0850  -13.6029    4.5299 C.ar    1  UNL1       -0.0255
     24 C          -0.5140  -13.9556    3.2455 C.ar    1  UNL1        0.0400
     25 C          -0.5403  -13.0161    2.2152 C.ar    1  UNL1        0.0016
     26 N          -0.9820  -15.2526    3.0180 N.am    1  UNL1       -0.2851
     27 C          -1.3099  -16.1314    4.0205 C.2     1  UNL1        0.2175
     28 O          -1.8362  -17.2095    3.7572 O.2     1  UNL1       -0.2755
     29 C          -1.1273  -15.6478    5.4427 C.3     1  UNL1        0.0283
     30 C           0.0349  -14.6803    5.5704 C.3     1  UNL1       -0.0177
     31 H          -1.6471    0.9027    2.6621 H       1  UNL1        0.0619
     32 H          -1.5796   -1.4961    2.3267 H       1  UNL1        0.0636
     33 H          -1.2521    2.4530    0.7847 H       1  UNL1        0.0633
     34 H          -2.3140   -2.6480   -1.7512 H       1  UNL1        0.0516
     35 H          -1.3607   -4.1204   -1.6119 H       1  UNL1        0.0516
     36 H          -3.8711   -3.3523    0.0096 H       1  UNL1        0.0830
     37 H          -3.7652   -4.6339   -1.2204 H       1  UNL1        0.0830
     38 H          -1.8253   -5.0519    2.5433 H       1  UNL1        0.0830
     39 H          -2.7109   -3.5876    2.1288 H       1  UNL1        0.0830
     40 H          -0.1114   -4.5200    0.7553 H       1  UNL1        0.0516
     41 H          -0.1837   -3.2267    1.9214 H       1  UNL1        0.0516
     42 H          -2.9694   -6.7859   -0.5915 H       1  UNL1        0.0814
     43 H          -1.3278   -6.1011   -0.4534 H       1  UNL1        0.0814
     44 H          -1.1809   -6.9198    1.8959 H       1  UNL1        0.0318
     45 H          -2.8365   -7.5270    1.8165 H       1  UNL1        0.0318
     46 H          -2.1139   -9.1987    0.0885 H       1  UNL1        0.0300
     47 H          -0.4946   -8.5187    0.0885 H       1  UNL1        0.0300
     48 H          -0.2659   -9.0002    2.5133 H       1  UNL1        0.0696
     49 H          -1.8961   -9.7483    2.5165 H       1  UNL1        0.0696
     50 H           0.4547  -10.3035    4.0287 H       1  UNL1        0.0654
     51 H           0.6286  -11.9928    5.7805 H       1  UNL1        0.0622
     52 H          -0.8469  -13.2986    1.2128 H       1  UNL1        0.0673
     53 H          -1.2302  -15.5519    2.0832 H       1  UNL1        0.1548
     54 H          -2.0632  -15.1689    5.7552 H       1  UNL1        0.0362
     55 H          -0.9548  -16.5153    6.0886 H       1  UNL1        0.0362
     56 H           0.0477  -14.2519    6.5781 H       1  UNL1        0.0318
     57 H           0.9879  -15.2043    5.4203 H       1  UNL1        0.0318
     58 H          -3.7387   -5.3570    1.0909 H       1  UNL1        0.2034
@<TRIPOS>UNITY_ATOM_ATTR
12 1
charge 1
@<TRIPOS>BOND
     1     1     6   ar
     2     1     2   ar
     3     1    31    1
     4     2     3   ar
     5     2    32    1
     6     3     4   ar
     7     3     9    1
     8     4     5   ar
     9     4     8    1
    10     5     6   ar
    11     5     7    1
    12     6    33    1
    13     9    14    1
    14     9    10    1
    15    10    11    1
    16    10    34    1
    17    10    35    1
    18    11    12    1
    19    11    36    1
    20    11    37    1
    21    12    13    1
    22    12    15    1
    23    12    58    1
    24    13    14    1
    25    13    38    1
    26    13    39    1
    27    14    40    1
    28    14    41    1
    29    15    16    1
    30    15    42    1
    31    15    43    1
    32    16    17    1
    33    16    44    1
    34    16    45    1
    35    17    18    1
    36    17    46    1
    37    17    47    1
    38    18    19    1
    39    18    48    1
    40    18    49    1
    41    19    20    1
    42    20    25   ar
    43    20    21   ar
    44    21    22   ar
    45    21    50    1
    46    22    23   ar
    47    22    51    1
    48    23    30    1
    49    23    24   ar
    50    24    25   ar
    51    24    26    1
    52    25    52    1
    53    26    27   am
    54    26    53    1
    55    27    28    2
    56    27    29    1
    57    29    30    1
    58    29    54    1
    59    29    55    1
    60    30    56    1
    61    30    57    1
