@<TRIPOS>MOLECULE
ZINC00579472
 39 41 0 0 0
SMALL
GASTEIGER

@<TRIPOS>ATOM
      1 C           2.3995   -0.5718   -0.7851 C.3     1  UNL1       -0.0224
      2 C           0.9222   -0.3654   -0.6479 C.ar    1  UNL1        0.0382
      3 C           0.3221    0.8250   -1.0378 C.ar    1  UNL1       -0.0400
      4 C          -1.0534    0.9761   -0.8535 C.ar    1  UNL1       -0.0494
      5 C          -1.8199   -0.0513   -0.2832 C.ar    1  UNL1        0.0190
      6 C          -1.1220   -1.2180    0.0222 C.ar    1  UNL1        0.0370
      7 N           0.2165   -1.3900   -0.1188 N.ar    1  UNL1       -0.2595
      8 C          -3.2733    0.1000   -0.0576 C.ar    1  UNL1        0.0802
      9 C          -3.9873   -0.3415    1.0877 C.ar    1  UNL1        0.0095
     10 C          -5.3931   -0.1839    1.0363 C.ar    1  UNL1       -0.0321
     11 C          -6.0211    0.3953   -0.0608 C.ar    1  UNL1        0.0596
     12 C          -5.2340    0.8449   -1.0960 C.ar    1  UNL1        0.0466
     13 N          -3.8904    0.7111   -1.1165 N.ar    1  UNL1       -0.2529
     14 CL         -7.7288    0.5472   -0.1163 Cl      1  UNL1       -0.0820
     15 C          -3.3775   -0.9175    2.3245 C.ar    1  UNL1       -0.0157
     16 C          -4.0138   -1.9531    3.0414 C.ar    1  UNL1       -0.0522
     17 C          -3.4711   -2.4790    4.2214 C.ar    1  UNL1       -0.0363
     18 C          -2.2429   -2.0106    4.6830 C.ar    1  UNL1        0.0879
     19 C          -1.5803   -0.9947    3.9999 C.ar    1  UNL1       -0.0363
     20 C          -2.1637   -0.4360    2.8557 C.ar    1  UNL1       -0.0522
     21 S          -1.5855   -2.6197    6.2178 S.O2    1  UNL1       -0.0059
     22 O          -0.6149   -1.6546    6.6950 O.2     1  UNL1       -0.1696
     23 O          -2.7170   -3.0029    7.0432 O.2     1  UNL1       -0.1696
     24 C          -0.7147   -4.0947    5.7627 C.3     1  UNL1        0.0596
     25 H           2.8598   -0.6276    0.2064 H       1  UNL1        0.0292
     26 H           2.5942   -1.5072   -1.3188 H       1  UNL1        0.0292
     27 H           2.8747    0.2421   -1.3413 H       1  UNL1        0.0292
     28 H           0.9025    1.6271   -1.4822 H       1  UNL1        0.0636
     29 H          -1.5307    1.9045   -1.1634 H       1  UNL1        0.0625
     30 H          -1.6309   -2.0900    0.4245 H       1  UNL1        0.0836
     31 H          -6.0147   -0.5015    1.8710 H       1  UNL1        0.0639
     32 H          -5.6628    1.3327   -1.9665 H       1  UNL1        0.0844
     33 H          -4.9638   -2.3619    2.7006 H       1  UNL1        0.0624
     34 H          -4.0226   -3.2377    4.7739 H       1  UNL1        0.0637
     35 H          -0.6261   -0.6097    4.3543 H       1  UNL1        0.0637
     36 H          -1.6365    0.3925    2.3839 H       1  UNL1        0.0624
     37 H          -1.4058   -4.7842    5.2751 H       1  UNL1        0.0468
     38 H           0.1116   -3.8344    5.0992 H       1  UNL1        0.0468
     39 H          -0.3262   -4.5493    6.6774 H       1  UNL1        0.0468
@<TRIPOS>BOND
     1     1     2    1
     2     1    25    1
     3     1    26    1
     4     1    27    1
     5     2     7   ar
     6     2     3   ar
     7     3     4   ar
     8     3    28    1
     9     4     5   ar
    10     4    29    1
    11     5     6   ar
    12     5     8    1
    13     6     7   ar
    14     6    30    1
    15     8    13   ar
    16     8     9   ar
    17     9    10   ar
    18     9    15    1
    19    10    11   ar
    20    10    31    1
    21    11    12   ar
    22    11    14    1
    23    12    13   ar
    24    12    32    1
    25    15    20   ar
    26    15    16   ar
    27    16    17   ar
    28    16    33    1
    29    17    18   ar
    30    17    34    1
    31    18    19   ar
    32    18    21    1
    33    19    20   ar
    34    19    35    1
    35    20    36    1
    36    21    22    2
    37    21    23    2
    38    21    24    1
    39    24    37    1
    40    24    38    1
    41    24    39    1
