@<TRIPOS>MOLECULE
ZINC01530717
 45 45 0 0 0
SMALL
GASTEIGER

@<TRIPOS>ATOM
      1 C           3.5190    0.6599    2.5252 C.3     1  UNL1       -0.0219
      2 C           2.5320    1.6170    3.1821 C.3     1  UNL1       -0.0283
      3 C           2.7628    3.0435    2.6879 C.3     1  UNL1       -0.0219
      4 N           1.1231    1.2346    2.8366 N.4     1  UNL1        0.2307
      5 C           0.6307   -0.1449    3.2303 C.3     1  UNL1       -0.0035
      6 C          -0.8586   -0.2307    2.8432 C.3     1  UNL1        0.1285
      7 H          -0.9379   -0.2312    1.7497 H       1  UNL1        0.0681
      8 C          -1.5455   -1.4788    3.4135 C.3     1  UNL1        0.1204
      9 O          -0.9695   -2.6586    2.8557 O.3     1  UNL1       -0.4892
     10 C          -1.5821   -3.8424    3.1940 C.ar    1  UNL1        0.1206
     11 C          -2.6583   -3.9776    4.0723 C.ar    1  UNL1       -0.0197
     12 C          -3.2030   -5.2387    4.3509 C.ar    1  UNL1       -0.0550
     13 C          -2.6842   -6.3922    3.7466 C.ar    1  UNL1       -0.0450
     14 C          -1.5987   -6.2548    2.8711 C.ar    1  UNL1       -0.0550
     15 C          -1.0574   -4.9909    2.5969 C.ar    1  UNL1       -0.0197
     16 C          -3.2493   -7.7652    4.0579 C.3     1  UNL1       -0.0042
     17 C          -4.7604   -7.9143    3.8435 C.3     1  UNL1        0.0513
     18 O          -5.0863   -7.6694    2.4753 O.3     1  UNL1       -0.3826
     19 C          -6.4705   -7.8670    2.2173 C.3     1  UNL1        0.0365
     20 O          -1.4886    0.9745    3.3151 O.3     1  UNL1       -0.3831
     21 H           3.2589    0.4621    1.4798 H       1  UNL1        0.0284
     22 H           3.5487   -0.2960    3.0578 H       1  UNL1        0.0284
     23 H           4.5348    1.0709    2.5451 H       1  UNL1        0.0284
     24 H           2.6212    1.5814    4.2733 H       1  UNL1        0.0845
     25 H           2.6431    3.1149    1.6006 H       1  UNL1        0.0284
     26 H           2.0624    3.7443    3.1533 H       1  UNL1        0.0284
     27 H           3.7779    3.3778    2.9317 H       1  UNL1        0.0284
     28 H           0.4599    1.8849    3.2964 H       1  UNL1        0.2017
     29 H           1.2359   -0.8908    2.7103 H       1  UNL1        0.0841
     30 H           0.7674   -0.2124    4.3143 H       1  UNL1        0.0841
     31 H          -1.4421   -1.4862    4.5056 H       1  UNL1        0.0725
     32 H          -2.6128   -1.4197    3.1635 H       1  UNL1        0.0725
     33 H          -3.1171   -3.1304    4.5673 H       1  UNL1        0.0654
     34 H          -4.0349   -5.3096    5.0421 H       1  UNL1        0.0621
     35 H          -1.1717   -7.1300    2.3882 H       1  UNL1        0.0621
     36 H          -0.2219   -4.9159    1.9065 H       1  UNL1        0.0654
     37 H          -2.7396   -8.5140    3.4389 H       1  UNL1        0.0335
     38 H          -3.0098   -8.0018    5.1025 H       1  UNL1        0.0335
     39 H          -5.0591   -8.9368    4.1062 H       1  UNL1        0.0563
     40 H          -5.3188   -7.2206    4.4817 H       1  UNL1        0.0563
     41 H          -6.7033   -8.9358    2.2223 H       1  UNL1        0.0523
     42 H          -7.0886   -7.3440    2.9540 H       1  UNL1        0.0523
     43 H          -6.6956   -7.4637    1.2264 H       1  UNL1        0.0523
     44 H          -2.4508    0.8959    3.1449 H       1  UNL1        0.2102
     45 H           0.9548    1.3772    1.8326 H       1  UNL1        0.2017
@<TRIPOS>UNITY_ATOM_ATTR
4 1
charge 1
@<TRIPOS>BOND
     1     1     2    1
     2     1    21    1
     3     1    22    1
     4     1    23    1
     5     2     3    1
     6     2     4    1
     7     2    24    1
     8     3    25    1
     9     3    26    1
    10     3    27    1
    11     4     5    1
    12     4    28    1
    13     4    45    1
    14     5     6    1
    15     5    29    1
    16     5    30    1
    17     6     7    1
    18     6     8    1
    19     6    20    1
    20     8     9    1
    21     8    31    1
    22     8    32    1
    23     9    10    1
    24    10    15   ar
    25    10    11   ar
    26    11    12   ar
    27    11    33    1
    28    12    13   ar
    29    12    34    1
    30    13    14   ar
    31    13    16    1
    32    14    15   ar
    33    14    35    1
    34    15    36    1
    35    16    17    1
    36    16    37    1
    37    16    38    1
    38    17    18    1
    39    17    39    1
    40    17    40    1
    41    18    19    1
    42    19    41    1
    43    19    42    1
    44    19    43    1
    45    20    44    1
