@<TRIPOS>MOLECULE
ZINC00896988
 12 11 0 0 0
SMALL
GASTEIGER

@<TRIPOS>ATOM
      1 C           0.8774   -1.6728   -1.2004 C.3     1  UNL1        0.0426
      2 O           0.3345   -0.3607   -1.1936 O.3     1  UNL1       -0.3211
      3 C           1.0229    0.4942   -2.1045 C.3     1  UNL1        0.3867
      4 C           0.5429    1.9484   -2.0001 C.3     1  UNL1        0.1974
      5 CL          0.8988    2.6672   -0.3966 Cl      1  UNL1       -0.0954
      6 CL          1.2725    2.9863   -3.2651 Cl      1  UNL1       -0.0954
      7 F           2.3561    0.3861   -1.8808 F       1  UNL1       -0.1723
      8 F           0.7876    0.0109   -3.3534 F       1  UNL1       -0.1723
      9 H           0.2212   -2.3176   -0.6106 H       1  UNL1        0.0526
     10 H           1.8686   -1.6764   -0.7368 H       1  UNL1        0.0526
     11 H           0.9348   -2.0746   -2.2157 H       1  UNL1        0.0526
     12 H          -0.5405    1.9935   -2.1331 H       1  UNL1        0.0722
@<TRIPOS>BOND
     1     1     2    1
     2     1     9    1
     3     1    10    1
     4     1    11    1
     5     2     3    1
     6     3     4    1
     7     3     7    1
     8     3     8    1
     9     4     5    1
    10     4     6    1
    11     4    12    1
