@<TRIPOS>MOLECULE
ZINC00403010
 49 50 0 0 0
SMALL
GASTEIGER

@<TRIPOS>ATOM
      1 C          -0.9532   -1.4599    0.5375 C.3     1  UNL1       -0.0216
      2 C           0.4917   -0.9685    0.6979 C.3     1  UNL1       -0.0251
      3 H           0.6531   -0.0705    0.0935 H       1  UNL1        0.0848
      4 C           0.7393   -0.6347    2.1971 C.3     1  UNL1       -0.0060
      5 C           2.1196   -0.0644    2.5378 C.3     1  UNL1       -0.0226
      6 C           2.3127    0.4262    3.9643 C.ar    1  UNL1       -0.0472
      7 C           2.2013    1.7918    4.2776 C.ar    1  UNL1       -0.0586
      8 C           2.6172    2.2716    5.5287 C.ar    1  UNL1       -0.0615
      9 C           3.1296    1.4008    6.4826 C.ar    1  UNL1       -0.0617
     10 C           3.1670    0.0336    6.2123 C.ar    1  UNL1       -0.0615
     11 C           2.7464   -0.4522    4.9688 C.ar    1  UNL1       -0.0586
     12 N           1.4347   -2.0149    0.1257 N.4     1  UNL1        0.2310
     13 C           1.4043   -2.1461   -1.4187 C.3     1  UNL1       -0.0026
     14 C           2.4440   -3.1861   -1.9241 C.3     1  UNL1        0.1197
     15 H           2.2427   -4.1427   -1.4246 H       1  UNL1        0.0698
     16 C           2.4484   -3.4340   -3.4302 C.ar    1  UNL1       -0.0131
     17 C           1.6446   -4.4713   -3.9441 C.ar    1  UNL1       -0.0524
     18 C           1.6805   -4.8072   -5.3033 C.ar    1  UNL1       -0.0191
     19 C           2.5276   -4.1280   -6.1743 C.ar    1  UNL1        0.1290
     20 C           3.3379   -3.0813   -5.7123 C.ar    1  UNL1        0.0781
     21 C           3.2688   -2.7237   -4.3390 C.ar    1  UNL1       -0.0403
     22 C           4.2625   -2.4313   -6.6947 C.2     1  UNL1        0.2451
     23 O           4.2776   -2.7842   -7.8677 O.2     1  UNL1       -0.2703
     24 N           5.1167   -1.4492   -6.2698 N.am    1  UNL1       -0.3252
     25 O           2.5159   -4.5677   -7.4701 O.3     1  UNL1       -0.5060
     26 O           3.7332   -2.7775   -1.4526 O.3     1  UNL1       -0.3819
     27 H          -1.6183   -0.6074    0.3682 H       1  UNL1        0.0284
     28 H          -1.3083   -1.9744    1.4393 H       1  UNL1        0.0284
     29 H          -1.0977   -2.1545   -0.2942 H       1  UNL1        0.0284
     30 H          -0.0131    0.1134    2.4913 H       1  UNL1        0.0323
     31 H           0.5426   -1.5157    2.8219 H       1  UNL1        0.0323
     32 H           2.8805   -0.8313    2.3485 H       1  UNL1        0.0315
     33 H           2.3510    0.7620    1.8557 H       1  UNL1        0.0315
     34 H           1.8422    2.5075    3.5486 H       1  UNL1        0.0620
     35 H           2.5754    3.3418    5.7500 H       1  UNL1        0.0618
     36 H           3.5060    1.7813    7.4335 H       1  UNL1        0.0618
     37 H           3.5576   -0.6495    6.9651 H       1  UNL1        0.0618
     38 H           2.8121   -1.5213    4.7856 H       1  UNL1        0.0620
     39 H           2.4197   -1.7941    0.3574 H       1  UNL1        0.2017
     40 H           0.3944   -2.4400   -1.7119 H       1  UNL1        0.0843
     41 H           1.6367   -1.1479   -1.8021 H       1  UNL1        0.0843
     42 H           1.0006   -5.0632   -3.2999 H       1  UNL1        0.0622
     43 H           1.0696   -5.6220   -5.6862 H       1  UNL1        0.0654
     44 H           3.8799   -1.9112   -3.9655 H       1  UNL1        0.0630
     45 H           5.2229   -1.1121   -5.3298 H       1  UNL1        0.1453
     46 H           5.7505   -1.0818   -6.9697 H       1  UNL1        0.1453
     47 H           3.1681   -4.0513   -7.9916 H       1  UNL1        0.2922
     48 H           4.3891   -3.3604   -1.8870 H       1  UNL1        0.2105
     49 H           1.2555   -2.9306    0.5595 H       1  UNL1        0.2017
@<TRIPOS>UNITY_ATOM_ATTR
12 1
charge 1
@<TRIPOS>BOND
     1     1     2    1
     2     1    27    1
     3     1    28    1
     4     1    29    1
     5     2     3    1
     6     2     4    1
     7     2    12    1
     8     4     5    1
     9     4    30    1
    10     4    31    1
    11     5     6    1
    12     5    32    1
    13     5    33    1
    14     6    11   ar
    15     6     7   ar
    16     7     8   ar
    17     7    34    1
    18     8     9   ar
    19     8    35    1
    20     9    10   ar
    21     9    36    1
    22    10    11   ar
    23    10    37    1
    24    11    38    1
    25    12    13    1
    26    12    39    1
    27    12    49    1
    28    13    14    1
    29    13    40    1
    30    13    41    1
    31    14    15    1
    32    14    16    1
    33    14    26    1
    34    16    21   ar
    35    16    17   ar
    36    17    18   ar
    37    17    42    1
    38    18    19   ar
    39    18    43    1
    40    19    20   ar
    41    19    25    1
    42    20    21   ar
    43    20    22    1
    44    21    44    1
    45    22    23    2
    46    22    24   am
    47    24    45    1
    48    24    46    1
    49    25    47    1
    50    26    48    1
