@<TRIPOS>MOLECULE
ZINC00403079
 37 37 0 0 0
SMALL
GASTEIGER

@<TRIPOS>ATOM
      1 C           8.5470   -2.0116   -5.9519 C.3     1  UNL1        0.0788
      2 O           7.4977   -2.2033   -6.8953 O.3     1  UNL1       -0.4951
      3 C           6.2344   -1.9323   -6.4498 C.ar    1  UNL1        0.1207
      4 C           5.2144   -2.6533   -7.0536 C.ar    1  UNL1       -0.0165
      5 C           3.8843   -2.3909   -6.7230 C.ar    1  UNL1       -0.0161
      6 C           3.5436   -1.4011   -5.7870 C.ar    1  UNL1        0.1260
      7 C           4.5651   -0.6609   -5.1625 C.ar    1  UNL1        0.0274
      8 C           5.9099   -0.9454   -5.5210 C.ar    1  UNL1       -0.0108
      9 C           4.3301    0.5120   -4.2393 C.3     1  UNL1        0.0991
     10 H           3.4443    0.3675   -3.6264 H       1  UNL1        0.0660
     11 C           4.2256    1.8434   -5.0022 C.3     1  UNL1        0.0421
     12 N           4.0312    2.9509   -4.0633 N.am    1  UNL1       -0.3081
     13 C           3.3825    4.1055   -4.3985 C.2     1  UNL1        0.2582
     14 O           2.8470    4.3205   -5.4832 O.2     1  UNL1       -0.2699
     15 C           3.2889    5.1519   -3.2948 C.3     1  UNL1        0.0425
     16 N           2.5550    6.3591   -3.7865 N.4     1  UNL1        0.2251
     17 O           5.3791    0.6397   -3.2562 O.3     1  UNL1       -0.3855
     18 O           2.1968   -1.1780   -5.7268 O.3     1  UNL1       -0.4947
     19 C           1.5850   -0.9574   -4.4670 C.3     1  UNL1        0.0788
     20 H           9.4858   -2.3044   -6.4327 H       1  UNL1        0.0660
     21 H           8.3992   -2.6538   -5.0767 H       1  UNL1        0.0660
     22 H           8.6519   -0.9640   -5.6566 H       1  UNL1        0.0660
     23 H           5.4465   -3.4088   -7.8035 H       1  UNL1        0.0655
     24 H           3.0964   -2.9494   -7.2258 H       1  UNL1        0.0655
     25 H           6.6982   -0.3262   -5.1027 H       1  UNL1        0.0659
     26 H           5.1590    2.0622   -5.5356 H       1  UNL1        0.0491
     27 H           3.4114    1.8301   -5.7335 H       1  UNL1        0.0491
     28 H           4.6261    2.8943   -3.2381 H       1  UNL1        0.1490
     29 H           2.7136    4.7532   -2.4533 H       1  UNL1        0.0911
     30 H           4.2801    5.4790   -2.9782 H       1  UNL1        0.0911
     31 H           1.6769    6.0562   -4.2347 H       1  UNL1        0.1999
     32 H           2.3468    7.0464   -3.0616 H       1  UNL1        0.1999
     33 H           5.5422   -0.2613   -2.9158 H       1  UNL1        0.2103
     34 H           2.0805   -1.4902   -3.6490 H       1  UNL1        0.0660
     35 H           1.5298    0.1185   -4.2740 H       1  UNL1        0.0660
     36 H           0.5505   -1.3100   -4.5239 H       1  UNL1        0.0660
     37 H           3.0899    6.8097   -4.5418 H       1  UNL1        0.1999
@<TRIPOS>UNITY_ATOM_ATTR
16 1
charge 1
@<TRIPOS>BOND
     1     1     2    1
     2     1    20    1
     3     1    21    1
     4     1    22    1
     5     2     3    1
     6     3     8   ar
     7     3     4   ar
     8     4     5   ar
     9     4    23    1
    10     5     6   ar
    11     5    24    1
    12     6     7   ar
    13     6    18    1
    14     7     8   ar
    15     8    25    1
    16     9    11    1
    17     9    17    1
    18    11    12    1
    19    11    26    1
    20    11    27    1
    21    12    13   am
    22    12    28    1
    23    13    14    2
    24    13    15    1
    25    15    16    1
    26    15    29    1
    27    15    30    1
    28    16    31    1
    29    16    32    1
    30    16    37    1
    31    17    33    1
    32    18    19    1
    33    19    34    1
    34    19    35    1
    35    19    36    1
    36     9    10    1
    37     9     7    1
