@<TRIPOS>MOLECULE
ZINC00608101
 37 39 0 0 0
SMALL
GASTEIGER

@<TRIPOS>ATOM
      1 C          -1.4403   -1.3939    0.1673 C.ar    1  UNL1       -0.0430
      2 C          -0.2176   -2.0618    0.2583 C.ar    1  UNL1       -0.0533
      3 C           1.0050   -1.3673    0.1620 C.ar    1  UNL1        0.0010
      4 C           0.9483    0.0363    0.0412 C.ar    1  UNL1        0.0480
      5 C          -0.2767    0.7103    0.0054 C.ar    1  UNL1       -0.0247
      6 C          -1.4645   -0.0102    0.0477 C.ar    1  UNL1        0.0424
      7 CL         -2.9696    0.8109   -0.0558 Cl      1  UNL1       -0.0835
      8 CL          2.3711    1.0060   -0.1045 Cl      1  UNL1       -0.0831
      9 C           2.3296   -2.1302    0.1245 C.3     1  UNL1        0.1014
     10 H           2.9145   -1.7796   -0.7361 H       1  UNL1        0.0663
     11 C           3.2036   -1.8973    1.3913 C.3     1  UNL1        0.0480
     12 N           2.5434   -2.2502    2.6618 N.pl3   1  UNL1       -0.2949
     13 C           2.2219   -1.3909    3.7026 C.2     1  UNL1        0.0135
     14 C           1.6594   -2.1575    4.6853 C.2     1  UNL1        0.0167
     15 N           1.6595   -3.4462    4.2183 N.2     1  UNL1       -0.3542
     16 C           2.2071   -3.5012    3.0016 C.2     1  UNL1        0.0640
     17 O           2.1441   -3.5634   -0.0429 O.3     1  UNL1       -0.3657
     18 C           1.8240   -3.9123   -1.4032 C.3     1  UNL1        0.0754
     19 C           1.6444   -5.3796   -1.6715 C.ar    1  UNL1        0.0036
     20 C           1.5745   -5.8770   -3.0276 C.ar    1  UNL1       -0.0479
     21 C           1.4073   -7.2414   -3.1042 C.ar    1  UNL1       -0.0226
     22 S           1.3144   -7.9465   -1.5544 S.2     1  UNL1       -0.0849
     23 C           1.4583   -6.4314   -0.7987 C.ar    1  UNL1        0.0834
     24 CL          1.3308   -6.4076    0.9157 Cl      1  UNL1       -0.0755
     25 H          -2.3684   -1.9624    0.1739 H       1  UNL1        0.0632
     26 H          -0.2433   -3.1465    0.3557 H       1  UNL1        0.0622
     27 H          -0.3068    1.7944   -0.0816 H       1  UNL1        0.0647
     28 H           4.1077   -2.5133    1.3310 H       1  UNL1        0.0497
     29 H           3.5355   -0.8578    1.4722 H       1  UNL1        0.0497
     30 H           2.4485   -0.3423    3.6138 H       1  UNL1        0.0798
     31 H           1.2680   -1.9588    5.6669 H       1  UNL1        0.0820
     32 H           2.3811   -4.3950    2.4196 H       1  UNL1        0.0982
     33 H           0.8958   -3.4159   -1.7051 H       1  UNL1        0.0611
     34 H           2.6264   -3.5415   -2.0520 H       1  UNL1        0.0611
     35 H           1.6375   -5.2497   -3.9104 H       1  UNL1        0.0627
     36 H           1.3289   -7.8521   -3.9947 H       1  UNL1        0.0694
     37 H           1.3042   -4.2618    4.7140 H       1  UNL1        0.1660
@<TRIPOS>BOND
     1     1     6   ar
     2     1     2   ar
     3     1    25    1
     4     2     3   ar
     5     2    26    1
     6     3     4   ar
     7     3     9    1
     8     4     5   ar
     9     4     8    1
    10     5     6   ar
    11     5    27    1
    12     6     7    1
    13     9    10    1
    14     9    11    1
    15     9    17    1
    16    11    12    1
    17    11    28    1
    18    11    29    1
    19    12    16    1
    20    12    13    1
    21    13    14    2
    22    13    30    1
    23    14    15    1
    24    14    31    1
    25    15    16    2
    26    15    37    1
    27    16    32    1
    28    17    18    1
    29    18    19    1
    30    18    33    1
    31    18    34    1
    32    19    23   ar
    33    19    20   ar
    34    20    21   ar
    35    20    35    1
    36    21    22   ar
    37    21    36    1
    38    22    23   ar
    39    23    24    1
