@<TRIPOS>MOLECULE
ZINC00018635
 36 38 0 0 0
SMALL
GASTEIGER

@<TRIPOS>ATOM
      1 C           1.2699   -0.0219    0.3433 C.3     1  UNL1       -0.0446
      2 N           0.5627    1.2715    0.5667 N.4     1  UNL1        0.2272
      3 C           0.9937    2.4239   -0.3156 C.3     1  UNL1       -0.0184
      4 H           2.0632    2.5788   -0.1217 H       1  UNL1        0.0854
      5 C           0.2024    3.6782    0.1271 C.3     1  UNL1       -0.0041
      6 C           0.5437    4.9362   -0.6987 C.3     1  UNL1       -0.0071
      7 C           0.8033    4.5715   -2.1153 C.ar    1  UNL1        0.0206
      8 C           0.9313    3.3011   -2.6349 C.ar    1  UNL1       -0.0138
      9 C           1.2747    3.4253   -4.0071 C.ar    1  UNL1        0.0040
     10 C           1.5700    2.5082   -5.0324 C.ar    1  UNL1       -0.0402
     11 C           1.8976    2.9831   -6.3128 C.ar    1  UNL1        0.0372
     12 C           1.9394    4.3585   -6.5672 C.ar    1  UNL1       -0.0477
     13 C           1.6460    5.2867   -5.5601 C.ar    1  UNL1       -0.0371
     14 C           1.3200    4.7917   -4.2922 C.ar    1  UNL1        0.0470
     15 N           1.0155    5.4681   -3.1285 N.ar    1  UNL1       -0.3577
     16 H           0.9908    6.4767   -3.0462 H       1  UNL1        0.1656
     17 C           2.2327    1.9781   -7.3548 C.2     1  UNL1        0.2416
     18 O           2.6275    0.8590   -7.0523 O.2     1  UNL1       -0.2704
     19 N           2.0461    2.3357   -8.6599 N.am    1  UNL1       -0.3253
     20 C           0.7544    2.0842   -1.8054 C.3     1  UNL1        0.0177
     21 H           1.0019   -0.4022   -0.6434 H       1  UNL1        0.0777
     22 H           0.9264   -0.7159    1.1138 H       1  UNL1        0.0777
     23 H           2.3448    0.1514    0.4317 H       1  UNL1        0.0777
     24 H          -0.4508    1.1207    0.4662 H       1  UNL1        0.2013
     25 H          -0.8729    3.4755    0.0299 H       1  UNL1        0.0323
     26 H           0.3831    3.8907    1.1881 H       1  UNL1        0.0323
     27 H          -0.2791    5.6569   -0.6275 H       1  UNL1        0.0330
     28 H           1.4384    5.4139   -0.2824 H       1  UNL1        0.0330
     29 H           1.5572    1.4378   -4.8401 H       1  UNL1        0.0632
     30 H           2.2340    4.7336   -7.5435 H       1  UNL1        0.0626
     31 H           1.6895    6.3540   -5.7604 H       1  UNL1        0.0638
     32 H           1.5265    3.1542   -8.9412 H       1  UNL1        0.1453
     33 H           2.1999    1.6168   -9.3567 H       1  UNL1        0.1453
     34 H           1.4515    1.3052   -2.1330 H       1  UNL1        0.0369
     35 H          -0.2638    1.7019   -1.9481 H       1  UNL1        0.0369
     36 H           0.7069    1.5435    1.5491 H       1  UNL1        0.2013
@<TRIPOS>UNITY_ATOM_ATTR
2 1
charge 1
@<TRIPOS>BOND
     1     1     2    1
     2     1    21    1
     3     1    22    1
     4     1    23    1
     5     2     3    1
     6     2    24    1
     7     2    36    1
     8     3     4    1
     9     3    20    1
    10     3     5    1
    11     5     6    1
    12     5    25    1
    13     5    26    1
    14     6     7    1
    15     6    27    1
    16     6    28    1
    17     7    15   ar
    18     7     8   ar
    19     8     9   ar
    20     8    20    1
    21     9    14   ar
    22     9    10   ar
    23    10    11   ar
    24    10    29    1
    25    11    12   ar
    26    11    17    1
    27    12    13   ar
    28    12    30    1
    29    13    14   ar
    30    13    31    1
    31    14    15   ar
    32    15    16    1
    33    17    18    2
    34    17    19   am
    35    19    32    1
    36    19    33    1
    37    20    34    1
    38    20    35    1
