@<TRIPOS>MOLECULE
ZINC00007673
 36 36 0 0 0
SMALL
GASTEIGER

@<TRIPOS>ATOM
      1 C           3.1101   -3.2610    1.2198 C.3     1  UNL1        0.0122
      2 C           3.6705   -3.6861   -0.1092 C.2     1  UNL1        0.2106
      3 O           4.7882   -4.1868   -0.2163 O.2     1  UNL1       -0.2761
      4 N           2.9206   -3.4961   -1.2308 N.am    1  UNL1       -0.3023
      5 C           1.7125   -2.6677   -1.3717 C.3     1  UNL1        0.1228
      6 H           1.1951   -2.6463   -0.4066 H       1  UNL1        0.0618
      7 C           0.7647   -3.2058   -2.4562 C.3     1  UNL1        0.0742
      8 O           0.3236   -4.5278   -2.1267 O.3     1  UNL1       -0.3807
      9 C          -0.5494   -5.0480   -3.1243 C.3     1  UNL1        0.0365
     10 C           2.0730   -1.2132   -1.7513 C.2     1  UNL1        0.2359
     11 O           1.2085   -0.3510   -1.8951 O.2     1  UNL1       -0.2737
     12 N           3.4128   -0.9676   -1.9507 N.am    1  UNL1       -0.3096
     13 C           3.9350    0.3273   -2.3292 C.3     1  UNL1        0.0369
     14 C           4.6878    0.2552   -3.6335 C.ar    1  UNL1       -0.0303
     15 C           6.0653    0.5154   -3.6876 C.ar    1  UNL1       -0.0571
     16 C           6.7480    0.4726   -4.9050 C.ar    1  UNL1       -0.0615
     17 C           6.0652    0.1667   -6.0802 C.ar    1  UNL1       -0.0617
     18 C           4.6960   -0.0951   -6.0404 C.ar    1  UNL1       -0.0615
     19 C           4.0122   -0.0489   -4.8249 C.ar    1  UNL1       -0.0571
     20 H           3.8672   -3.4127    1.9952 H       1  UNL1        0.0322
     21 H           2.2371   -3.8716    1.4644 H       1  UNL1        0.0322
     22 H           2.8437   -2.2014    1.2081 H       1  UNL1        0.0322
     23 H           3.3569   -3.8417   -2.0783 H       1  UNL1        0.1495
     24 H          -0.1150   -2.5558   -2.5389 H       1  UNL1        0.0583
     25 H           1.2708   -3.2253   -3.4299 H       1  UNL1        0.0583
     26 H          -1.4175   -4.3945   -3.2567 H       1  UNL1        0.0524
     27 H          -0.0178   -5.1621   -4.0742 H       1  UNL1        0.0524
     28 H          -0.9005   -6.0317   -2.8008 H       1  UNL1        0.0524
     29 H           4.0762   -1.7172   -1.7942 H       1  UNL1        0.1491
     30 H           3.1346    1.0711   -2.4070 H       1  UNL1        0.0512
     31 H           4.5994    0.6447   -1.5176 H       1  UNL1        0.0512
     32 H           6.6179    0.7624   -2.7831 H       1  UNL1        0.0621
     33 H           7.8141    0.6831   -4.9387 H       1  UNL1        0.0618
     34 H           6.5972    0.1369   -7.0278 H       1  UNL1        0.0618
     35 H           4.1613   -0.3273   -6.9570 H       1  UNL1        0.0618
     36 H           2.9403   -0.2415   -4.8086 H       1  UNL1        0.0621
@<TRIPOS>BOND
     1     1     2    1
     2     1    20    1
     3     1    21    1
     4     1    22    1
     5     2     3    2
     6     2     4   am
     7     4    23    1
     8     5     7    1
     9     5    10    1
    10     7     8    1
    11     7    24    1
    12     7    25    1
    13     8     9    1
    14     9    26    1
    15     9    27    1
    16     9    28    1
    17    10    11    2
    18    10    12   am
    19    12    13    1
    20    12    29    1
    21    13    14    1
    22    13    30    1
    23    13    31    1
    24    14    19   ar
    25    14    15   ar
    26    15    16   ar
    27    15    32    1
    28    16    17   ar
    29    16    33    1
    30    17    18   ar
    31    17    34    1
    32    18    19   ar
    33    18    35    1
    34    19    36    1
    35     5     6    1
    36     5     4    1
