@<TRIPOS>MOLECULE
ZINC02539484
 20 19 0 0 0
SMALL
GASTEIGER

@<TRIPOS>ATOM
      1 C           1.0184    0.0203   -0.1317 C.3     1  UNL1       -0.0430
      2 C           3.0497    0.7525    1.1097 C.3     1  UNL1       -0.0184
      3 C           4.5762    0.7736    1.2037 C.3     1  UNL1        0.0626
      4 CL          5.3053    1.0484   -0.3938 Cl      1  UNL1       -0.1199
      5 C           2.8974   -1.6406    0.1966 C.3     1  UNL1       -0.0184
      6 C           2.5500   -2.5004   -1.0224 C.3     1  UNL1        0.0626
      7 CL          3.1901   -1.7658   -2.5117 Cl      1  UNL1       -0.1199
      8 H           0.5250   -0.3931    0.7532 H       1  UNL1        0.0778
      9 H           0.8171    1.0906   -0.2236 H       1  UNL1        0.0778
     10 H           0.6882   -0.4871   -1.0393 H       1  UNL1        0.0778
     11 H           2.6924    1.7583    0.8579 H       1  UNL1        0.0826
     12 H           2.5970    0.4450    2.0582 H       1  UNL1        0.0826
     13 H           4.9026    1.5774    1.8706 H       1  UNL1        0.0482
     14 H           4.9670   -0.1668    1.6023 H       1  UNL1        0.0482
     15 H           3.9795   -1.6714    0.3476 H       1  UNL1        0.0826
     16 H           2.4036   -2.0077    1.1019 H       1  UNL1        0.0826
     17 H           2.9867   -3.4984   -0.9203 H       1  UNL1        0.0482
     18 H           1.4689   -2.6160   -1.1396 H       1  UNL1        0.0482
     19 N           2.5067   -0.1751    0.0236 N.4     1  UNL1        0.2347
     20 H           2.9484    0.1305   -0.8655 H       1  UNL1        0.2031
@<TRIPOS>UNITY_ATOM_ATTR
19 1
charge 1
@<TRIPOS>BOND
     1     1     8    1
     2     1     9    1
     3     1    10    1
     4     1    19    1
     5     2     3    1
     6     2    11    1
     7     2    12    1
     8     2    19    1
     9     3     4    1
    10     3    13    1
    11     3    14    1
    12     5     6    1
    13     5    15    1
    14     5    16    1
    15     5    19    1
    16     6     7    1
    17     6    17    1
    18     6    18    1
    19    19    20    1
