@<TRIPOS>MOLECULE
ZINC03830441
 51 54 0 0 0
SMALL
GASTEIGER

@<TRIPOS>ATOM
      1 C          -0.8072    4.9544    0.5704 C.3     1  UNL1        0.0346
      2 N          -1.0254    3.7641   -0.2007 N.ar    1  UNL1       -0.2233
      3 C          -0.3515    2.5761   -0.2764 C.ar    1  UNL1        0.2094
      4 N          -0.9042    1.8584   -1.2320 N.ar    1  UNL1       -0.1015
      5 N          -1.9304    2.6087   -1.7418 N.ar    1  UNL1       -0.0222
      6 N          -2.0008    3.7877   -1.1317 N.ar    1  UNL1       -0.0435
      7 S           1.0853    2.0813    0.5444 S.3     1  UNL1       -0.0801
      8 C           0.9120    2.4983    2.3008 C.3     1  UNL1        0.0253
      9 C          -0.3585    2.0925    3.0415 C.2     1  UNL1       -0.0210
     10 C          -0.8176    2.7708    4.1479 C.2     1  UNL1        0.1273
     11 N          -1.8731    2.2381    4.8588 N.am    1  UNL1       -0.2438
     12 C          -2.1709    0.8322    4.8037 C.3     1  UNL1        0.1322
     13 H          -1.3359    0.2161    5.1620 H       1  UNL1        0.0672
     14 C          -3.2988    1.0338    5.8723 C.3     1  UNL1        0.2425
     15 C          -2.7399    2.5651    5.8624 C.2     1  UNL1        0.2746
     16 O          -3.0510    3.6083    6.3755 O.2     1  UNL1       -0.2701
     17 N          -4.6920    0.8969    5.3583 N.am    1  UNL1       -0.2764
     18 C          -5.8207    1.0782    6.1411 C.2     1  UNL1        0.2392
     19 O          -5.7218    1.3137    7.3520 O.2     1  UNL1       -0.2736
     20 C          -7.2046    0.9798    5.4106 C.3     1  UNL1        0.1367
     21 S          -8.0803   -0.5391    5.8197 S.3     1  UNL1       -0.0934
     22 C          -7.8241   -0.8043    4.1180 C.2     1  UNL1        0.0630
     23 C          -8.0817   -1.8997    3.3513 C.2     1  UNL1        0.1441
     24 C          -8.5913   -3.1383    4.0254 C.2     1  UNL1        0.2502
     25 O          -9.1104   -3.1954    5.1363 O.2     1  UNL1       -0.2701
     26 N          -8.4591   -4.2990    3.3297 N.am    1  UNL1       -0.3251
     27 C          -7.8892   -1.9205    1.8242 C.2     1  UNL1        0.3931
     28 O          -8.0722   -0.8415    1.1966 O.co2   1  UNL1       -0.2403
     29 S          -7.1714    0.7366    3.6305 S.3     1  UNL1       -0.0934
     30 O          -3.0416    0.2717    7.0940 O.3     1  UNL1       -0.3492
     31 C          -2.9333   -1.1373    6.9242 C.3     1  UNL1        0.0396
     32 S          -2.6642    0.4599    3.1132 S.3     1  UNL1       -0.1285
     33 C          -0.9713    0.7766    2.5535 C.3     1  UNL1        0.0197
     34 C          -0.1012    4.0796    4.7408 C.2     1  UNL1        0.4006
     35 O          -0.0694    4.1440    6.0012 O.co2   1  UNL1       -0.2392
     36 H          -0.5785    5.7694   -0.1229 H       1  UNL1        0.0474
     37 H          -1.7226    5.1780    1.1244 H       1  UNL1        0.0474
     38 H           0.0253    4.8405    1.2529 H       1  UNL1        0.0474
     39 H           1.7462    1.9901    2.8006 H       1  UNL1        0.0427
     40 H           1.1516    3.5513    2.3434 H       1  UNL1        0.0427
     41 H          -4.8335    0.7736    4.3544 H       1  UNL1        0.1520
     42 H          -7.8026    1.8643    5.6691 H       1  UNL1        0.0629
     43 H          -8.1178   -4.2491    2.3600 H       1  UNL1        0.1453
     44 H          -8.8494   -5.1507    3.6906 H       1  UNL1        0.1453
     45 H          -3.7032   -1.5158    6.2442 H       1  UNL1        0.0524
     46 H          -1.9445   -1.3893    6.5261 H       1  UNL1        0.0524
     47 H          -3.0406   -1.6251    7.8948 H       1  UNL1        0.0524
     48 H          -0.3381   -0.0516    2.8937 H       1  UNL1        0.0423
     49 H          -1.0389    0.7134    1.4715 H       1  UNL1        0.0423
     50 O          -7.6340   -3.0602    1.3170 O.co2   1  UNL1       -0.2403
     51 O           0.4401    4.8427    3.8891 O.co2   1  UNL1       -0.2392
@<TRIPOS>BOND
     1     1     2    1
     2     1    36    1
     3     1    37    1
     4     1    38    1
     5     2     6   ar
     6     2     3   ar
     7     3     4   ar
     8     3     7    1
     9     4     5   ar
    10     5     6   ar
    11     7     8    1
    12     8     9    1
    13     8    39    1
    14     8    40    1
    15     9    33    1
    16     9    10    2
    17    10    11    1
    18    10    34    1
    19    11    15   am
    20    11    12    1
    21    12    13    1
    22    12    14    1
    23    12    32    1
    24    14    15    1
    25    14    17    1
    26    14    30    1
    27    15    16    2
    28    17    18   am
    29    17    41    1
    30    18    19    2
    31    20    29    1
    32    20    21    1
    33    21    22    1
    34    22    23    2
    35    22    29    1
    36    23    24    1
    37    23    27    1
    38    24    25    2
    39    24    26   am
    40    26    43    1
    41    26    44    1
    42    27    28   ar
    43    27    50   ar
    44    30    31    1
    45    31    45    1
    46    31    46    1
    47    31    47    1
    48    32    33    1
    49    33    48    1
    50    33    49    1
    51    34    35   ar
    52    34    51   ar
    53    20    42    1
    54    20    18    1
