@<TRIPOS>MOLECULE
ZINC00054567
 30 32 0 0 0
SMALL
GASTEIGER

@<TRIPOS>ATOM
      1 C          -1.6483    0.2352    1.4214 C.3     1  UNL1        0.0788
      2 O          -0.2981    0.6791    1.3711 O.3     1  UNL1       -0.4951
      3 C           0.3003    0.8653    2.5886 C.ar    1  UNL1        0.1201
      4 C           1.6884    0.7623    2.5989 C.ar    1  UNL1       -0.0194
      5 C           2.4022    0.9312    3.7921 C.ar    1  UNL1       -0.0505
      6 C           1.7550    1.2393    4.9983 C.ar    1  UNL1       -0.0145
      7 C           0.3593    1.3611    4.9627 C.ar    1  UNL1       -0.0505
      8 C          -0.3630    1.1774    3.7740 C.ar    1  UNL1       -0.0194
      9 C           2.5081    1.4167    6.2642 C.2     1  UNL1        0.0223
     10 C           1.9391    1.0920    7.6141 C.2     1  UNL1        0.1937
     11 C           2.9669    1.4044    8.5878 C.ar    1  UNL1        0.0288
     12 C           2.9539    1.2840    9.9700 C.ar    1  UNL1       -0.0504
     13 C           4.1034    1.6732   10.6599 C.ar    1  UNL1       -0.0611
     14 C           5.2159    2.1679    9.9597 C.ar    1  UNL1       -0.0612
     15 C           5.1892    2.2728    8.5642 C.ar    1  UNL1       -0.0545
     16 C           4.0463    1.8818    7.8754 C.ar    1  UNL1       -0.0212
     17 C           3.7788    1.8982    6.4174 C.2     1  UNL1       -0.0888
     18 O           4.6407    2.3141    5.5927 O.co2   1  UNL1       -0.8728
     19 O           0.8393    0.6490    7.9003 O.2     1  UNL1       -0.2866
     20 H          -1.9692    0.0266    0.3962 H       1  UNL1        0.0660
     21 H          -2.3125    1.0088    1.8186 H       1  UNL1        0.0660
     22 H          -1.7351   -0.6936    1.9957 H       1  UNL1        0.0660
     23 H           2.2305    0.5463    1.6831 H       1  UNL1        0.0654
     24 H           3.4870    0.8358    3.7705 H       1  UNL1        0.0625
     25 H          -0.1882    1.6186    5.8658 H       1  UNL1        0.0625
     26 H          -1.4375    1.3088    3.8116 H       1  UNL1        0.0654
     27 H           2.0803    0.9009   10.4841 H       1  UNL1        0.0625
     28 H           4.1412    1.5952   11.7425 H       1  UNL1        0.0618
     29 H           6.1089    2.4749   10.4968 H       1  UNL1        0.0618
     30 H           6.0402    2.6536    8.0076 H       1  UNL1        0.0623
@<TRIPOS>UNITY_ATOM_ATTR
18 1
charge -1
@<TRIPOS>BOND
     1     1     2    1
     2     1    20    1
     3     1    21    1
     4     1    22    1
     5     2     3    1
     6     3     8   ar
     7     3     4   ar
     8     4     5   ar
     9     4    23    1
    10     5     6   ar
    11     5    24    1
    12     6     7   ar
    13     6     9    1
    14     7     8   ar
    15     7    25    1
    16     8    26    1
    17     9    10    1
    18     9    17    2
    19    10    11    1
    20    10    19    2
    21    11    16   ar
    22    11    12   ar
    23    12    13   ar
    24    12    27    1
    25    13    14   ar
    26    13    28    1
    27    14    15   ar
    28    14    29    1
    29    15    16   ar
    30    15    30    1
    31    16    17    1
    32    17    18    1
