@<TRIPOS>MOLECULE
ZINC03830431
 70 74 0 0 0
SMALL
GASTEIGER

@<TRIPOS>ATOM
      1 C          -2.7041   -4.7243    8.3003 C.3     1  UNL1       -0.0493
      2 C          -2.7894   -3.3367    8.9151 C.3     1  UNL1        0.0123
      3 N          -2.7137   -2.2823    7.9110 N.am    1  UNL1       -0.2925
      4 C          -3.8279   -2.0459    7.0086 C.3     1  UNL1        0.0314
      5 C          -3.8508   -0.5777    6.5741 C.3     1  UNL1        0.0401
      6 N          -2.5741   -0.1356    6.0201 N.am    1  UNL1       -0.2167
      7 C          -1.4235   -0.8737    6.3119 C.2     1  UNL1        0.3091
      8 O          -0.3971   -0.8519    5.6401 O.2     1  UNL1       -0.2645
      9 C          -1.4679   -1.7691    7.5634 C.2     1  UNL1        0.3022
     10 O          -0.4381   -1.9663    8.1954 O.2     1  UNL1       -0.2649
     11 C          -2.5349    1.1405    5.4423 C.2     1  UNL1        0.3098
     12 O          -3.5251    1.8594    5.3432 O.2     1  UNL1       -0.2522
     13 N          -1.2949    1.5451    5.0261 N.am    1  UNL1       -0.2836
     14 CA         -0.9692    2.8929    4.5444 C.3     1  UNL1        0.1261
     15 HA         -1.4874    3.5945    5.2112 H       1  UNL1        0.0646
     16 C           0.5416    3.1846    4.6153 C.ar    1  UNL1       -0.0181
     17 C           0.9975    4.5045    4.4293 C.ar    1  UNL1       -0.0529
     18 C           2.3494    4.8353    4.5824 C.ar    1  UNL1       -0.0199
     19 C           3.2616    3.8469    4.9309 C.ar    1  UNL1        0.1169
     20 C           2.8593    2.5278    5.0387 C.ar    1  UNL1       -0.0199
     21 C           1.5147    2.1954    4.8582 C.ar    1  UNL1       -0.0529
     22 O           4.5696    4.1372    5.1802 O.3     1  UNL1       -0.5068
     23 C          -1.4910    3.1592    3.1062 C.2     1  UNL1        0.2386
     24 O          -1.6073    4.2982    2.6456 O.2     1  UNL1       -0.2734
     25 N          -1.6209    2.0362    2.3206 N.am    1  UNL1       -0.2999
     26 CA         -1.5293    2.1392    0.8331 C.3     1  UNL1        0.1284
     27 HA         -2.1063    2.9883    0.4448 H       1  UNL1        0.0622
     28 C          -0.0896    2.0111    0.2358 C.3     1  UNL1        0.1042
     29 H           0.2542    2.9072   -0.2903 H       1  UNL1        0.0644
     30 N          -0.6310    0.9963   -0.6390 N.am    1  UNL1       -0.2488
     31 C          -1.8089    0.8421    0.0276 C.2     1  UNL1        0.2440
     32 O          -2.6353   -0.0388    0.1046 O.2     1  UNL1       -0.2731
     33 CA          0.0901    0.0603   -1.3518 C.2     1  UNL1        0.1271
     34 C           1.4133   -0.1380   -1.0878 C.2     1  UNL1       -0.0210
     35 C           2.1641    0.6663   -0.0362 C.3     1  UNL1        0.0196
     36 S           1.1445    1.2552    1.3323 S.3     1  UNL1       -0.1311
     37 C           2.2813   -1.1106   -1.8830 C.3     1  UNL1        0.0253
     38 S           3.4683   -2.0527   -0.8577 S.3     1  UNL1       -0.0801
     39 C           4.2844   -2.9745   -2.0703 C.ar    1  UNL1        0.2094
     40 N           5.5130   -2.7921   -2.4740 N.ar    1  UNL1       -0.1015
     41 N           5.7744   -3.8195   -3.3509 N.ar    1  UNL1       -0.0222
     42 N           4.7288   -4.6258   -3.4638 N.ar    1  UNL1       -0.0435
     43 N           3.7821   -4.0906   -2.6625 N.ar    1  UNL1       -0.2233
     44 C           2.5198   -4.7596   -2.5082 C.3     1  UNL1        0.0346
     45 C          -0.7280   -0.6278   -2.5604 C.2     1  UNL1        0.4006
     46 O          -0.3135   -1.7497   -2.9612 O.co2   1  UNL1       -0.2392
     47 H          -3.5674   -4.9197    7.6565 H       1  UNL1        0.0245
     48 H          -2.6844   -5.4881    9.0839 H       1  UNL1        0.0245
     49 H          -1.8003   -4.8334    7.6918 H       1  UNL1        0.0245
     50 H          -3.7212   -3.2162    9.4769 H       1  UNL1        0.0462
     51 H          -1.9641   -3.2160    9.6269 H       1  UNL1        0.0462
     52 H          -4.7647   -2.3053    7.5123 H       1  UNL1        0.0480
     53 H          -3.6967   -2.7054    6.1428 H       1  UNL1        0.0480
     54 H          -4.0882    0.0704    7.4268 H       1  UNL1        0.0485
     55 H          -4.6325   -0.4300    5.8195 H       1  UNL1        0.0485
     56 H          -0.5387    1.0356    5.4588 H       1  UNL1        0.1513
     57 H           0.2980    5.2924    4.1508 H       1  UNL1        0.0622
     58 H           2.6654    5.8620    4.4289 H       1  UNL1        0.0654
     59 H           3.5830    1.7497    5.2654 H       1  UNL1        0.0654
     60 H           1.2729    1.1371    4.9021 H       1  UNL1        0.0622
     61 H           4.6684    5.1024    5.1944 H       1  UNL1        0.2921
     62 H          -1.3453    1.1570    2.7515 H       1  UNL1        0.1496
     63 H           2.6693    1.5127   -0.5140 H       1  UNL1        0.0423
     64 H           2.9355    0.0859    0.4694 H       1  UNL1        0.0423
     65 H           1.7090   -1.8873   -2.3720 H       1  UNL1        0.0427
     66 H           2.8266   -0.5588   -2.6554 H       1  UNL1        0.0427
     67 H           2.0838   -4.9063   -3.4975 H       1  UNL1        0.0474
     68 H           2.7044   -5.7232   -2.0261 H       1  UNL1        0.0474
     69 H           1.8401   -4.1718   -1.8914 H       1  UNL1        0.0474
     70 OXT        -1.6490    0.1055   -3.0348 O.co2   1  UNL1       -0.2392
@<TRIPOS>BOND
     1     1     2    1
     2     1    47    1
     3     1    48    1
     4     1    49    1
     5     2     3    1
     6     2    50    1
     7     2    51    1
     8     3     9   am
     9     3     4    1
    10     4     5    1
    11     4    52    1
    12     4    53    1
    13     5     6    1
    14     5    54    1
    15     5    55    1
    16     6     7   am
    17     6    11   am
    18     7     8    2
    19     7     9    1
    20     9    10    2
    21    11    12    2
    22    11    13   am
    23    13    14    1
    24    13    56    1
    25    14    15    1
    26    14    16    1
    27    14    23    1
    28    16    21   ar
    29    16    17   ar
    30    17    18   ar
    31    17    57    1
    32    18    19   ar
    33    18    58    1
    34    19    20   ar
    35    19    22    1
    36    20    21   ar
    37    20    59    1
    38    21    60    1
    39    22    61    1
    40    23    24    2
    41    23    25   am
    42    25    62    1
    43    26    31    1
    44    26    28    1
    45    28    29    1
    46    28    36    1
    47    28    30    1
    48    30    31   am
    49    30    33    1
    50    31    32    2
    51    33    34    2
    52    33    45    1
    53    34    35    1
    54    34    37    1
    55    35    36    1
    56    35    63    1
    57    35    64    1
    58    37    38    1
    59    37    65    1
    60    37    66    1
    61    38    39    1
    62    39    43   ar
    63    39    40   ar
    64    40    41   ar
    65    41    42   ar
    66    42    43   ar
    67    43    44    1
    68    44    67    1
    69    44    68    1
    70    44    69    1
    71    45    46   ar
    72    45    70   ar
    73    26    27    1
    74    26    25    1
