@<TRIPOS>MOLECULE
ZINC00006016
 48 49 0 0 0
SMALL
GASTEIGER

@<TRIPOS>ATOM
      1 C          -1.2117    0.7495   -4.4192 C.3     1  UNL1       -0.0433
      2 N          -1.6289   -0.6395   -4.0343 N.4     1  UNL1        0.2314
      3 C          -1.3253   -1.5590   -5.1884 C.3     1  UNL1       -0.0433
      4 C          -1.0558   -1.2211   -2.7415 C.3     1  UNL1       -0.0228
      5 C          -1.2937   -0.4969   -1.3688 C.3     1  UNL1        0.0529
      6 H          -0.9347   -1.2315   -0.6303 H       1  UNL1        0.0429
      7 C          -2.8037   -0.3893   -1.1023 C.ar    1  UNL1       -0.0363
      8 C          -3.4435   -1.3884   -0.3445 C.ar    1  UNL1       -0.0546
      9 C          -4.8265   -1.3581   -0.1245 C.ar    1  UNL1       -0.0197
     10 C          -5.6067   -0.3322   -0.6513 C.ar    1  UNL1        0.1201
     11 C          -4.9961    0.6502   -1.4252 C.ar    1  UNL1       -0.0197
     12 C          -3.6105    0.6271   -1.6364 C.ar    1  UNL1       -0.0546
     13 O          -6.9445   -0.4090   -0.3931 O.3     1  UNL1       -0.4951
     14 C          -7.6345    0.8329   -0.3249 C.3     1  UNL1        0.0788
     15 C          -0.3929    0.7723   -1.0575 C.3     1  UNL1        0.0777
     16 C          -0.5445    1.3310    0.3931 C.3     1  UNL1       -0.0232
     17 C           0.4052    0.7946    1.4684 C.3     1  UNL1       -0.0504
     18 C           1.8384    0.6453    0.9839 C.3     1  UNL1       -0.0529
     19 C           1.8649   -0.2037   -0.2738 C.3     1  UNL1       -0.0504
     20 C           1.1084    0.5249   -1.3786 C.3     1  UNL1       -0.0232
     21 O          -0.7822    1.8220   -1.9556 O.3     1  UNL1       -0.3878
     22 H          -0.1364    0.8574   -4.2673 H       1  UNL1        0.0777
     23 H          -1.8122    1.4601   -3.8599 H       1  UNL1        0.0777
     24 H          -1.4605    0.9097   -5.4723 H       1  UNL1        0.0777
     25 H          -0.2423   -1.5722   -5.3552 H       1  UNL1        0.0777
     26 H          -1.6915   -2.5597   -4.9253 H       1  UNL1        0.0777
     27 H          -1.8544   -1.1957   -6.0730 H       1  UNL1        0.0777
     28 H          -1.5334   -2.2098   -2.6655 H       1  UNL1        0.0821
     29 H           0.0010   -1.4221   -2.9269 H       1  UNL1        0.0821
     30 H          -2.8793   -2.2068    0.1013 H       1  UNL1        0.0622
     31 H          -5.2973   -2.1389    0.4739 H       1  UNL1        0.0654
     32 H          -5.5816    1.4399   -1.8892 H       1  UNL1        0.0654
     33 H          -3.1937    1.4283   -2.2356 H       1  UNL1        0.0622
     34 H          -7.1275    1.5349    0.3480 H       1  UNL1        0.0660
     35 H          -7.7584    1.2746   -1.3216 H       1  UNL1        0.0660
     36 H          -8.6335    0.6458    0.0782 H       1  UNL1        0.0660
     37 H          -0.3829    2.4172    0.3651 H       1  UNL1        0.0293
     38 H          -1.5759    1.2139    0.7458 H       1  UNL1        0.0293
     39 H           0.0422   -0.1692    1.8387 H       1  UNL1        0.0266
     40 H           0.3955    1.4851    2.3228 H       1  UNL1        0.0266
     41 H           2.4572    0.1914    1.7656 H       1  UNL1        0.0265
     42 H           2.2712    1.6339    0.7744 H       1  UNL1        0.0265
     43 H           1.4309   -1.1933   -0.0783 H       1  UNL1        0.0266
     44 H           2.9022   -0.3633   -0.5864 H       1  UNL1        0.0266
     45 H           1.2437   -0.0101   -2.3175 H       1  UNL1        0.0293
     46 H           1.5960    1.4908   -1.5562 H       1  UNL1        0.0293
     47 H          -1.2203    2.5274   -1.4445 H       1  UNL1        0.2102
     48 H          -2.6515   -0.6261   -3.9152 H       1  UNL1        0.2028
@<TRIPOS>UNITY_ATOM_ATTR
2 1
charge 1
@<TRIPOS>BOND
     1     1     2    1
     2     1    22    1
     3     1    23    1
     4     1    24    1
     5     2     3    1
     6     2     4    1
     7     2    48    1
     8     3    25    1
     9     3    26    1
    10     3    27    1
    11     4    28    1
    12     4    29    1
    13     5     7    1
    14     5    15    1
    15     7    12   ar
    16     7     8   ar
    17     8     9   ar
    18     8    30    1
    19     9    10   ar
    20     9    31    1
    21    10    11   ar
    22    10    13    1
    23    11    12   ar
    24    11    32    1
    25    12    33    1
    26    13    14    1
    27    14    34    1
    28    14    35    1
    29    14    36    1
    30    15    20    1
    31    15    16    1
    32    15    21    1
    33    16    17    1
    34    16    37    1
    35    16    38    1
    36    17    18    1
    37    17    39    1
    38    17    40    1
    39    18    19    1
    40    18    41    1
    41    18    42    1
    42    19    20    1
    43    19    43    1
    44    19    44    1
    45    20    45    1
    46    20    46    1
    47    21    47    1
    48     5     6    1
    49     5     4    1
