@<TRIPOS>MOLECULE
ZINC00896968
 51 53 0 0 0
SMALL
GASTEIGER

@<TRIPOS>ATOM
      1 C          -3.6029   -1.1849   -7.4715 C.3     1  UNL1       -0.0414
      2 N          -2.1464   -1.3870   -7.0203 N.4     1  UNL1        0.2417
      3 C          -1.4811   -2.4961   -7.8325 C.3     1  UNL1       -0.0269
      4 C          -1.9770   -3.7614   -7.1687 C.3     1  UNL1        0.0298
      5 C          -1.8418   -3.4533   -5.6827 C.3     1  UNL1        0.1473
      6 H          -2.5841   -3.9822   -5.0719 H       1  UNL1        0.0790
      7 C          -2.0700   -1.9285   -5.5620 C.3     1  UNL1        0.0076
      8 O          -0.5135   -3.7969   -5.2306 O.3     1  UNL1       -0.4535
      9 C          -0.3262   -5.1432   -5.0100 C.2     1  UNL1        0.3445
     10 O          -1.1830   -5.9824   -5.2559 O.2     1  UNL1       -0.2472
     11 C           1.1006   -5.4912   -4.5031 C.3     1  UNL1        0.1902
     12 C           1.3487   -4.7877   -3.1602 C.ar    1  UNL1       -0.0051
     13 C           0.8336   -5.3485   -1.9745 C.ar    1  UNL1       -0.0553
     14 C           1.0459   -4.7386   -0.7315 C.ar    1  UNL1       -0.0614
     15 C           1.7726   -3.5546   -0.6537 C.ar    1  UNL1       -0.0617
     16 C           2.2781   -2.9764   -1.8107 C.ar    1  UNL1       -0.0614
     17 C           2.0590   -3.5817   -3.0539 C.ar    1  UNL1       -0.0553
     18 C           2.1445   -5.1692   -5.6107 C.3     1  UNL1        0.0026
     19 C           3.5627   -5.6719   -5.2977 C.3     1  UNL1       -0.0467
     20 C           4.2647   -5.5752   -6.6399 C.3     1  UNL1       -0.0527
     21 C           3.2223   -6.0689   -7.6329 C.3     1  UNL1       -0.0527
     22 C           1.8593   -5.7909   -6.9938 C.3     1  UNL1       -0.0467
     23 O           1.1743   -6.9055   -4.2464 O.3     1  UNL1       -0.3730
     24 C          -1.3885   -0.0807   -7.1659 C.3     1  UNL1       -0.0414
     25 H          -3.7200   -1.5748   -8.4865 H       1  UNL1        0.0778
     26 H          -3.8344   -0.1166   -7.4619 H       1  UNL1        0.0778
     27 H          -4.2724   -1.7194   -6.7923 H       1  UNL1        0.0778
     28 H          -0.3949   -2.3865   -7.7243 H       1  UNL1        0.0816
     29 H          -1.7564   -2.4021   -8.8868 H       1  UNL1        0.0816
     30 H          -3.0273   -3.9410   -7.4252 H       1  UNL1        0.0355
     31 H          -1.3905   -4.6228   -7.4984 H       1  UNL1        0.0355
     32 H          -3.0084   -1.6771   -5.0594 H       1  UNL1        0.0852
     33 H          -1.2373   -1.4282   -5.0560 H       1  UNL1        0.0852
     34 H           0.2811   -6.2864   -2.0017 H       1  UNL1        0.0621
     35 H           0.6616   -5.2033    0.1711 H       1  UNL1        0.0618
     36 H           1.9580   -3.0941    0.3137 H       1  UNL1        0.0618
     37 H           2.8589   -2.0600   -1.7492 H       1  UNL1        0.0618
     38 H           2.4861   -3.0920   -3.9227 H       1  UNL1        0.0621
     39 H           2.1846   -4.0842   -5.7774 H       1  UNL1        0.0337
     40 H           4.0687   -5.0685   -4.5388 H       1  UNL1        0.0269
     41 H           3.5596   -6.7136   -4.9573 H       1  UNL1        0.0269
     42 H           5.1834   -6.1684   -6.6726 H       1  UNL1        0.0265
     43 H           4.5258   -4.5323   -6.8539 H       1  UNL1        0.0265
     44 H           3.3382   -7.1464   -7.7958 H       1  UNL1        0.0265
     45 H           3.3294   -5.5761   -8.6040 H       1  UNL1        0.0265
     46 H           1.2854   -6.7214   -6.9348 H       1  UNL1        0.0269
     47 H           1.2782   -5.0955   -7.6104 H       1  UNL1        0.0269
     48 H           0.7561   -7.3732   -4.9916 H       1  UNL1        0.2113
     49 H          -1.4217    0.2164   -8.2185 H       1  UNL1        0.0778
     50 H          -1.8737    0.6686   -6.5349 H       1  UNL1        0.0778
     51 H          -0.3541   -0.2341   -6.8441 H       1  UNL1        0.0778
@<TRIPOS>UNITY_ATOM_ATTR
2 1
charge 1
@<TRIPOS>BOND
     1     1     2    1
     2     1    25    1
     3     1    26    1
     4     1    27    1
     5     2     7    1
     6     2     3    1
     7     2    24    1
     8     3     4    1
     9     3    28    1
    10     3    29    1
    11     4     5    1
    12     4    30    1
    13     4    31    1
    14     5     6    1
    15     5     7    1
    16     5     8    1
    17     7    32    1
    18     7    33    1
    19     8     9    1
    20     9    10    2
    21    11    18    1
    22    11    23    1
    23    12    17   ar
    24    12    13   ar
    25    13    14   ar
    26    13    34    1
    27    14    15   ar
    28    14    35    1
    29    15    16   ar
    30    15    36    1
    31    16    17   ar
    32    16    37    1
    33    17    38    1
    34    18    22    1
    35    18    19    1
    36    18    39    1
    37    19    20    1
    38    19    40    1
    39    19    41    1
    40    20    21    1
    41    20    42    1
    42    20    43    1
    43    21    22    1
    44    21    44    1
    45    21    45    1
    46    22    46    1
    47    22    47    1
    48    23    48    1
    49    24    49    1
    50    24    50    1
    51    24    51    1
    52    11    12    1
    53    11     9    1
