@<TRIPOS>MOLECULE
ZINC01853550
 38 40 0 0 0
SMALL
GASTEIGER

@<TRIPOS>ATOM
      1 C           2.2114   -0.6058    3.8999 C.3     1  UNL1       -0.0443
      2 N           2.2645    0.5320    2.9426 N.4     1  UNL1        0.2303
      3 C           0.9824    0.8884    2.2223 C.3     1  UNL1        0.0032
      4 H           0.6875   -0.0067    1.6582 H       1  UNL1        0.0903
      5 C          -0.0858    1.1934    3.2886 C.3     1  UNL1       -0.0045
      6 C          -1.1487    2.1744    2.8148 C.3     1  UNL1       -0.0367
      7 C          -0.5197    3.5050    2.3626 C.3     1  UNL1        0.0099
      8 H          -1.3276    4.0790    1.8821 H       1  UNL1        0.0397
      9 C           0.5226    3.2308    1.2896 C.ar    1  UNL1       -0.0315
     10 C           1.2269    2.0090    1.2246 C.ar    1  UNL1        0.0038
     11 C           2.1717    1.8394    0.1909 C.ar    1  UNL1       -0.0530
     12 C           2.4616    2.8778   -0.6969 C.ar    1  UNL1       -0.0613
     13 C           1.7992    4.0949   -0.5908 C.ar    1  UNL1       -0.0615
     14 C           0.8206    4.2627    0.3812 C.ar    1  UNL1       -0.0575
     15 C          -0.0014    4.3720    3.5150 C.ar    1  UNL1       -0.0385
     16 C          -0.9108    4.8981    4.4436 C.ar    1  UNL1       -0.0565
     17 C          -0.4871    5.7676    5.4552 C.ar    1  UNL1       -0.0417
     18 C           0.8556    6.1389    5.5563 C.ar    1  UNL1        0.0593
     19 C           1.7734    5.6206    4.6493 C.ar    1  UNL1        0.0595
     20 C           1.3514    4.7437    3.6441 C.ar    1  UNL1       -0.0382
     21 CL          3.4562    6.0285    4.6855 Cl      1  UNL1       -0.0820
     22 CL          1.3037    7.2334    6.8103 Cl      1  UNL1       -0.0820
     23 H           1.5766   -0.3289    4.7458 H       1  UNL1        0.0777
     24 H           3.2296   -0.7856    4.2482 H       1  UNL1        0.0777
     25 H           1.8204   -1.4816    3.3779 H       1  UNL1        0.0777
     26 H           2.6041    1.3753    3.4253 H       1  UNL1        0.2017
     27 H           0.3723    1.5986    4.1991 H       1  UNL1        0.0324
     28 H          -0.5718    0.2548    3.5827 H       1  UNL1        0.0324
     29 H          -1.6995    1.7235    1.9780 H       1  UNL1        0.0276
     30 H          -1.8796    2.3325    3.6167 H       1  UNL1        0.0276
     31 H           2.6967    0.8967    0.0501 H       1  UNL1        0.0622
     32 H           3.2068    2.7417   -1.4793 H       1  UNL1        0.0618
     33 H           2.0368    4.9111   -1.2708 H       1  UNL1        0.0618
     34 H           0.3067    5.2211    0.4468 H       1  UNL1        0.0621
     35 H          -1.9735    4.6650    4.3763 H       1  UNL1        0.0621
     36 H          -1.2181    6.1755    6.1520 H       1  UNL1        0.0633
     37 H           2.0969    4.3945    2.9344 H       1  UNL1        0.0635
     38 H           2.9830    0.3235    2.2396 H       1  UNL1        0.2017
@<TRIPOS>UNITY_ATOM_ATTR
2 1
charge 1
@<TRIPOS>BOND
     1     1     2    1
     2     1    23    1
     3     1    24    1
     4     1    25    1
     5     2    26    1
     6     2    38    1
     7     3    10    1
     8     3     5    1
     9     5     6    1
    10     5    27    1
    11     5    28    1
    12     6     7    1
    13     6    29    1
    14     6    30    1
    15     7     8    1
    16     7     9    1
    17     7    15    1
    18     9    14   ar
    19     9    10   ar
    20    10    11   ar
    21    11    12   ar
    22    11    31    1
    23    12    13   ar
    24    12    32    1
    25    13    14   ar
    26    13    33    1
    27    14    34    1
    28    15    20   ar
    29    15    16   ar
    30    16    17   ar
    31    16    35    1
    32    17    18   ar
    33    17    36    1
    34    18    19   ar
    35    18    22    1
    36    19    20   ar
    37    19    21    1
    38    20    37    1
    39     3     4    1
    40     3     2    1
