@<TRIPOS>MOLECULE
ZINC01530579
 57 60 0 0 0
SMALL
GASTEIGER

@<TRIPOS>ATOM
      1 C           0.1828    3.6556    4.5355 C.3     1  UNL1        0.0790
      2 O           0.2783    2.2292    4.4131 O.3     1  UNL1       -0.4915
      3 C           0.6457    1.5373    5.5357 C.ar    1  UNL1        0.1615
      4 C           0.4178    2.0310    6.8321 C.ar    1  UNL1       -0.0163
      5 C           0.7829    1.3124    7.9904 C.ar    1  UNL1       -0.0581
      6 C           1.3696    0.0754    7.8347 C.ar    1  UNL1       -0.0581
      7 C           1.6080   -0.4228    6.5351 C.ar    1  UNL1       -0.0163
      8 C           1.2350    0.2751    5.3800 C.ar    1  UNL1        0.1622
      9 O           1.5063   -0.4004    4.2102 O.3     1  UNL1       -0.4830
     10 C           1.1485    0.0935    2.8943 C.3     1  UNL1        0.1292
     11 C          -0.2963   -0.3058    2.5394 C.3     1  UNL1        0.0014
     12 N          -1.0092    0.4583    1.4416 N.4     1  UNL1        0.2313
     13 C          -0.6064    0.5534   -0.0414 C.3     1  UNL1       -0.0037
     14 C          -0.9452   -0.6798   -0.9225 C.3     1  UNL1        0.1285
     15 H          -1.9797   -0.9932   -0.7172 H       1  UNL1        0.0681
     16 C          -0.8560   -0.4195   -2.4926 C.3     1  UNL1        0.1204
     17 O           0.3856    0.1683   -2.9197 O.3     1  UNL1       -0.4885
     18 C           0.4066    0.8470   -4.1964 C.ar    1  UNL1        0.1303
     19 C           1.4135    1.8332   -4.1311 C.ar    1  UNL1       -0.0192
     20 C           1.1230    3.1534   -4.4800 C.ar    1  UNL1       -0.0563
     21 C          -0.2047    3.5392   -4.7345 C.ar    1  UNL1       -0.0375
     22 C          -1.1472    2.4967   -4.8312 C.ar    1  UNL1        0.0510
     23 C          -0.7330    1.1661   -4.9889 C.ar    1  UNL1        0.0490
     24 C          -1.1425    1.1068   -6.4171 C.ar    1  UNL1        0.0109
     25 C          -0.6234    0.6871   -7.6652 C.ar    1  UNL1       -0.0519
     26 C          -1.3949    0.8840   -8.8449 C.ar    1  UNL1       -0.0611
     27 C          -2.6877    1.4135   -8.7973 C.ar    1  UNL1       -0.0598
     28 C          -3.2102    1.8733   -7.5856 C.ar    1  UNL1       -0.0378
     29 C          -2.3790    1.7767   -6.4690 C.ar    1  UNL1        0.0476
     30 N          -2.4635    2.3832   -5.2360 N.ar    1  UNL1       -0.3540
     31 H          -3.2560    2.8831   -4.8663 H       1  UNL1        0.1659
     32 O          -0.1172   -1.7630   -0.4912 O.3     1  UNL1       -0.3831
     33 H           0.1692    4.0704    3.5218 H       1  UNL1        0.0660
     34 H           1.0520    4.0870    5.0546 H       1  UNL1        0.0660
     35 H          -0.7509    3.9257    5.0243 H       1  UNL1        0.0660
     36 H          -0.0340    3.0026    7.0077 H       1  UNL1        0.0655
     37 H           0.5859    1.7332    8.9774 H       1  UNL1        0.0619
     38 H           1.6642   -0.5001    8.7112 H       1  UNL1        0.0619
     39 H           2.0781   -1.4045    6.4604 H       1  UNL1        0.0655
     40 H           1.3834    1.1413    2.7773 H       1  UNL1        0.0751
     41 H           1.8201   -0.4399    2.2045 H       1  UNL1        0.0751
     42 H          -0.3924   -1.3802    2.3348 H       1  UNL1        0.0847
     43 H          -0.9157   -0.1173    3.4278 H       1  UNL1        0.0847
     44 H          -1.9828    0.1330    1.4736 H       1  UNL1        0.2016
     45 H          -1.2127    1.3893   -0.4072 H       1  UNL1        0.0840
     46 H           0.4504    0.8220   -0.0627 H       1  UNL1        0.0840
     47 H          -0.9572   -1.3767   -3.0180 H       1  UNL1        0.0725
     48 H          -1.6992    0.2267   -2.7612 H       1  UNL1        0.0725
     49 H           2.3551    1.6147   -3.6343 H       1  UNL1        0.0654
     50 H           1.9130    3.9020   -4.4575 H       1  UNL1        0.0619
     51 H          -0.4447    4.5633   -5.0048 H       1  UNL1        0.0638
     52 H           0.3885    0.3086   -7.7662 H       1  UNL1        0.0624
     53 H          -0.9690    0.6413   -9.8177 H       1  UNL1        0.0618
     54 H          -3.2650    1.5382   -9.7160 H       1  UNL1        0.0618
     55 H          -4.1789    2.3638   -7.5548 H       1  UNL1        0.0638
     56 H          -0.3459   -2.5551   -1.0156 H       1  UNL1        0.2102
     57 H          -1.0435    1.4244    1.7916 H       1  UNL1        0.2016
@<TRIPOS>UNITY_ATOM_ATTR
12 1
charge 1
@<TRIPOS>BOND
     1     1     2    1
     2     1    33    1
     3     1    34    1
     4     1    35    1
     5     2     3    1
     6     3     8   ar
     7     3     4   ar
     8     4     5   ar
     9     4    36    1
    10     5     6   ar
    11     5    37    1
    12     6     7   ar
    13     6    38    1
    14     7     8   ar
    15     7    39    1
    16     8     9    1
    17     9    10    1
    18    10    11    1
    19    10    40    1
    20    10    41    1
    21    11    12    1
    22    11    42    1
    23    11    43    1
    24    12    13    1
    25    12    44    1
    26    12    57    1
    27    13    14    1
    28    13    45    1
    29    13    46    1
    30    14    15    1
    31    14    16    1
    32    14    32    1
    33    16    17    1
    34    16    47    1
    35    16    48    1
    36    17    18    1
    37    18    23   ar
    38    18    19   ar
    39    19    20   ar
    40    19    49    1
    41    20    21   ar
    42    20    50    1
    43    21    22   ar
    44    21    51    1
    45    22    30   ar
    46    22    23   ar
    47    23    24   ar
    48    24    29   ar
    49    24    25   ar
    50    25    26   ar
    51    25    52    1
    52    26    27   ar
    53    26    53    1
    54    27    28   ar
    55    27    54    1
    56    28    29   ar
    57    28    55    1
    58    29    30   ar
    59    30    31    1
    60    32    56    1
