@<TRIPOS>MOLECULE
ZINC00002176
 46 47 0 0 0
SMALL
GASTEIGER

@<TRIPOS>ATOM
      1 C           4.1374    3.4188    2.9629 C.3     1  UNL1       -0.0193
      2 C           2.9485    3.4177    3.9311 C.3     1  UNL1       -0.0203
      3 C           3.3094    2.7278    5.2431 C.3     1  UNL1       -0.0193
      4 C           2.5669    4.8907    4.2158 C.3     1  UNL1       -0.0193
      5 N           1.6951    2.8000    3.3125 N.4     1  UNL1        0.2327
      6 C           1.5652    1.4410    2.6791 C.3     1  UNL1       -0.0033
      7 C           1.2992    0.1766    3.5328 C.3     1  UNL1        0.1285
      8 H           2.2043   -0.0468    4.1088 H       1  UNL1        0.0681
      9 C           0.0947    0.1569    4.5027 C.3     1  UNL1        0.1221
     10 O          -1.1874    0.3864    3.8750 O.3     1  UNL1       -0.4708
     11 C          -2.2080    0.5237    4.7941 C.ar    1  UNL1        0.2652
     12 C          -3.6357    0.1309    4.6671 C.ar    1  UNL1        0.1942
     13 N          -4.3422    0.5171    5.7443 N.ar    1  UNL1       -0.1717
     14 S          -3.3029    1.2607    6.7901 S.2     1  UNL1        0.1206
     15 N          -1.8941    1.1971    5.9052 N.ar    1  UNL1       -0.1530
     16 N          -4.2565   -0.5604    3.6457 N.pl3   1  UNL1       -0.3060
     17 C          -5.7342   -0.3629    3.4964 C.3     1  UNL1        0.0372
     18 C          -6.3874   -1.3954    2.5634 C.3     1  UNL1        0.0634
     19 O          -5.6834   -1.5116    1.3258 O.3     1  UNL1       -0.3767
     20 C          -4.3277   -1.9139    1.5844 C.3     1  UNL1        0.0634
     21 C          -3.5603   -0.8703    2.3965 C.3     1  UNL1        0.0372
     22 O           1.1551   -0.8957    2.5834 O.3     1  UNL1       -0.3831
     23 H           4.9721    3.9974    3.3907 H       1  UNL1        0.0287
     24 H           3.8884    3.8895    2.0089 H       1  UNL1        0.0287
     25 H           4.5204    2.4141    2.7736 H       1  UNL1        0.0287
     26 H           4.1870    3.2040    5.6970 H       1  UNL1        0.0287
     27 H           2.4946    2.8008    5.9729 H       1  UNL1        0.0287
     28 H           3.5518    1.6733    5.0978 H       1  UNL1        0.0287
     29 H           2.1426    5.3730    3.3257 H       1  UNL1        0.0287
     30 H           1.8210    4.9634    5.0165 H       1  UNL1        0.0287
     31 H           3.4372    5.4823    4.5194 H       1  UNL1        0.0287
     32 H           0.8953    2.9376    3.9440 H       1  UNL1        0.2020
     33 H           0.7173    1.5463    1.9871 H       1  UNL1        0.0841
     34 H           2.4460    1.2934    2.0465 H       1  UNL1        0.0841
     35 H           0.0476   -0.8372    4.9694 H       1  UNL1        0.0725
     36 H           0.3085    0.8983    5.2780 H       1  UNL1        0.0725
     37 H          -5.9117    0.6417    3.0921 H       1  UNL1        0.0487
     38 H          -6.2469   -0.4332    4.4625 H       1  UNL1        0.0487
     39 H          -6.4401   -2.3814    3.0400 H       1  UNL1        0.0575
     40 H          -7.4141   -1.0905    2.3363 H       1  UNL1        0.0575
     41 H          -3.8413   -2.0674    0.6176 H       1  UNL1        0.0575
     42 H          -4.3451   -2.8919    2.0970 H       1  UNL1        0.0575
     43 H          -3.4611    0.0489    1.8040 H       1  UNL1        0.0487
     44 H          -2.5675   -1.2781    2.5932 H       1  UNL1        0.0487
     45 H           1.1329   -1.7492    3.0538 H       1  UNL1        0.2102
     46 H           1.4917    3.4219    2.5203 H       1  UNL1        0.2020
@<TRIPOS>UNITY_ATOM_ATTR
5 1
charge 1
@<TRIPOS>BOND
     1     1     2    1
     2     1    23    1
     3     1    24    1
     4     1    25    1
     5     2     3    1
     6     2     4    1
     7     2     5    1
     8     3    26    1
     9     3    27    1
    10     3    28    1
    11     4    29    1
    12     4    30    1
    13     4    31    1
    14     5     6    1
    15     5    32    1
    16     5    46    1
    17     6     7    1
    18     6    33    1
    19     6    34    1
    20     7     8    1
    21     7     9    1
    22     7    22    1
    23     9    10    1
    24     9    35    1
    25     9    36    1
    26    10    11    1
    27    11    15   ar
    28    11    12   ar
    29    12    13   ar
    30    12    16    1
    31    13    14   ar
    32    14    15   ar
    33    16    21    1
    34    16    17    1
    35    17    18    1
    36    17    37    1
    37    17    38    1
    38    18    19    1
    39    18    39    1
    40    18    40    1
    41    19    20    1
    42    20    21    1
    43    20    41    1
    44    20    42    1
    45    21    43    1
    46    21    44    1
    47    22    45    1
