@<TRIPOS>MOLECULE
ZINC02021931
 56 56 0 0 0
SMALL
GASTEIGER

@<TRIPOS>ATOM
      1 C           3.9064   -3.5678   -0.4994 C.3     1  UNL1       -0.0193
      2 C           2.5883   -3.1544    0.1575 C.3     1  UNL1       -0.0203
      3 C           1.5558   -4.2829    0.0608 C.3     1  UNL1       -0.0193
      4 C           2.8284   -2.7851    1.6270 C.3     1  UNL1       -0.0193
      5 N           2.0373   -1.9114   -0.4975 N.4     1  UNL1        0.2328
      6 C           1.6149   -1.9781   -1.9446 C.3     1  UNL1       -0.0023
      7 C           1.0168   -0.6092   -2.3522 C.3     1  UNL1        0.1199
      8 H           0.1598   -0.3971   -1.7004 H       1  UNL1        0.0698
      9 C           0.5073   -0.5366   -3.7774 C.ar    1  UNL1       -0.0071
     10 C           0.3128    0.6947   -4.4246 C.ar    1  UNL1       -0.0131
     11 C          -0.2765    0.7481   -5.6934 C.ar    1  UNL1        0.1371
     12 C          -0.6985   -0.4175   -6.3352 C.ar    1  UNL1        0.0233
     13 C          -0.5001   -1.6413   -5.7124 C.ar    1  UNL1        0.1371
     14 C           0.0641   -1.6958   -4.4406 C.ar    1  UNL1       -0.0131
     15 O          -0.9896   -2.7906   -6.3776 O.3     1  UNL1       -0.4113
     16 C          -0.4416   -4.0704   -6.1929 C.2     1  UNL1        0.4077
     17 O           0.5366   -4.3016   -5.4864 O.2     1  UNL1       -0.2258
     18 N          -1.1291   -5.0634   -6.8747 N.am    1  UNL1       -0.2732
     19 C          -2.3040   -4.8288   -7.6957 C.3     1  UNL1        0.0060
     20 C          -0.6321   -6.4243   -6.7938 C.3     1  UNL1        0.0060
     21 O          -0.4973    2.0547   -6.1956 O.3     1  UNL1       -0.4113
     22 C          -0.5371    2.3428   -7.5624 C.2     1  UNL1        0.4077
     23 O          -0.3301    1.5153   -8.4417 O.2     1  UNL1       -0.2258
     24 N          -0.8342    3.6721   -7.8291 N.am    1  UNL1       -0.2732
     25 C          -1.0413    4.6954   -6.8183 C.3     1  UNL1        0.0060
     26 C          -0.9776    4.0610   -9.2177 C.3     1  UNL1        0.0060
     27 O           2.0253    0.3595   -2.0278 O.3     1  UNL1       -0.3819
     28 H           4.2831   -4.4920   -0.0441 H       1  UNL1        0.0287
     29 H           4.6791   -2.8019   -0.3742 H       1  UNL1        0.0287
     30 H           3.7929   -3.7667   -1.5696 H       1  UNL1        0.0287
     31 H           1.9047   -5.1762    0.5905 H       1  UNL1        0.0287
     32 H           0.5959   -3.9874    0.4983 H       1  UNL1        0.0287
     33 H           1.3767   -4.5863   -0.9762 H       1  UNL1        0.0287
     34 H           3.5378   -1.9540    1.7164 H       1  UNL1        0.0287
     35 H           1.8974   -2.4791    2.1184 H       1  UNL1        0.0287
     36 H           3.2366   -3.6338    2.1860 H       1  UNL1        0.0287
     37 H           1.2273   -1.5854    0.0464 H       1  UNL1        0.2020
     38 H           2.5137   -2.1966   -2.5294 H       1  UNL1        0.0843
     39 H           0.8844   -2.7820   -2.0303 H       1  UNL1        0.0843
     40 H           0.5780    1.6327   -3.9403 H       1  UNL1        0.0658
     41 H          -1.2019   -0.3805   -7.3001 H       1  UNL1        0.0691
     42 H           0.1121   -2.6648   -3.9590 H       1  UNL1        0.0658
     43 H          -2.0665   -5.1005   -8.7283 H       1  UNL1        0.0429
     44 H          -3.1175   -5.4627   -7.3310 H       1  UNL1        0.0429
     45 H          -2.6321   -3.7874   -7.6691 H       1  UNL1        0.0429
     46 H           0.4123   -6.4465   -7.1201 H       1  UNL1        0.0429
     47 H          -0.6839   -6.7626   -5.7542 H       1  UNL1        0.0429
     48 H          -1.2242   -7.0937   -7.4246 H       1  UNL1        0.0429
     49 H          -0.3010    5.4885   -6.9742 H       1  UNL1        0.0429
     50 H          -2.0453    5.1110   -6.9355 H       1  UNL1        0.0429
     51 H          -0.9309    4.3112   -5.8032 H       1  UNL1        0.0429
     52 H          -0.0674    3.7956   -9.7642 H       1  UNL1        0.0429
     53 H          -1.8220    3.5133   -9.6505 H       1  UNL1        0.0429
     54 H          -1.1539    5.1365   -9.3046 H       1  UNL1        0.0429
     55 H           2.2995    0.8167   -2.8454 H       1  UNL1        0.2105
     56 H           2.7085   -1.1256   -0.4385 H       1  UNL1        0.2020
@<TRIPOS>UNITY_ATOM_ATTR
5 1
charge 1
@<TRIPOS>BOND
     1     1     2    1
     2     1    28    1
     3     1    29    1
     4     1    30    1
     5     2     3    1
     6     2     4    1
     7     2     5    1
     8     3    31    1
     9     3    32    1
    10     3    33    1
    11     4    34    1
    12     4    35    1
    13     4    36    1
    14     5     6    1
    15     5    37    1
    16     5    56    1
    17     6    38    1
    18     6    39    1
    19     7     9    1
    20     7    27    1
    21     9    14   ar
    22     9    10   ar
    23    10    11   ar
    24    10    40    1
    25    11    12   ar
    26    11    21    1
    27    12    13   ar
    28    12    41    1
    29    13    14   ar
    30    13    15    1
    31    14    42    1
    32    15    16    1
    33    16    17    2
    34    16    18   am
    35    18    19    1
    36    18    20    1
    37    19    43    1
    38    19    44    1
    39    19    45    1
    40    20    46    1
    41    20    47    1
    42    20    48    1
    43    21    22    1
    44    22    23    2
    45    22    24   am
    46    24    25    1
    47    24    26    1
    48    25    49    1
    49    25    50    1
    50    25    51    1
    51    26    52    1
    52    26    53    1
    53    26    54    1
    54    27    55    1
    55     7     8    1
    56     7     6    1
