@<TRIPOS>MOLECULE
ZINC00001982
 37 37 0 0 0
SMALL
GASTEIGER

@<TRIPOS>ATOM
      1 C          -1.0699   -0.5096   -3.3458 C.3     1  UNL1       -0.0641
      2 C           0.4492   -0.5380   -3.2685 C.3     1  UNL1       -0.0414
      3 C           0.9909   -0.8872   -1.8770 C.3     1  UNL1        0.0203
      4 N           0.5836   -2.2355   -1.4033 N.3     1  UNL1       -0.1766
      5 C           0.9905   -3.3948   -2.2477 C.3     1  UNL1        0.0203
      6 C           2.4743   -3.4904   -2.6101 C.3     1  UNL1       -0.0414
      7 C           3.4175   -3.7560   -1.4486 C.3     1  UNL1       -0.0641
      8 S           0.6832   -2.4801    0.2966 S.O2    1  UNL1        0.0609
      9 O           0.4025   -3.8731    0.5731 O.2     1  UNL1       -0.1528
     10 O           1.9198   -1.8692    0.7427 O.2     1  UNL1       -0.1528
     11 C          -0.6664   -1.5415    0.9753 C.ar    1  UNL1        0.1055
     12 C          -1.9805   -1.9193    0.6900 C.ar    1  UNL1       -0.0346
     13 C          -3.0384   -1.2619    1.3250 C.ar    1  UNL1       -0.0458
     14 C          -2.8043   -0.2291    2.2525 C.ar    1  UNL1        0.0633
     15 C          -1.4742    0.1314    2.5243 C.ar    1  UNL1       -0.0458
     16 C          -0.4077   -0.5175    1.8932 C.ar    1  UNL1       -0.0346
     17 C          -3.9558    0.4658    2.9552 C.2     1  UNL1        0.3865
     18 O          -3.6623    1.3769    3.7915 O.co2   1  UNL1       -0.2406
     19 O          -5.1326    0.0887    2.6497 O.co2   1  UNL1       -0.2406
     20 H          -1.4798   -1.5220   -3.4072 H       1  UNL1        0.0230
     21 H          -1.3880    0.0331   -4.2423 H       1  UNL1        0.0230
     22 H          -1.5065   -0.0094   -2.4764 H       1  UNL1        0.0230
     23 H           0.8382   -1.2213   -4.0311 H       1  UNL1        0.0275
     24 H           0.8259    0.4582   -3.5328 H       1  UNL1        0.0275
     25 H           2.0819   -0.8184   -1.8932 H       1  UNL1        0.0444
     26 H           0.6324   -0.1249   -1.1763 H       1  UNL1        0.0444
     27 H           0.6598   -4.3339   -1.7910 H       1  UNL1        0.0444
     28 H           0.4135   -3.3381   -3.1796 H       1  UNL1        0.0444
     29 H           2.5845   -4.3248   -3.3156 H       1  UNL1        0.0275
     30 H           2.8072   -2.5974   -3.1488 H       1  UNL1        0.0275
     31 H           3.0758   -4.5953   -0.8356 H       1  UNL1        0.0230
     32 H           4.4160   -4.0004   -1.8269 H       1  UNL1        0.0230
     33 H           3.5301   -2.8737   -0.8171 H       1  UNL1        0.0230
     34 H          -2.1880   -2.7391    0.0076 H       1  UNL1        0.0637
     35 H          -4.0668   -1.5643    1.1269 H       1  UNL1        0.0626
     36 H          -1.2795    0.9131    3.2589 H       1  UNL1        0.0626
     37 H           0.6089   -0.2381    2.1554 H       1  UNL1        0.0637
@<TRIPOS>BOND
     1     1     2    1
     2     1    20    1
     3     1    21    1
     4     1    22    1
     5     2     3    1
     6     2    23    1
     7     2    24    1
     8     3     4    1
     9     3    25    1
    10     3    26    1
    11     4     5    1
    12     4     8    1
    13     5     6    1
    14     5    27    1
    15     5    28    1
    16     6     7    1
    17     6    29    1
    18     6    30    1
    19     7    31    1
    20     7    32    1
    21     7    33    1
    22     8     9    2
    23     8    10    2
    24     8    11    1
    25    11    16   ar
    26    11    12   ar
    27    12    13   ar
    28    12    34    1
    29    13    14   ar
    30    13    35    1
    31    14    15   ar
    32    14    17    1
    33    15    16   ar
    34    15    36    1
    35    16    37    1
    36    17    18   ar
    37    17    19   ar
