@<TRIPOS>MOLECULE
ZINC01530932
 51 53 0 0 0
SMALL
GASTEIGER

@<TRIPOS>ATOM
      1 C           5.0556   -6.5189   -0.6393 C.3     1  UNL1       -0.0244
      2 C           5.8562   -5.3013   -0.2011 C.3     1  UNL1       -0.0331
      3 N           5.1399   -3.9374   -0.4255 N.4     1  UNL1        0.2432
      4 C           6.0533   -2.8653    0.1816 C.3     1  UNL1       -0.0412
      5 C           4.8845   -3.6466   -1.9176 C.3     1  UNL1       -0.0331
      6 C           6.1465   -3.4950   -2.7515 C.3     1  UNL1       -0.0244
      7 C           3.7775   -3.9651    0.3443 C.3     1  UNL1        0.0047
      8 C           2.9798   -2.6440    0.3862 C.3     1  UNL1        0.1321
      9 O           2.4230   -2.1780   -0.8565 O.3     1  UNL1       -0.4586
     10 C           1.3413   -2.8738   -1.3198 C.2     1  UNL1        0.3194
     11 O           1.1520   -4.0553   -1.0531 O.2     1  UNL1       -0.2498
     12 C           0.3525   -1.9869   -2.0813 C.3     1  UNL1        0.1131
     13 C           0.9210   -1.4547   -3.3791 C.ar    1  UNL1        0.0131
     14 C           1.4338   -2.3155   -4.3642 C.ar    1  UNL1       -0.0540
     15 C           1.9187   -1.8053   -5.5731 C.ar    1  UNL1       -0.0612
     16 C           1.8854   -0.4371   -5.8198 C.ar    1  UNL1       -0.0583
     17 C           1.3555    0.4252   -4.8618 C.ar    1  UNL1       -0.0190
     18 C           0.8781   -0.0807   -3.6521 C.ar    1  UNL1        0.1327
     19 O           0.3630    0.8518   -2.7869 O.3     1  UNL1       -0.4554
     20 C          -0.0966    0.4422   -1.5633 C.ar    1  UNL1        0.1327
     21 C          -0.1521   -0.8930   -1.1613 C.ar    1  UNL1        0.0131
     22 C          -0.6539   -1.1950    0.1182 C.ar    1  UNL1       -0.0540
     23 C          -1.0335   -0.1745    0.9907 C.ar    1  UNL1       -0.0612
     24 C          -0.9588    1.1540    0.5817 C.ar    1  UNL1       -0.0583
     25 C          -0.5075    1.4602   -0.7003 C.ar    1  UNL1       -0.0190
     26 H           4.1632   -6.6672   -0.0243 H       1  UNL1        0.0281
     27 H           5.6689   -7.4183   -0.5133 H       1  UNL1        0.0281
     28 H           4.7579   -6.4738   -1.6889 H       1  UNL1        0.0281
     29 H           6.0697   -5.3721    0.8726 H       1  UNL1        0.0812
     30 H           6.8135   -5.2638   -0.7291 H       1  UNL1        0.0812
     31 H           7.0554   -2.9758   -0.2436 H       1  UNL1        0.0778
     32 H           5.6502   -1.8784   -0.0544 H       1  UNL1        0.0778
     33 H           6.0992   -3.0238    1.2636 H       1  UNL1        0.0778
     34 H           4.2424   -4.4414   -2.3062 H       1  UNL1        0.0812
     35 H           4.3447   -2.7013   -1.9785 H       1  UNL1        0.0812
     36 H           6.8056   -4.3627   -2.6943 H       1  UNL1        0.0281
     37 H           5.8674   -3.3614   -3.8023 H       1  UNL1        0.0281
     38 H           6.7099   -2.6020   -2.4623 H       1  UNL1        0.0281
     39 H           3.1861   -4.7612   -0.1071 H       1  UNL1        0.0849
     40 H           4.0263   -4.2520    1.3734 H       1  UNL1        0.0849
     41 H           2.1519   -2.7623    1.0975 H       1  UNL1        0.0752
     42 H           3.5920   -1.8299    0.7831 H       1  UNL1        0.0752
     43 H          -0.5155   -2.6082   -2.3442 H       1  UNL1        0.0514
     44 H           1.4334   -3.3945   -4.2179 H       1  UNL1        0.0622
     45 H           2.3072   -2.4766   -6.3365 H       1  UNL1        0.0618
     46 H           2.2496   -0.0340   -6.7631 H       1  UNL1        0.0619
     47 H           1.3014    1.4941   -5.0601 H       1  UNL1        0.0654
     48 H          -0.7381   -2.2267    0.4557 H       1  UNL1        0.0622
     49 H          -1.3911   -0.4137    1.9895 H       1  UNL1        0.0618
     50 H          -1.2581    1.9520    1.2565 H       1  UNL1        0.0619
     51 H          -0.4661    2.4971   -1.0260 H       1  UNL1        0.0654
@<TRIPOS>UNITY_ATOM_ATTR
3 1
charge 1
@<TRIPOS>BOND
     1     1     2    1
     2     1    26    1
     3     1    27    1
     4     1    28    1
     5     2     3    1
     6     2    29    1
     7     2    30    1
     8     3     4    1
     9     3     5    1
    10     3     7    1
    11     4    31    1
    12     4    32    1
    13     4    33    1
    14     5     6    1
    15     5    34    1
    16     5    35    1
    17     6    36    1
    18     6    37    1
    19     6    38    1
    20     7     8    1
    21     7    39    1
    22     7    40    1
    23     8     9    1
    24     8    41    1
    25     8    42    1
    26     9    10    1
    27    10    11    2
    28    10    12    1
    29    12    21    1
    30    12    13    1
    31    12    43    1
    32    13    18   ar
    33    13    14   ar
    34    14    15   ar
    35    14    44    1
    36    15    16   ar
    37    15    45    1
    38    16    17   ar
    39    16    46    1
    40    17    18   ar
    41    17    47    1
    42    18    19    1
    43    19    20    1
    44    20    25   ar
    45    20    21   ar
    46    21    22   ar
    47    22    23   ar
    48    22    48    1
    49    23    24   ar
    50    23    49    1
    51    24    25   ar
    52    24    50    1
    53    25    51    1
