@<TRIPOS>MOLECULE
ZINC00000471
 31 32 0 0 0
SMALL
GASTEIGER

@<TRIPOS>ATOM
      1 C           0.4124   -7.3382    1.6331 C.3     1  UNL1       -0.0396
      2 C           1.3843   -7.4349    0.4925 C.ar    1  UNL1       -0.0467
      3 C           1.6205   -8.6748   -0.1124 C.ar    1  UNL1       -0.0557
      4 C           2.5294   -8.7923   -1.1711 C.ar    1  UNL1       -0.0467
      5 C           3.1951   -7.6470   -1.6271 C.ar    1  UNL1       -0.0170
      6 C           2.9559   -6.3984   -1.0468 C.ar    1  UNL1        0.1212
      7 C           2.0647   -6.3003    0.0250 C.ar    1  UNL1       -0.0170
      8 O           3.6723   -5.3574   -1.5810 O.3     1  UNL1       -0.4882
      9 C           3.0853   -4.0626   -1.4382 C.3     1  UNL1        0.1279
     10 C           3.9634   -3.0187   -2.1214 C.3     1  UNL1        0.1538
     11 H           4.9419   -2.9733   -1.6272 H       1  UNL1        0.0785
     12 C           4.1416   -3.2290   -3.6094 C.3     1  UNL1        0.0551
     13 N           4.1473   -1.8884   -4.0959 N.am    1  UNL1       -0.2775
     14 C           3.5544   -1.0563   -3.1911 C.2     1  UNL1        0.4008
     15 O           3.2217    0.0960   -3.4079 O.2     1  UNL1       -0.2265
     16 O           3.3573   -1.7157   -2.0133 O.3     1  UNL1       -0.4421
     17 C           2.7700  -10.1322   -1.8005 C.3     1  UNL1       -0.0396
     18 H          -0.5764   -7.6829    1.3133 H       1  UNL1        0.0278
     19 H           0.7525   -7.9512    2.4739 H       1  UNL1        0.0278
     20 H           0.3077   -6.3076    1.9876 H       1  UNL1        0.0278
     21 H           1.0963   -9.5584    0.2470 H       1  UNL1        0.0623
     22 H           3.9035   -7.7212   -2.4497 H       1  UNL1        0.0657
     23 H           1.8928   -5.3542    0.5274 H       1  UNL1        0.0657
     24 H           2.0771   -4.0511   -1.8735 H       1  UNL1        0.0734
     25 H           3.0050   -3.7830   -0.3816 H       1  UNL1        0.0734
     26 H           3.3000   -3.7512   -4.0749 H       1  UNL1        0.0501
     27 H           5.0760   -3.7334   -3.8696 H       1  UNL1        0.0501
     28 H           4.2018   -1.6046   -5.0648 H       1  UNL1        0.1521
     29 H           3.1333  -10.8417   -1.0499 H       1  UNL1        0.0278
     30 H           1.8420  -10.5153   -2.2374 H       1  UNL1        0.0278
     31 H           3.5188  -10.0741   -2.5970 H       1  UNL1        0.0278
@<TRIPOS>BOND
     1     1     2    1
     2     1    18    1
     3     1    19    1
     4     1    20    1
     5     2     7   ar
     6     2     3   ar
     7     3     4   ar
     8     3    21    1
     9     4     5   ar
    10     4    17    1
    11     5     6   ar
    12     5    22    1
    13     6     7   ar
    14     6     8    1
    15     7    23    1
    16     8     9    1
    17     9    24    1
    18     9    25    1
    19    10    16    1
    20    10    12    1
    21    12    13    1
    22    12    26    1
    23    12    27    1
    24    13    14   am
    25    13    28    1
    26    14    15    2
    27    14    16    1
    28    17    29    1
    29    17    30    1
    30    17    31    1
    31    10    11    1
    32    10     9    1
