@<TRIPOS>MOLECULE
ZINC00074836
 28 28 0 0 0
SMALL
GASTEIGER

@<TRIPOS>ATOM
      1 C           1.0155   -1.3140   -1.9786 C.3     1  UNL1       -0.0189
      2 C           0.4735   -1.2248   -0.5600 C.3     1  UNL1        0.0050
      3 H           0.7124   -0.2438   -0.1301 H       1  UNL1        0.0877
      4 C          -1.0680   -1.4436   -0.4402 C.3     1  UNL1        0.1222
      5 H          -1.5933   -0.6249   -0.9464 H       1  UNL1        0.0701
      6 C          -1.5604   -2.7775   -0.9662 C.ar    1  UNL1       -0.0138
      7 C          -1.9232   -2.9022   -2.3167 C.ar    1  UNL1       -0.0559
      8 C          -2.3445   -4.1302   -2.8318 C.ar    1  UNL1       -0.0614
      9 C          -2.4188   -5.2481   -2.0041 C.ar    1  UNL1       -0.0617
     10 C          -2.0812   -5.1374   -0.6601 C.ar    1  UNL1       -0.0614
     11 C          -1.6567   -3.9132   -0.1420 C.ar    1  UNL1       -0.0559
     12 O          -1.3820   -1.3486    0.9595 O.3     1  UNL1       -0.3816
     13 N           1.1694   -2.2262    0.3403 N.4     1  UNL1        0.2289
     14 C           2.6152   -2.0234    0.5897 C.3     1  UNL1       -0.0445
     15 H           0.4870   -0.6126   -2.6327 H       1  UNL1        0.0285
     16 H           0.9152   -2.3199   -2.3968 H       1  UNL1        0.0285
     17 H           2.0765   -1.0471   -2.0148 H       1  UNL1        0.0285
     18 H          -1.8900   -2.0461   -2.9890 H       1  UNL1        0.0621
     19 H          -2.6248   -4.2156   -3.8800 H       1  UNL1        0.0618
     20 H          -2.7582   -6.2009   -2.4053 H       1  UNL1        0.0618
     21 H          -2.1642   -6.0095   -0.0124 H       1  UNL1        0.0618
     22 H          -1.4251   -3.8611    0.9202 H       1  UNL1        0.0621
     23 H          -2.3588   -1.3958    1.0260 H       1  UNL1        0.2105
     24 H           0.6555   -2.1720    1.2372 H       1  UNL1        0.2014
     25 H           2.7635   -1.0179    0.9888 H       1  UNL1        0.0777
     26 H           2.9302   -2.7757    1.3163 H       1  UNL1        0.0777
     27 H           3.1563   -2.1655   -0.3484 H       1  UNL1        0.0777
     28 H           0.9966   -3.1782   -0.0109 H       1  UNL1        0.2014
@<TRIPOS>UNITY_ATOM_ATTR
13 1
charge 1
@<TRIPOS>BOND
     1     1     2    1
     2     1    15    1
     3     1    16    1
     4     1    17    1
     5     2     3    1
     6     2     4    1
     7     2    13    1
     8     4     5    1
     9     4     6    1
    10     4    12    1
    11     6    11   ar
    12     6     7   ar
    13     7     8   ar
    14     7    18    1
    15     8     9   ar
    16     8    19    1
    17     9    10   ar
    18     9    20    1
    19    10    11   ar
    20    10    21    1
    21    11    22    1
    22    12    23    1
    23    13    14    1
    24    13    24    1
    25    13    28    1
    26    14    25    1
    27    14    26    1
    28    14    27    1
