@<TRIPOS>MOLECULE
ZINC00403011
 49 50 0 0 0
SMALL
GASTEIGER

@<TRIPOS>ATOM
      1 C           3.1188    0.9621    0.0124 C.3     1  UNL1       -0.0216
      2 C           2.4493   -0.3736   -0.2832 C.3     1  UNL1       -0.0251
      3 H           1.3627   -0.2385   -0.2599 H       1  UNL1        0.0848
      4 C           2.7991   -0.9395   -1.6710 C.3     1  UNL1       -0.0060
      5 C           4.2828   -1.1476   -2.0242 C.3     1  UNL1       -0.0226
      6 C           4.3904   -1.6582   -3.4469 C.ar    1  UNL1       -0.0472
      7 C           4.1970   -3.0181   -3.7320 C.ar    1  UNL1       -0.0586
      8 C           4.1313   -3.4648   -5.0545 C.ar    1  UNL1       -0.0615
      9 C           4.2714   -2.5621   -6.1059 C.ar    1  UNL1       -0.0617
     10 C           4.5121   -1.2172   -5.8364 C.ar    1  UNL1       -0.0615
     11 C           4.5755   -0.7665   -4.5146 C.ar    1  UNL1       -0.0586
     12 N           2.7600   -1.3763    0.7932 N.4     1  UNL1        0.2310
     13 C           2.3234   -1.0679    2.2171 C.3     1  UNL1       -0.0026
     14 C           0.7843   -1.0794    2.3534 C.3     1  UNL1        0.1197
     15 H           0.3425   -0.3250    1.6925 H       1  UNL1        0.0698
     16 C           0.3367   -0.7933    3.7730 C.ar    1  UNL1       -0.0131
     17 C           0.5079   -1.7328    4.8001 C.ar    1  UNL1       -0.0524
     18 C           0.1341   -1.4255    6.1093 C.ar    1  UNL1       -0.0191
     19 C          -0.4107   -0.1794    6.4133 C.ar    1  UNL1        0.1290
     20 C          -0.6023    0.7836    5.4116 C.ar    1  UNL1        0.0781
     21 C          -0.2253    0.4637    4.0941 C.ar    1  UNL1       -0.0403
     22 C          -1.1791    2.1133    5.7860 C.2     1  UNL1        0.2451
     23 O          -1.4981    2.3355    6.9559 O.2     1  UNL1       -0.2703
     24 N          -1.3573    3.0655    4.8308 N.am    1  UNL1       -0.3252
     25 O          -0.7290    0.0214    7.7295 O.3     1  UNL1       -0.5060
     26 O           0.3392   -2.3511    1.8675 O.3     1  UNL1       -0.3819
     27 H           2.8412    1.6992   -0.7491 H       1  UNL1        0.0284
     28 H           4.2091    0.8828    0.0330 H       1  UNL1        0.0284
     29 H           2.7936    1.3723    0.9736 H       1  UNL1        0.0284
     30 H           2.2650   -1.8904   -1.8015 H       1  UNL1        0.0323
     31 H           2.3686   -0.2567   -2.4169 H       1  UNL1        0.0323
     32 H           4.8458   -0.2113   -1.9338 H       1  UNL1        0.0315
     33 H           4.7547   -1.8641   -1.3417 H       1  UNL1        0.0315
     34 H           4.0730   -3.7431   -2.9320 H       1  UNL1        0.0620
     35 H           3.9564   -4.5169   -5.2685 H       1  UNL1        0.0618
     36 H           4.1941   -2.9072   -7.1350 H       1  UNL1        0.0618
     37 H           4.6357   -0.5171   -6.6601 H       1  UNL1        0.0618
     38 H           4.7519    0.2918   -4.3351 H       1  UNL1        0.0620
     39 H           2.2715   -2.2593    0.5585 H       1  UNL1        0.2017
     40 H           2.7525   -1.8823    2.8130 H       1  UNL1        0.0843
     41 H           2.7814   -0.1288    2.5339 H       1  UNL1        0.0843
     42 H           0.9338   -2.7159    4.6066 H       1  UNL1        0.0622
     43 H           0.2674   -2.1554    6.9064 H       1  UNL1        0.0654
     44 H          -0.3656    1.1926    3.3016 H       1  UNL1        0.0630
     45 H          -1.1749    2.9810    3.8453 H       1  UNL1        0.1453
     46 H          -1.7727    3.9371    5.1434 H       1  UNL1        0.1453
     47 H          -1.1152    0.9227    7.8284 H       1  UNL1        0.2922
     48 H          -0.3142   -2.7150    2.4977 H       1  UNL1        0.2105
     49 H           3.7638   -1.5969    0.8019 H       1  UNL1        0.2017
@<TRIPOS>UNITY_ATOM_ATTR
12 1
charge 1
@<TRIPOS>BOND
     1     1     2    1
     2     1    27    1
     3     1    28    1
     4     1    29    1
     5     2     3    1
     6     2     4    1
     7     2    12    1
     8     4     5    1
     9     4    30    1
    10     4    31    1
    11     5     6    1
    12     5    32    1
    13     5    33    1
    14     6    11   ar
    15     6     7   ar
    16     7     8   ar
    17     7    34    1
    18     8     9   ar
    19     8    35    1
    20     9    10   ar
    21     9    36    1
    22    10    11   ar
    23    10    37    1
    24    11    38    1
    25    12    13    1
    26    12    39    1
    27    12    49    1
    28    13    40    1
    29    13    41    1
    30    14    16    1
    31    14    26    1
    32    16    21   ar
    33    16    17   ar
    34    17    18   ar
    35    17    42    1
    36    18    19   ar
    37    18    43    1
    38    19    20   ar
    39    19    25    1
    40    20    21   ar
    41    20    22    1
    42    21    44    1
    43    22    23    2
    44    22    24   am
    45    24    45    1
    46    24    46    1
    47    25    47    1
    48    26    48    1
    49    14    15    1
    50    14    13    1
