@<TRIPOS>MOLECULE
ZINC01530810
 15 14 0 0 0
SMALL
GASTEIGER

@<TRIPOS>ATOM
      1 C          -0.8793    0.0472    1.1322 C.3     1  UNL1        0.1903
      2 O           0.4973   -0.2446    0.9182 O.3     1  UNL1       -0.3288
      3 C           0.9537   -1.3847    1.6968 C.3     1  UNL1        0.2505
      4 C           0.4817   -2.7297    1.1738 C.3     1  UNL1        0.4242
      5 F          -0.3606   -2.5738    0.1153 F       1  UNL1       -0.1676
      6 F           1.4509   -3.5652    0.7650 F       1  UNL1       -0.1676
      7 F          -0.2365   -3.3773    2.1208 F       1  UNL1       -0.1676
      8 C           2.4553   -1.4013    1.8383 C.3     1  UNL1        0.4242
      9 F           2.9400   -0.1455    1.9816 F       1  UNL1       -0.1676
     10 F           2.8162   -2.0858    2.9444 F       1  UNL1       -0.1676
     11 F           3.1053   -1.9442    0.7828 F       1  UNL1       -0.1676
     12 F          -1.1308    0.0073    2.4603 F       1  UNL1       -0.2183
     13 H          -1.5317   -0.6680    0.6189 H       1  UNL1        0.0926
     14 H          -1.0933    1.0574    0.7681 H       1  UNL1        0.0926
     15 H           0.5748   -1.2573    2.7171 H       1  UNL1        0.0780
@<TRIPOS>BOND
     1     1     2    1
     2     1    12    1
     3     1    13    1
     4     1    14    1
     5     2     3    1
     6     3     4    1
     7     3     8    1
     8     3    15    1
     9     4     5    1
    10     4     6    1
    11     4     7    1
    12     8     9    1
    13     8    10    1
    14     8    11    1
