@<TRIPOS>MOLECULE
ZINC02041282
 51 53 0 0 0
SMALL
GASTEIGER

@<TRIPOS>ATOM
      1 C          -4.1261    2.6856    3.3171 C.ar    1  UNL1       -0.0617
      2 C          -4.1262    1.2974    3.2627 C.ar    1  UNL1       -0.0614
      3 C          -3.6601    0.6400    2.1214 C.ar    1  UNL1       -0.0558
      4 C          -3.2024    1.3566    0.9969 C.ar    1  UNL1       -0.0157
      5 C          -3.1886    2.7595    1.0891 C.ar    1  UNL1       -0.0558
      6 C          -3.6509    3.4166    2.2317 C.ar    1  UNL1       -0.0614
      7 C          -2.7442    0.6080   -0.2614 C.3     1  UNL1        0.0985
      8 C          -1.2780    0.1165   -0.0899 C.3     1  UNL1        0.0208
      9 C          -0.2309    1.2183    0.0054 C.3     1  UNL1       -0.0289
     10 C           2.1819    1.8233    0.0635 C.3     1  UNL1       -0.0319
     11 C           3.6198    1.3284    0.0844 C.3     1  UNL1       -0.0123
     12 C           3.8633    0.3686    1.2388 C.3     1  UNL1       -0.0434
     13 C           2.8890   -0.7967    1.1591 C.3     1  UNL1       -0.0123
     14 C           1.4433   -0.3182    1.1693 C.3     1  UNL1       -0.0319
     15 C          -2.9771    1.3939   -1.5877 C.3     1  UNL1       -0.0078
     16 C          -2.5986    0.6241   -2.8592 C.3     1  UNL1       -0.0473
     17 C          -3.2840    1.3896   -3.9831 C.3     1  UNL1       -0.0527
     18 C          -4.5317    2.0126   -3.3685 C.3     1  UNL1       -0.0527
     19 C          -4.4486    1.7532   -1.8679 C.3     1  UNL1       -0.0473
     20 O          -3.4978   -0.6150   -0.3638 O.3     1  UNL1       -0.3835
     21 H          -4.5097    3.1989    4.1968 H       1  UNL1        0.0618
     22 H          -4.5070    0.7235    4.1048 H       1  UNL1        0.0618
     23 H          -3.6850   -0.4496    2.1130 H       1  UNL1        0.0621
     24 H          -2.8493    3.3839    0.2650 H       1  UNL1        0.0621
     25 H          -3.6649    4.5054    2.2711 H       1  UNL1        0.0618
     26 H          -1.2389   -0.5049    0.8145 H       1  UNL1        0.0348
     27 H          -1.0211   -0.5682   -0.9089 H       1  UNL1        0.0348
     28 H          -0.2699    1.8664   -0.8752 H       1  UNL1        0.0815
     29 H          -0.3537    1.8218    0.9098 H       1  UNL1        0.0815
     30 H           1.9570    2.4230    0.9526 H       1  UNL1        0.0814
     31 H           1.9990    2.4206   -0.8360 H       1  UNL1        0.0814
     32 H           4.2981    2.1849    0.1726 H       1  UNL1        0.0317
     33 H           3.8571    0.8313   -0.8641 H       1  UNL1        0.0317
     34 H           4.8946    0.0001    1.2093 H       1  UNL1        0.0269
     35 H           3.7366    0.8939    2.1939 H       1  UNL1        0.0269
     36 H           3.0834   -1.3736    0.2462 H       1  UNL1        0.0317
     37 H           3.0580   -1.4746    2.0039 H       1  UNL1        0.0317
     38 H           0.7864   -1.1781    1.0137 H       1  UNL1        0.0814
     39 H           1.1855    0.1863    2.1058 H       1  UNL1        0.0814
     40 H          -2.3955    2.3248   -1.5855 H       1  UNL1        0.0332
     41 H          -1.5150    0.5858   -3.0116 H       1  UNL1        0.0269
     42 H          -2.9728   -0.4053   -2.8332 H       1  UNL1        0.0269
     43 H          -3.5273    0.7350   -4.8258 H       1  UNL1        0.0265
     44 H          -2.6248    2.1802   -4.3597 H       1  UNL1        0.0265
     45 H          -5.4451    1.5733   -3.7842 H       1  UNL1        0.0265
     46 H          -4.5633    3.0874   -3.5785 H       1  UNL1        0.0265
     47 H          -5.1257    0.9309   -1.6148 H       1  UNL1        0.0269
     48 H          -4.7790    2.6296   -1.3019 H       1  UNL1        0.0269
     49 H          -4.4334   -0.4110   -0.1800 H       1  UNL1        0.2106
     50 N           1.1997    0.6634    0.0394 N.4     1  UNL1        0.2353
     51 H           1.3507    0.1510   -0.8414 H       1  UNL1        0.2033
@<TRIPOS>UNITY_ATOM_ATTR
50 1
charge 1
@<TRIPOS>BOND
     1     1     6   ar
     2     1     2   ar
     3     1    21    1
     4     2     3   ar
     5     2    22    1
     6     3     4   ar
     7     3    23    1
     8     4     5   ar
     9     5     6   ar
    10     5    24    1
    11     6    25    1
    12     7    15    1
    13     7    20    1
    14     8     9    1
    15     8    26    1
    16     8    27    1
    17     9    28    1
    18     9    29    1
    19     9    50    1
    20    10    11    1
    21    10    30    1
    22    10    31    1
    23    10    50    1
    24    11    12    1
    25    11    32    1
    26    11    33    1
    27    12    13    1
    28    12    34    1
    29    12    35    1
    30    13    14    1
    31    13    36    1
    32    13    37    1
    33    14    38    1
    34    14    39    1
    35    14    50    1
    36    15    19    1
    37    15    16    1
    38    15    40    1
    39    16    17    1
    40    16    41    1
    41    16    42    1
    42    17    18    1
    43    17    43    1
    44    17    44    1
    45    18    19    1
    46    18    45    1
    47    18    46    1
    48    19    47    1
    49    19    48    1
    50    20    49    1
    51    50    51    1
    52     7     8    1
    53     7     4    1
