@<TRIPOS>MOLECULE
ZINC00895103
 17 16 0 0 0
SMALL
GASTEIGER

@<TRIPOS>ATOM
      1 CG2         1.2387   -2.4683    0.5036 C.3     1  THR1       -0.0331
      2 CB          0.5000   -1.2328    0.9985 C.3     1  THR1        0.1054
      3 HB          0.8187   -1.0232    2.0270 H       1  THR1        0.0653
      4 CA         -1.0254   -1.3264    0.9282 C.3     1  THR1        0.1045
      5 HA         -1.3902   -1.4450   -0.0971 H       1  THR1        0.0996
      6 C          -1.5241   -2.4297    1.8791 C.2     1  THR1        0.4051
      7 O          -1.8190   -1.9334    3.0107 O.co2   1  THR1       -0.2399
      8 OXT        -1.6432   -3.5771    1.3946 O.co2   1  THR1       -0.2399
      9 N          -1.5486    0.0351    1.3905 N.4     1  THR1        0.2308
     10 OG1         0.8837   -0.0838    0.2109 O.3     1  THR1       -0.3859
     11 HG21        1.0155   -3.3471    1.1200 H       1  THR1        0.0257
     12 HG22        2.3212   -2.3014    0.5493 H       1  THR1        0.0257
     13 HG23        0.9906   -2.6934   -0.5357 H       1  THR1        0.0257
     14 H1         -1.4632   -0.0319    2.4243 H       1  THR1        0.2003
     15 H2         -0.9816    0.7993    1.0131 H       1  THR1        0.2003
     16 HG1         1.0598   -0.3949   -0.6981 H       1  THR1        0.2100
     17 H3         -2.5517    0.1126    1.2154 H       1  THR1        0.2003
@<TRIPOS>UNITY_ATOM_ATTR
9 1
charge 1
@<TRIPOS>BOND
     1     1    11    1
     2     1    12    1
     3     1    13    1
     4     2     4    1
     5     2    10    1
     6     4     5    1
     7     4     6    1
     8     4     9    1
     9     6     7   ar
    10     6     8   ar
    11     9    14    1
    12     9    15    1
    13     9    17    1
    14    10    16    1
    15     2     3    1
    16     2     1    1
