@<TRIPOS>MOLECULE
ZINC00601255
 53 54 0 0 0
SMALL
GASTEIGER

@<TRIPOS>ATOM
      1 C          -5.1633   -2.2624   -0.7690 C.3     1  UNL1       -0.0245
      2 C          -4.3674   -2.3950    0.5159 C.3     1  UNL1       -0.0345
      3 N          -2.9467   -1.9698    0.3060 N.4     1  UNL1        0.2383
      4 C          -2.7345   -0.5618   -0.1692 C.3     1  UNL1       -0.0314
      5 C          -1.2815   -0.3028    0.1577 C.3     1  UNL1       -0.0074
      6 C          -1.0995   -0.9644    1.5107 C.3     1  UNL1       -0.0034
      7 C          -2.0258   -2.1871    1.5028 C.3     1  UNL1       -0.0048
      8 H          -2.6524   -2.1762    2.4025 H       1  UNL1        0.0867
      9 C          -1.2776   -3.5441    1.4158 C.3     1  UNL1        0.0548
     10 N          -0.3253   -3.6629    0.3205 N.am    1  UNL1       -0.3059
     11 C          -0.6972   -3.7816   -1.0085 C.2     1  UNL1        0.2478
     12 O          -1.8807   -3.7026   -1.3250 O.2     1  UNL1       -0.2701
     13 C           0.4065   -3.8466   -2.0158 C.ar    1  UNL1        0.0801
     14 C           1.6041   -3.1872   -1.7107 C.ar    1  UNL1       -0.0194
     15 C           2.6635   -3.1428   -2.6272 C.ar    1  UNL1        0.1096
     16 C           2.5577   -3.7763   -3.8682 C.ar    1  UNL1        0.0532
     17 C           1.3251   -4.3762   -4.1893 C.ar    1  UNL1        0.0033
     18 C           0.2602   -4.4544   -3.2729 C.ar    1  UNL1        0.1340
     19 O          -0.9373   -5.0509   -3.5672 O.3     1  UNL1       -0.4943
     20 C          -0.9377   -6.0705   -4.5662 C.3     1  UNL1        0.0788
     21 N           3.5186   -3.6495   -4.8809 N.pl3   1  UNL1       -0.3564
     22 S           4.1607   -2.3488   -2.0888 S.O2    1  UNL1       -0.0016
     23 O           3.9105   -1.8630   -0.7444 O.2     1  UNL1       -0.1693
     24 O           5.2315   -3.2974   -2.3467 O.2     1  UNL1       -0.1693
     25 C           4.3834   -0.9329   -3.1453 C.3     1  UNL1        0.0681
     26 C           5.5684   -0.1030   -2.6819 C.3     1  UNL1       -0.0453
     27 H          -5.2466   -1.2176   -1.0846 H       1  UNL1        0.0281
     28 H          -6.1793   -2.6420   -0.6215 H       1  UNL1        0.0281
     29 H          -4.7040   -2.8313   -1.5839 H       1  UNL1        0.0281
     30 H          -4.7895   -1.7797    1.3168 H       1  UNL1        0.0812
     31 H          -4.3416   -3.4415    0.8366 H       1  UNL1        0.0812
     32 H          -3.4047    0.0914    0.3994 H       1  UNL1        0.0814
     33 H          -2.9475   -0.5093   -1.2402 H       1  UNL1        0.0814
     34 H          -0.6311   -0.7714   -0.5893 H       1  UNL1        0.0319
     35 H          -1.0476    0.7658    0.1817 H       1  UNL1        0.0319
     36 H          -0.0515   -1.2119    1.7057 H       1  UNL1        0.0322
     37 H          -1.4175   -0.2727    2.3010 H       1  UNL1        0.0322
     38 H          -0.7062   -3.6912    2.3410 H       1  UNL1        0.0518
     39 H          -1.9968   -4.3647    1.3334 H       1  UNL1        0.0518
     40 H           0.6417   -3.8481    0.5755 H       1  UNL1        0.1492
     41 H           1.7188   -2.6729   -0.7599 H       1  UNL1        0.0646
     42 H           1.2169   -4.7819   -5.1909 H       1  UNL1        0.0673
     43 H          -0.5949   -5.7067   -5.5393 H       1  UNL1        0.0660
     44 H          -0.3449   -6.9309   -4.2379 H       1  UNL1        0.0660
     45 H          -1.9711   -6.4035   -4.7049 H       1  UNL1        0.0660
     46 H           3.4189   -4.3232   -5.6389 H       1  UNL1        0.1424
     47 H           4.4839   -3.6635   -4.5415 H       1  UNL1        0.1424
     48 H           4.5561   -1.2887   -4.1633 H       1  UNL1        0.0501
     49 H           3.4655   -0.3394   -3.1171 H       1  UNL1        0.0501
     50 H           6.4564   -0.7250   -2.5325 H       1  UNL1        0.0245
     51 H           5.8100    0.6678   -3.4193 H       1  UNL1        0.0245
     52 H           5.3477    0.3918   -1.7309 H       1  UNL1        0.0245
     53 H          -2.5949   -2.5939   -0.4544 H       1  UNL1        0.2037
@<TRIPOS>UNITY_ATOM_ATTR
3 1
charge 1
@<TRIPOS>BOND
     1     1     2    1
     2     1    27    1
     3     1    28    1
     4     1    29    1
     5     2    30    1
     6     2    31    1
     7     3     7    1
     8     3     4    1
     9     4     5    1
    10     4    32    1
    11     4    33    1
    12     5     6    1
    13     5    34    1
    14     5    35    1
    15     6     7    1
    16     6    36    1
    17     6    37    1
    18     9    10    1
    19     9    38    1
    20     9    39    1
    21    10    11   am
    22    10    40    1
    23    11    12    2
    24    11    13    1
    25    13    18   ar
    26    13    14   ar
    27    14    15   ar
    28    14    41    1
    29    15    16   ar
    30    15    22    1
    31    16    17   ar
    32    16    21    1
    33    17    18   ar
    34    17    42    1
    35    18    19    1
    36    19    20    1
    37    20    43    1
    38    20    44    1
    39    20    45    1
    40    21    46    1
    41    21    47    1
    42    22    23    2
    43    22    24    2
    44    22    25    1
    45    25    26    1
    46    25    48    1
    47    25    49    1
    48    26    50    1
    49    26    51    1
    50    26    52    1
    51     3    53    1
    52     3     2    1
    53     7     9    1
    54     7     8    1
