@<TRIPOS>MOLECULE
ZINC00001246
 52 55 0 0 0
SMALL
GASTEIGER

@<TRIPOS>ATOM
      1 C           2.3865   -0.3326   -0.3861 C.3     1  UNL1       -0.0380
      2 C           0.9080   -0.0935   -0.2314 C.ar    1  UNL1       -0.0294
      3 C           0.1002   -1.2483   -0.1774 C.ar    1  UNL1       -0.0571
      4 C          -1.2638   -1.1595    0.0688 C.ar    1  UNL1       -0.0614
      5 C          -1.8387    0.0877    0.2593 C.ar    1  UNL1       -0.0600
      6 C          -1.0533    1.2433    0.1674 C.ar    1  UNL1       -0.0404
      7 C           0.3279    1.1926   -0.1039 C.ar    1  UNL1        0.0330
      8 N           1.0838    2.3537   -0.1815 N.pl3   1  UNL1       -0.3196
      9 C           1.8886    2.6509   -1.3746 C.3     1  UNL1        0.0525
     10 C           3.2555    3.2281   -0.9273 C.3     1  UNL1       -0.0157
     11 C           2.0881    4.0721    1.1852 C.3     1  UNL1       -0.0157
     12 C           0.7618    3.5391    0.6126 C.3     1  UNL1        0.0525
     13 C           3.0559    5.7535   -0.5625 C.3     1  UNL1       -0.0248
     14 C           2.9576    6.9003    0.4628 C.3     1  UNL1        0.0476
     15 C           3.0717    8.2285   -0.1902 C.ar    1  UNL1        0.1385
     16 N           3.1910    8.4415   -1.4813 N.ar    1  UNL1       -0.1342
     17 N           3.2292    9.7985   -1.6935 N.ar    1  UNL1       -0.1344
     18 C           3.1351   10.3944   -0.5286 C.ar    1  UNL1        0.1335
     19 N           3.0445    9.4429    0.4516 N.ar    1  UNL1       -0.3146
     20 C           3.0150    9.7324    1.8711 C.3     1  UNL1        0.0261
     21 C           2.8039   11.2203    2.1821 C.3     1  UNL1       -0.0345
     22 C           3.5599   12.1217    1.2020 C.3     1  UNL1       -0.0446
     23 C           3.1041   11.8494   -0.2324 C.3     1  UNL1        0.0075
     24 H           2.6911   -1.2282    0.1674 H       1  UNL1        0.0278
     25 H           2.6417   -0.4689   -1.4412 H       1  UNL1        0.0278
     26 H           2.9755    0.4842    0.0343 H       1  UNL1        0.0278
     27 H           0.5457   -2.2348   -0.3025 H       1  UNL1        0.0621
     28 H          -1.8690   -2.0608    0.1247 H       1  UNL1        0.0618
     29 H          -2.9024    0.1639    0.4715 H       1  UNL1        0.0618
     30 H          -1.5613    2.1952    0.2964 H       1  UNL1        0.0636
     31 H           2.0499    1.7726   -2.0079 H       1  UNL1        0.0516
     32 H           1.3609    3.3849   -1.9963 H       1  UNL1        0.0516
     33 H           3.8403    2.4594   -0.4119 H       1  UNL1        0.0830
     34 H           3.8406    3.5917   -1.7776 H       1  UNL1        0.0830
     35 H           1.9383    4.9605    1.7993 H       1  UNL1        0.0830
     36 H           2.5531    3.3070    1.8175 H       1  UNL1        0.0830
     37 H           0.2708    4.2981   -0.0096 H       1  UNL1        0.0516
     38 H           0.0991    3.3139    1.4551 H       1  UNL1        0.0516
     39 H           3.9856    5.8445   -1.1395 H       1  UNL1        0.0819
     40 H           2.2102    5.7412   -1.2566 H       1  UNL1        0.0819
     41 H           1.9838    6.8668    0.9605 H       1  UNL1        0.0396
     42 H           3.7373    6.7899    1.2253 H       1  UNL1        0.0396
     43 H           3.9763    9.3963    2.2766 H       1  UNL1        0.0493
     44 H           2.2161    9.1361    2.3225 H       1  UNL1        0.0493
     45 H           3.1202   11.4321    3.2099 H       1  UNL1        0.0282
     46 H           1.7335   11.4563    2.1261 H       1  UNL1        0.0282
     47 H           3.3903   13.1755    1.4503 H       1  UNL1        0.0270
     48 H           4.6381   11.9372    1.2938 H       1  UNL1        0.0270
     49 H           2.0787   12.2130   -0.3697 H       1  UNL1        0.0344
     50 H           3.7414   12.3933   -0.9370 H       1  UNL1        0.0344
     51 N           3.1321    4.3839    0.1016 N.4     1  UNL1        0.2378
     52 H           4.0340    4.3726    0.5914 H       1  UNL1        0.2035
@<TRIPOS>UNITY_ATOM_ATTR
51 1
charge 1
@<TRIPOS>BOND
     1     1     2    1
     2     1    24    1
     3     1    25    1
     4     1    26    1
     5     2     7   ar
     6     2     3   ar
     7     3     4   ar
     8     3    27    1
     9     4     5   ar
    10     4    28    1
    11     5     6   ar
    12     5    29    1
    13     6     7   ar
    14     6    30    1
    15     7     8    1
    16     8    12    1
    17     8     9    1
    18     9    10    1
    19     9    31    1
    20     9    32    1
    21    10    33    1
    22    10    34    1
    23    10    51    1
    24    11    12    1
    25    11    35    1
    26    11    36    1
    27    11    51    1
    28    12    37    1
    29    12    38    1
    30    13    14    1
    31    13    39    1
    32    13    40    1
    33    13    51    1
    34    14    15    1
    35    14    41    1
    36    14    42    1
    37    15    19   ar
    38    15    16   ar
    39    16    17   ar
    40    17    18   ar
    41    18    23    1
    42    18    19   ar
    43    19    20    1
    44    20    21    1
    45    20    43    1
    46    20    44    1
    47    21    22    1
    48    21    45    1
    49    21    46    1
    50    22    23    1
    51    22    47    1
    52    22    48    1
    53    23    49    1
    54    23    50    1
    55    51    52    1
