@<TRIPOS>MOLECULE
ZINC00266964
 24 24 0 0 0
SMALL
GASTEIGER

@<TRIPOS>ATOM
      1 CD1        -1.1757   -1.1849   -0.0841 C.ar    1  TYR1       -0.0549
      2 CE1         0.2210   -1.2171   -0.0669 C.ar    1  TYR1       -0.0199
      3 CZ          0.9339   -0.0234   -0.0559 C.ar    1  TYR1        0.1169
      4 CE2         0.2746    1.1981   -0.0638 C.ar    1  TYR1       -0.0199
      5 CD2        -1.1203    1.2312   -0.0708 C.ar    1  TYR1       -0.0549
      6 CG         -1.8597    0.0391   -0.0705 C.ar    1  TYR1       -0.0413
      7 CB         -3.3670    0.0865   -0.0223 C.3     1  TYR1        0.0261
      8 CA         -3.9712   -0.5852    1.2131 C.3     1  TYR1        0.0826
      9 HA         -3.7266   -1.6488    1.2882 H       1  TYR1        0.0973
     10 C          -3.5676    0.1992    2.4931 C.2     1  TYR1        0.4029
     11 O          -4.4138    1.1306    2.7026 O.co2   1  TYR1       -0.2400
     12 OXT        -2.6685   -0.2941    3.2025 O.co2   1  TYR1       -0.2400
     13 N          -5.4903   -0.5090    1.0943 N.4     1  TYR1        0.2291
     14 OH          2.2970   -0.0118   -0.0335 O.3     1  TYR1       -0.5068
     15 HD1        -1.7172   -2.1270   -0.0797 H       1  TYR1        0.0621
     16 HE1         0.7293   -2.1752   -0.0467 H       1  TYR1        0.0654
     17 HE2         0.8433    2.1232   -0.0403 H       1  TYR1        0.0654
     18 HD2        -1.6194    2.1976   -0.0466 H       1  TYR1        0.0621
     19 HB1        -3.7044    1.1303   -0.0838 H       1  TYR1        0.0374
     20 HB2        -3.7456   -0.3999   -0.9313 H       1  TYR1        0.0374
     21 H1         -5.6792    0.4889    1.3313 H       1  TYR1        0.2003
     22 H2         -5.9004   -0.7885    0.2063 H       1  TYR1        0.2003
     23 HH          2.6085   -0.9257    0.0673 H       1  TYR1        0.2921
     24 H3         -5.8954   -1.0044    1.8963 H       1  TYR1        0.2003
@<TRIPOS>UNITY_ATOM_ATTR
13 1
charge 1
@<TRIPOS>BOND
     1     1     6   ar
     2     1     2   ar
     3     1    15    1
     4     2     3   ar
     5     2    16    1
     6     3     4   ar
     7     3    14    1
     8     4     5   ar
     9     4    17    1
    10     5     6   ar
    11     5    18    1
    12     6     7    1
    13     7     8    1
    14     7    19    1
    15     7    20    1
    16     8     9    1
    17     8    10    1
    18     8    13    1
    19    10    11   ar
    20    10    12   ar
    21    13    21    1
    22    13    22    1
    23    13    24    1
    24    14    23    1
