@<TRIPOS>MOLECULE
ZINC02019621
 46 48 0 0 0
SMALL
GASTEIGER

@<TRIPOS>ATOM
      1 C          -1.9234    0.8269    1.5576 C.3     1  UNL1       -0.0201
      2 C          -1.8414   -0.7035    1.6014 C.3     1  UNL1       -0.0078
      3 H          -1.3180   -0.9974    2.5194 H       1  UNL1        0.0864
      4 C          -1.0436   -1.2750    0.3770 C.3     1  UNL1        0.0599
      5 N          -1.7158   -1.0459   -0.9234 N.pl3   1  UNL1       -0.2929
      6 C          -1.5761    0.2208   -1.5562 C.ar    1  UNL1        0.0480
      7 C          -0.3828    0.9642   -1.5080 C.ar    1  UNL1       -0.0393
      8 C          -0.2571    2.1859   -2.1810 C.ar    1  UNL1       -0.0599
      9 C          -1.3175    2.6902   -2.9249 C.ar    1  UNL1       -0.0606
     10 C          -2.5050    1.9705   -3.0041 C.ar    1  UNL1       -0.0462
     11 C          -2.6327    0.7452   -2.3367 C.ar    1  UNL1        0.0341
     12 S          -4.1851   -0.1298   -2.4744 S.3     1  UNL1       -0.0857
     13 C          -3.5656   -1.8002   -2.3477 C.ar    1  UNL1        0.0341
     14 C          -2.4328   -2.0930   -1.5534 C.ar    1  UNL1        0.0487
     15 C          -2.0019   -3.4287   -1.5183 C.ar    1  UNL1       -0.0288
     16 C          -2.6665   -4.4306   -2.2473 C.ar    1  UNL1        0.0189
     17 C          -3.7923   -4.1200   -3.0070 C.ar    1  UNL1       -0.0501
     18 C          -4.2436   -2.8045   -3.0503 C.ar    1  UNL1       -0.0455
     19 C          -2.1350   -5.8169   -2.1862 C.2     1  UNL1        0.1602
     20 O          -1.5416   -6.1697   -1.1667 O.2     1  UNL1       -0.2924
     21 C          -2.3369   -6.7155   -3.3767 C.3     1  UNL1       -0.0014
     22 C          -3.2897   -2.7946    1.9064 C.3     1  UNL1       -0.0430
     23 C          -4.0892   -0.6722    2.8280 C.3     1  UNL1       -0.0430
     24 H          -0.9572    1.2657    1.2915 H       1  UNL1        0.0285
     25 H          -2.1820    1.2378    2.5386 H       1  UNL1        0.0285
     26 H          -2.6753    1.1771    0.8422 H       1  UNL1        0.0285
     27 H          -0.0356   -0.8471    0.3896 H       1  UNL1        0.0524
     28 H          -0.8661   -2.3377    0.5645 H       1  UNL1        0.0524
     29 H           0.5007    0.5941   -0.9979 H       1  UNL1        0.0636
     30 H           0.6828    2.7339   -2.1443 H       1  UNL1        0.0618
     31 H          -1.2133    3.6319   -3.4598 H       1  UNL1        0.0618
     32 H          -3.3234    2.3630   -3.6046 H       1  UNL1        0.0629
     33 H          -1.0965   -3.7121   -0.9856 H       1  UNL1        0.0643
     34 H          -4.3294   -4.8763   -3.5731 H       1  UNL1        0.0625
     35 H          -5.1125   -2.5615   -3.6600 H       1  UNL1        0.0629
     36 H          -3.3856   -7.0115   -3.4579 H       1  UNL1        0.0309
     37 H          -2.0103   -6.2076   -4.2890 H       1  UNL1        0.0309
     38 H          -1.7296   -7.6180   -3.2585 H       1  UNL1        0.0309
     39 H          -2.7722   -3.0394    2.8380 H       1  UNL1        0.0777
     40 H          -4.3351   -3.1149    1.9463 H       1  UNL1        0.0777
     41 H          -2.8070   -3.2728    1.0593 H       1  UNL1        0.0777
     42 H          -4.2290    0.3892    2.6198 H       1  UNL1        0.0777
     43 H          -5.0689   -1.1583    2.8434 H       1  UNL1        0.0777
     44 H          -3.5659   -0.8280    3.7767 H       1  UNL1        0.0777
     45 N          -3.2647   -1.2955    1.7239 N.4     1  UNL1        0.2340
     46 H          -3.7287   -1.0882    0.8244 H       1  UNL1        0.2031
@<TRIPOS>UNITY_ATOM_ATTR
45 1
charge 1
@<TRIPOS>BOND
     1     1    24    1
     2     1    25    1
     3     1    26    1
     4     2     4    1
     5     2    45    1
     6     4     5    1
     7     4    27    1
     8     4    28    1
     9     5    14    1
    10     5     6    1
    11     6    11   ar
    12     6     7   ar
    13     7     8   ar
    14     7    29    1
    15     8     9   ar
    16     8    30    1
    17     9    10   ar
    18     9    31    1
    19    10    11   ar
    20    10    32    1
    21    11    12    1
    22    12    13    1
    23    13    18   ar
    24    13    14   ar
    25    14    15   ar
    26    15    16   ar
    27    15    33    1
    28    16    17   ar
    29    16    19    1
    30    17    18   ar
    31    17    34    1
    32    18    35    1
    33    19    20    2
    34    19    21    1
    35    21    36    1
    36    21    37    1
    37    21    38    1
    38    22    39    1
    39    22    40    1
    40    22    41    1
    41    22    45    1
    42    23    42    1
    43    23    43    1
    44    23    44    1
    45    23    45    1
    46    45    46    1
    47     2     3    1
    48     2     1    1
