@<TRIPOS>MOLECULE
ZINC00018087
 49 51 0 0 0
SMALL
GASTEIGER

@<TRIPOS>ATOM
      1 C          -4.6137    0.9813    1.8072 C.3     1  UNL1       -0.0433
      2 N          -3.9100   -0.2618    2.2652 N.4     1  UNL1        0.2311
      3 C          -4.8751   -1.3965    2.4849 C.3     1  UNL1       -0.0433
      4 C          -2.7672   -0.6854    1.3620 C.3     1  UNL1       -0.0283
      5 C          -1.6147    0.3250    1.3412 C.3     1  UNL1        0.0147
      6 C          -1.0518    0.6323    2.6948 C.ar    1  UNL1       -0.0173
      7 C          -1.0364    1.8714    3.3057 C.ar    1  UNL1        0.0061
      8 N          -0.3992    1.7504    4.5120 N.ar    1  UNL1       -0.3604
      9 H          -0.2281    2.5034    5.1663 H       1  UNL1        0.1653
     10 C          -0.0188    0.4447    4.7149 C.ar    1  UNL1        0.0468
     11 C          -0.4196   -0.2873    3.6004 C.ar    1  UNL1        0.0033
     12 C          -0.1599   -1.6764    3.5811 C.ar    1  UNL1       -0.0475
     13 C           0.4516   -2.2990    4.6876 C.ar    1  UNL1       -0.0243
     14 C           0.8705   -1.5133    5.7689 C.ar    1  UNL1       -0.0550
     15 C           0.6520   -0.1327    5.7969 C.ar    1  UNL1       -0.0375
     16 C           0.6004   -3.8042    4.7456 C.3     1  UNL1        0.1069
     17 S          -0.9202   -4.4896    5.4562 S.O2    1  UNL1        0.0359
     18 O          -1.0658   -4.0237    6.8172 O.2     1  UNL1       -0.1577
     19 O          -1.9846   -4.2823    4.4853 O.2     1  UNL1       -0.1577
     20 N          -0.6319   -6.1423    5.5187 N.3     1  UNL1       -0.1808
     21 C           0.1993   -6.7316    6.5826 C.3     1  UNL1        0.0202
     22 C           1.4243   -7.2471    5.8522 C.3     1  UNL1       -0.0374
     23 C           0.9404   -7.5862    4.4482 C.3     1  UNL1       -0.0374
     24 C          -0.4209   -6.9168    4.2848 C.3     1  UNL1        0.0202
     25 H          -4.9809    0.8193    0.7905 H       1  UNL1        0.0777
     26 H          -3.9106    1.8156    1.8423 H       1  UNL1        0.0777
     27 H          -5.4415    1.1800    2.4933 H       1  UNL1        0.0777
     28 H          -5.3110   -1.6676    1.5186 H       1  UNL1        0.0777
     29 H          -4.3247   -2.2352    2.9175 H       1  UNL1        0.0777
     30 H          -5.6471   -1.0580    3.1797 H       1  UNL1        0.0777
     31 H          -2.4198   -1.6538    1.7352 H       1  UNL1        0.0817
     32 H          -3.1785   -0.8330    0.3570 H       1  UNL1        0.0817
     33 H          -0.8099   -0.0696    0.7096 H       1  UNL1        0.0366
     34 H          -1.9441    1.2532    0.8571 H       1  UNL1        0.0366
     35 H          -1.3947    2.8411    2.9798 H       1  UNL1        0.0810
     36 H          -0.4577   -2.2788    2.7309 H       1  UNL1        0.0627
     37 H           1.3573   -1.9768    6.6268 H       1  UNL1        0.0621
     38 H           0.9766    0.4593    6.6481 H       1  UNL1        0.0638
     39 H           0.7244   -4.2171    3.7402 H       1  UNL1        0.0565
     40 H           1.4475   -4.0995    5.3699 H       1  UNL1        0.0565
     41 H          -0.3600   -7.5602    7.0345 H       1  UNL1        0.0444
     42 H           0.4628   -6.0332    7.3786 H       1  UNL1        0.0444
     43 H           2.1873   -6.4624    5.8008 H       1  UNL1        0.0278
     44 H           1.8739   -8.1090    6.3560 H       1  UNL1        0.0278
     45 H           1.6520   -7.2166    3.7012 H       1  UNL1        0.0278
     46 H           0.8574   -8.6689    4.3047 H       1  UNL1        0.0278
     47 H          -0.4597   -6.3021    3.3814 H       1  UNL1        0.0444
     48 H          -1.2108   -7.6719    4.2087 H       1  UNL1        0.0444
     49 H          -3.4920   -0.0592    3.1880 H       1  UNL1        0.2028
@<TRIPOS>UNITY_ATOM_ATTR
2 1
charge 1
@<TRIPOS>BOND
     1     1     2    1
     2     1    25    1
     3     1    26    1
     4     1    27    1
     5     2     3    1
     6     2     4    1
     7     2    49    1
     8     3    28    1
     9     3    29    1
    10     3    30    1
    11     4     5    1
    12     4    31    1
    13     4    32    1
    14     5     6    1
    15     5    33    1
    16     5    34    1
    17     6    11   ar
    18     6     7   ar
    19     7     8   ar
    20     7    35    1
    21     8     9    1
    22     8    10   ar
    23    10    15   ar
    24    10    11   ar
    25    11    12   ar
    26    12    13   ar
    27    12    36    1
    28    13    14   ar
    29    13    16    1
    30    14    15   ar
    31    14    37    1
    32    15    38    1
    33    16    17    1
    34    16    39    1
    35    16    40    1
    36    17    18    2
    37    17    19    2
    38    17    20    1
    39    20    24    1
    40    20    21    1
    41    21    22    1
    42    21    41    1
    43    21    42    1
    44    22    23    1
    45    22    43    1
    46    22    44    1
    47    23    24    1
    48    23    45    1
    49    23    46    1
    50    24    47    1
    51    24    48    1
