@<TRIPOS>MOLECULE
ZINC01719652
 53 54 0 0 0
SMALL
GASTEIGER

@<TRIPOS>ATOM
      1 C          -2.0378    6.0267    8.8064 C.3     1  UNL1       -0.0396
      2 C          -0.9599    6.8059    8.1164 C.ar    1  UNL1       -0.0470
      3 C          -0.5835    8.0401    8.6581 C.ar    1  UNL1       -0.0586
      4 C           0.3927    8.7975    8.0157 C.ar    1  UNL1       -0.0581
      5 C           0.9765    8.3387    6.8253 C.ar    1  UNL1       -0.0199
      6 C           0.5924    7.1230    6.2469 C.ar    1  UNL1        0.1209
      7 C          -0.3799    6.3592    6.9041 C.ar    1  UNL1       -0.0170
      8 O           1.1023    6.8403    4.9935 O.3     1  UNL1       -0.4892
      9 C           1.5113    5.4904    4.7167 C.3     1  UNL1        0.1204
     10 C           0.7426    4.8425    3.5333 C.3     1  UNL1        0.1285
     11 H          -0.3138    4.8927    3.8329 H       1  UNL1        0.0681
     12 C           0.7482    5.4264    2.0913 C.3     1  UNL1       -0.0038
     13 C           2.8312    4.3972    0.8161 C.3     1  UNL1       -0.0295
     14 C           3.9699    4.8801   -0.1393 C.3     1  UNL1        0.0127
     15 C           4.8072    6.0498    0.3428 C.ar    1  UNL1       -0.0387
     16 C           5.2940    7.0024   -0.5638 C.ar    1  UNL1       -0.0547
     17 C           6.0348    8.1058   -0.1152 C.ar    1  UNL1       -0.0160
     18 C           6.3107    8.2893    1.2445 C.ar    1  UNL1        0.1615
     19 C           5.8617    7.3187    2.1528 C.ar    1  UNL1        0.1617
     20 C           5.1556    6.1988    1.6872 C.ar    1  UNL1       -0.0129
     21 O           5.9574    7.3042    3.5201 O.3     1  UNL1       -0.4914
     22 C           6.7502    8.2885    4.1694 C.3     1  UNL1        0.0790
     23 O           7.0205    9.3489    1.7305 O.3     1  UNL1       -0.4915
     24 C           7.2310   10.4826    0.8986 C.3     1  UNL1        0.0790
     25 O           1.0788    3.4520    3.4326 O.3     1  UNL1       -0.3831
     26 H          -1.9570    6.1076    9.8936 H       1  UNL1        0.0278
     27 H          -3.0307    6.3835    8.5029 H       1  UNL1        0.0278
     28 H          -1.9744    4.9470    8.5682 H       1  UNL1        0.0278
     29 H          -1.0453    8.4167    9.5682 H       1  UNL1        0.0620
     30 H           0.6906    9.7552    8.4468 H       1  UNL1        0.0619
     31 H           1.7384    8.9553    6.3553 H       1  UNL1        0.0654
     32 H          -0.7282    5.4271    6.4761 H       1  UNL1        0.0657
     33 H           2.5859    5.5016    4.4976 H       1  UNL1        0.0725
     34 H           1.4122    4.8476    5.6038 H       1  UNL1        0.0725
     35 H           0.1234    4.7766    1.4644 H       1  UNL1        0.0840
     36 H           0.3008    6.4235    2.0959 H       1  UNL1        0.0840
     37 H           3.2321    3.8764    1.6883 H       1  UNL1        0.0817
     38 H           2.1581    3.7298    0.2632 H       1  UNL1        0.0817
     39 H           3.5081    5.1627   -1.0973 H       1  UNL1        0.0365
     40 H           4.6426    4.0411   -0.3662 H       1  UNL1        0.0365
     41 H           5.1243    6.8991   -1.6356 H       1  UNL1        0.0621
     42 H           6.4014    8.8058   -0.8657 H       1  UNL1        0.0655
     43 H           4.8760    5.4440    2.4173 H       1  UNL1        0.0658
     44 H           7.8027    8.1879    3.8882 H       1  UNL1        0.0660
     45 H           6.3676    9.2981    3.9948 H       1  UNL1        0.0660
     46 H           6.6763    8.1089    5.2470 H       1  UNL1        0.0660
     47 H           7.8828   10.2388    0.0558 H       1  UNL1        0.0660
     48 H           6.2807   10.9108    0.5613 H       1  UNL1        0.0660
     49 H           7.7435   11.2383    1.5022 H       1  UNL1        0.0660
     50 H           0.2737    2.9405    3.6587 H       1  UNL1        0.2102
     51 N           2.0239    5.5790    1.3056 N.4     1  UNL1        0.2291
     52 H           1.7502    6.0741    0.4456 H       1  UNL1        0.2014
     53 H           2.6448    6.2390    1.7916 H       1  UNL1        0.2014
@<TRIPOS>UNITY_ATOM_ATTR
51 1
charge 1
@<TRIPOS>BOND
     1     1     2    1
     2     1    26    1
     3     1    27    1
     4     1    28    1
     5     2     7   ar
     6     2     3   ar
     7     3     4   ar
     8     3    29    1
     9     4     5   ar
    10     4    30    1
    11     5     6   ar
    12     5    31    1
    13     6     7   ar
    14     6     8    1
    15     7    32    1
    16     8     9    1
    17     9    10    1
    18     9    33    1
    19     9    34    1
    20    10    11    1
    21    10    12    1
    22    10    25    1
    23    12    35    1
    24    12    36    1
    25    12    51    1
    26    13    14    1
    27    13    37    1
    28    13    38    1
    29    13    51    1
    30    14    15    1
    31    14    39    1
    32    14    40    1
    33    15    20   ar
    34    15    16   ar
    35    16    17   ar
    36    16    41    1
    37    17    18   ar
    38    17    42    1
    39    18    19   ar
    40    18    23    1
    41    19    20   ar
    42    19    21    1
    43    20    43    1
    44    21    22    1
    45    22    44    1
    46    22    45    1
    47    22    46    1
    48    23    24    1
    49    24    47    1
    50    24    48    1
    51    24    49    1
    52    25    50    1
    53    51    52    1
    54    51    53    1
