@<TRIPOS>MOLECULE
ZINC00044027
 41 43 0 0 0
SMALL
GASTEIGER

@<TRIPOS>ATOM
      1 C          -4.7757   -0.5743   -1.9649 C.3     1  UNL1       -0.0433
      2 N          -4.3382    0.7053   -2.6153 N.4     1  UNL1        0.2309
      3 C          -5.5169    1.5720   -2.9884 C.3     1  UNL1       -0.0433
      4 C          -3.2987    1.4830   -1.8467 C.3     1  UNL1       -0.0309
      5 C          -1.9687    0.7503   -1.6506 C.3     1  UNL1        0.0036
      6 C          -1.0649    0.5706   -2.8833 C.3     1  UNL1        0.0221
      7 N          -1.6174   -0.3793   -3.8840 N.pl3   1  UNL1       -0.2981
      8 C          -1.3220   -1.7716   -3.6840 C.ar    1  UNL1        0.0479
      9 C          -0.5891   -2.2557   -2.5702 C.ar    1  UNL1       -0.0393
     10 C          -0.3303   -3.6188   -2.3593 C.ar    1  UNL1       -0.0599
     11 C          -0.8067   -4.5636   -3.2471 C.ar    1  UNL1       -0.0606
     12 C          -1.5099   -4.1362   -4.3649 C.ar    1  UNL1       -0.0462
     13 C          -1.7583   -2.7646   -4.5883 C.ar    1  UNL1        0.0341
     14 S          -2.6319   -2.4195   -6.0892 S.3     1  UNL1       -0.0857
     15 C          -2.6668   -0.6522   -6.1213 C.ar    1  UNL1        0.0342
     16 C          -2.1981    0.1692   -5.0730 C.ar    1  UNL1        0.0493
     17 C          -2.4267    1.5560   -5.2354 C.ar    1  UNL1       -0.0209
     18 C          -3.0920    2.0853   -6.3486 C.ar    1  UNL1        0.0428
     19 C          -3.5096    1.2622   -7.3741 C.ar    1  UNL1       -0.0422
     20 C          -3.2880   -0.1031   -7.2618 C.ar    1  UNL1       -0.0448
     21 CL         -3.4579    3.7646   -6.3876 Cl      1  UNL1       -0.0835
     22 H          -5.2374   -0.3395   -1.0048 H       1  UNL1        0.0777
     23 H          -3.9046   -1.2204   -1.8436 H       1  UNL1        0.0777
     24 H          -5.4856   -1.0670   -2.6364 H       1  UNL1        0.0777
     25 H          -5.8217    2.1497   -2.1108 H       1  UNL1        0.0777
     26 H          -5.2027    2.2352   -3.7982 H       1  UNL1        0.0777
     27 H          -6.3349    0.9329   -3.3308 H       1  UNL1        0.0777
     28 H          -3.1415    2.4307   -2.3740 H       1  UNL1        0.0815
     29 H          -3.7443    1.7143   -0.8716 H       1  UNL1        0.0815
     30 H          -1.3931    1.3566   -0.9368 H       1  UNL1        0.0332
     31 H          -2.1309   -0.2054   -1.1447 H       1  UNL1        0.0332
     32 H          -0.8192    1.5493   -3.3037 H       1  UNL1        0.0470
     33 H          -0.0707    0.2487   -2.5517 H       1  UNL1        0.0470
     34 H          -0.1620   -1.5969   -1.8208 H       1  UNL1        0.0636
     35 H           0.2579   -3.9388   -1.4993 H       1  UNL1        0.0618
     36 H          -0.6102   -5.6245   -3.0933 H       1  UNL1        0.0618
     37 H          -1.8619   -4.8857   -5.0718 H       1  UNL1        0.0629
     38 H          -2.1348    2.2837   -4.4901 H       1  UNL1        0.0651
     39 H          -4.0152    1.6629   -8.2485 H       1  UNL1        0.0632
     40 H          -3.6256   -0.7525   -8.0700 H       1  UNL1        0.0630
     41 H          -3.9100    0.3992   -3.4959 H       1  UNL1        0.2028
@<TRIPOS>UNITY_ATOM_ATTR
2 1
charge 1
@<TRIPOS>BOND
     1     1     2    1
     2     1    22    1
     3     1    23    1
     4     1    24    1
     5     2     3    1
     6     2     4    1
     7     2    41    1
     8     3    25    1
     9     3    26    1
    10     3    27    1
    11     4     5    1
    12     4    28    1
    13     4    29    1
    14     5     6    1
    15     5    30    1
    16     5    31    1
    17     6     7    1
    18     6    32    1
    19     6    33    1
    20     7    16    1
    21     7     8    1
    22     8    13   ar
    23     8     9   ar
    24     9    10   ar
    25     9    34    1
    26    10    11   ar
    27    10    35    1
    28    11    12   ar
    29    11    36    1
    30    12    13   ar
    31    12    37    1
    32    13    14    1
    33    14    15    1
    34    15    20   ar
    35    15    16   ar
    36    16    17   ar
    37    17    18   ar
    38    17    38    1
    39    18    19   ar
    40    18    21    1
    41    19    20   ar
    42    19    39    1
    43    20    40    1
