@<TRIPOS>MOLECULE
ZINC01550766
 50 52 0 0 0
SMALL
GASTEIGER

@<TRIPOS>ATOM
      1 C           1.3629    0.1005    0.7293 C.ar    1  UNL1       -0.0617
      2 C           0.4274    0.1309    1.7612 C.ar    1  UNL1       -0.0612
      3 C          -0.9375    0.2129    1.4653 C.ar    1  UNL1       -0.0543
      4 C          -1.3801    0.2636    0.1347 C.ar    1  UNL1       -0.0212
      5 C          -0.4330    0.1963   -0.8936 C.ar    1  UNL1       -0.0543
      6 C           0.9325    0.1227   -0.5962 C.ar    1  UNL1       -0.0612
      7 C          -2.8246    0.4651   -0.1657 C.2     1  UNL1       -0.0309
      8 C          -3.3492    1.7171   -0.2916 C.2     1  UNL1       -0.0070
      9 C          -4.8086    1.9260   -0.4570 C.ar    1  UNL1       -0.0170
     10 C          -5.3685    2.1124   -1.7244 C.ar    1  UNL1       -0.0540
     11 C          -6.7235    2.4224   -1.8557 C.ar    1  UNL1       -0.0612
     12 C          -7.5259    2.5519   -0.7212 C.ar    1  UNL1       -0.0617
     13 C          -6.9767    2.3634    0.5450 C.ar    1  UNL1       -0.0612
     14 C          -5.6236    2.0500    0.6782 C.ar    1  UNL1       -0.0540
     15 C          -2.4703    2.9159   -0.2776 C.ar    1  UNL1       -0.0168
     16 C          -2.2239    3.5999    0.9125 C.ar    1  UNL1       -0.0506
     17 C          -1.3611    4.6961    0.9196 C.ar    1  UNL1       -0.0194
     18 C          -0.7112    5.0926   -0.2533 C.ar    1  UNL1        0.1206
     19 C          -1.0392    4.4825   -1.4624 C.ar    1  UNL1       -0.0194
     20 C          -1.9136    3.3925   -1.4740 C.ar    1  UNL1       -0.0506
     21 O           0.2771    6.0458   -0.2998 O.3     1  UNL1       -0.4897
     22 C           1.0323    6.1355    0.9208 C.3     1  UNL1        0.1126
     23 C           2.4393    6.6448    0.6290 C.3     1  UNL1        0.0783
     24 O           2.4134    7.9732    0.1194 O.3     1  UNL1       -0.3917
     25 C          -3.6104   -0.8227   -0.3829 C.3     1  UNL1       -0.0131
     26 C          -3.6962   -1.8158    0.7757 C.3     1  UNL1        0.0266
     27 CL         -4.4785   -1.1299    2.2178 Cl      1  UNL1       -0.1251
     28 H           2.4263    0.0667    0.9574 H       1  UNL1        0.0618
     29 H           0.7581    0.1070    2.7964 H       1  UNL1        0.0618
     30 H          -1.6491    0.2602    2.2858 H       1  UNL1        0.0624
     31 H          -0.7490    0.2383   -1.9319 H       1  UNL1        0.0624
     32 H           1.6609    0.1041   -1.4023 H       1  UNL1        0.0618
     33 H          -4.7464    2.0392   -2.6126 H       1  UNL1        0.0624
     34 H          -7.1498    2.5849   -2.8415 H       1  UNL1        0.0618
     35 H          -8.5764    2.8119   -0.8243 H       1  UNL1        0.0618
     36 H          -7.5973    2.4741    1.4313 H       1  UNL1        0.0618
     37 H          -5.2006    1.9333    1.6726 H       1  UNL1        0.0624
     38 H          -2.6865    3.2741    1.8395 H       1  UNL1        0.0625
     39 H          -1.1959    5.2122    1.8591 H       1  UNL1        0.0654
     40 H          -0.5924    4.8276   -2.3904 H       1  UNL1        0.0654
     41 H          -2.1438    2.9047   -2.4180 H       1  UNL1        0.0625
     42 H           0.5138    6.8283    1.5924 H       1  UNL1        0.0720
     43 H           1.1373    5.1511    1.3941 H       1  UNL1        0.0720
     44 H           3.0262    6.6503    1.5529 H       1  UNL1        0.0591
     45 H           2.9445    6.0092   -0.1046 H       1  UNL1        0.0591
     46 H           1.8650    7.9429   -0.6863 H       1  UNL1        0.2095
     47 H          -4.6325   -0.6102   -0.7148 H       1  UNL1        0.0325
     48 H          -3.1507   -1.3453   -1.2332 H       1  UNL1        0.0325
     49 H          -4.3020   -2.6746    0.4661 H       1  UNL1        0.0433
     50 H          -2.7132   -2.1971    1.0653 H       1  UNL1        0.0433
@<TRIPOS>BOND
     1     1     6   ar
     2     1     2   ar
     3     1    28    1
     4     2     3   ar
     5     2    29    1
     6     3     4   ar
     7     3    30    1
     8     4     5   ar
     9     4     7    1
    10     5     6   ar
    11     5    31    1
    12     6    32    1
    13     7     8    2
    14     7    25    1
    15     8     9    1
    16     8    15    1
    17     9    14   ar
    18     9    10   ar
    19    10    11   ar
    20    10    33    1
    21    11    12   ar
    22    11    34    1
    23    12    13   ar
    24    12    35    1
    25    13    14   ar
    26    13    36    1
    27    14    37    1
    28    15    20   ar
    29    15    16   ar
    30    16    17   ar
    31    16    38    1
    32    17    18   ar
    33    17    39    1
    34    18    19   ar
    35    18    21    1
    36    19    20   ar
    37    19    40    1
    38    20    41    1
    39    21    22    1
    40    22    23    1
    41    22    42    1
    42    22    43    1
    43    23    24    1
    44    23    44    1
    45    23    45    1
    46    24    46    1
    47    25    26    1
    48    25    47    1
    49    25    48    1
    50    26    27    1
    51    26    49    1
    52    26    50    1
