@<TRIPOS>MOLECULE
ZINC00000652
 42 42 0 0 0
SMALL
GASTEIGER

@<TRIPOS>ATOM
      1 C           3.3494   -2.8979   -1.4635 C.3     1  UNL1       -0.0219
      2 C           2.2562   -3.6257   -2.2323 C.3     1  UNL1       -0.0283
      3 C           2.0721   -5.0490   -1.7163 C.3     1  UNL1       -0.0219
      4 N           0.9548   -2.8961   -2.0910 N.4     1  UNL1        0.2307
      5 C           0.8666   -1.5486   -2.7797 C.3     1  UNL1       -0.0035
      6 C          -0.5649   -1.0297   -2.6143 C.3     1  UNL1        0.1285
      7 H          -1.2611   -1.7711   -3.0248 H       1  UNL1        0.0681
      8 C          -0.8078    0.2885   -3.3555 C.3     1  UNL1        0.1204
      9 O          -0.0262    1.3596   -2.8151 O.3     1  UNL1       -0.4892
     10 C          -0.1068    2.5310   -3.5361 C.ar    1  UNL1        0.1207
     11 C          -0.9569    2.7421   -4.6234 C.ar    1  UNL1       -0.0182
     12 C          -0.8971    3.9250   -5.3667 C.ar    1  UNL1       -0.0370
     13 C           0.0044    4.9328   -5.0319 C.ar    1  UNL1        0.0336
     14 C           0.7955    4.7624   -3.8896 C.ar    1  UNL1       -0.0370
     15 C           0.7445    3.5686   -3.1492 C.ar    1  UNL1       -0.0182
     16 N           0.1768    6.1065   -5.8026 N.am    1  UNL1       -0.2857
     17 C          -0.4066    6.3862   -7.0303 C.2     1  UNL1        0.2141
     18 O          -1.2234    5.6966   -7.6328 O.2     1  UNL1       -0.2758
     19 C           0.1020    7.6792   -7.6148 C.3     1  UNL1        0.0125
     20 O          -0.8345   -0.9489   -1.2094 O.3     1  UNL1       -0.3831
     21 H           3.1013   -2.8100   -0.4004 H       1  UNL1        0.0284
     22 H           3.5174   -1.8918   -1.8582 H       1  UNL1        0.0284
     23 H           4.2988   -3.4376   -1.5462 H       1  UNL1        0.0284
     24 H           2.4872   -3.6550   -3.3030 H       1  UNL1        0.0845
     25 H           1.8334   -5.0641   -0.6474 H       1  UNL1        0.0284
     26 H           1.2669   -5.5647   -2.2510 H       1  UNL1        0.0284
     27 H           2.9895   -5.6301   -1.8634 H       1  UNL1        0.0284
     28 H           0.1948   -3.4926   -2.4450 H       1  UNL1        0.2017
     29 H           1.5807   -0.8933   -2.2740 H       1  UNL1        0.0841
     30 H           1.1389   -1.6950   -3.8284 H       1  UNL1        0.0841
     31 H          -0.5523    0.1310   -4.4112 H       1  UNL1        0.0725
     32 H          -1.8688    0.5442   -3.2515 H       1  UNL1        0.0725
     33 H          -1.6845    2.0084   -4.9522 H       1  UNL1        0.0655
     34 H          -1.5697    4.0173   -6.2126 H       1  UNL1        0.0637
     35 H           1.4825    5.5445   -3.5732 H       1  UNL1        0.0637
     36 H           1.3899    3.4563   -2.2816 H       1  UNL1        0.0655
     37 H           0.8577    6.7720   -5.4554 H       1  UNL1        0.1548
     38 H          -0.1639    8.5128   -6.9618 H       1  UNL1        0.0323
     39 H           1.1879    7.6273   -7.7370 H       1  UNL1        0.0323
     40 H          -0.3532    7.8376   -8.5967 H       1  UNL1        0.0323
     41 H          -1.1035   -0.0291   -1.0030 H       1  UNL1        0.2102
     42 H           0.7082   -2.7370   -1.0987 H       1  UNL1        0.2017
@<TRIPOS>UNITY_ATOM_ATTR
4 1
charge 1
@<TRIPOS>BOND
     1     1     2    1
     2     1    21    1
     3     1    22    1
     4     1    23    1
     5     2     3    1
     6     2     4    1
     7     2    24    1
     8     3    25    1
     9     3    26    1
    10     3    27    1
    11     4     5    1
    12     4    28    1
    13     4    42    1
    14     5    29    1
    15     5    30    1
    16     6     8    1
    17     6    20    1
    18     8     9    1
    19     8    31    1
    20     8    32    1
    21     9    10    1
    22    10    15   ar
    23    10    11   ar
    24    11    12   ar
    25    11    33    1
    26    12    13   ar
    27    12    34    1
    28    13    14   ar
    29    13    16    1
    30    14    15   ar
    31    14    35    1
    32    15    36    1
    33    16    17   am
    34    16    37    1
    35    17    18    2
    36    17    19    1
    37    19    38    1
    38    19    39    1
    39    19    40    1
    40    20    41    1
    41     6     7    1
    42     6     5    1
