@<TRIPOS>MOLECULE
ZINC03776875
 12 11 0 0 0
SMALL
GASTEIGER

@<TRIPOS>ATOM
      1 C           0.8556   -0.0707    0.0403 C.3     1  UNL1        0.2999
      2 H           0.2685    0.8400    0.2041 H       1  UNL1        0.1061
      3 C           0.5035   -0.6081   -1.3531 C.3     1  UNL1        0.4461
      4 F           0.2705    0.4090   -2.2166 F       1  UNL1       -0.1654
      5 F           1.4935   -1.3655   -1.8816 F       1  UNL1       -0.1654
      6 F          -0.6180   -1.3650   -1.3280 F       1  UNL1       -0.1654
      7 O           0.6122   -1.0065    1.0827 O.3     1  UNL1       -0.2800
      8 C           0.9175   -0.4211    2.3263 C.3     1  UNL1        0.3491
      9 F           0.2855    0.7687    2.4262 F       1  UNL1       -0.1782
     10 F           0.3805   -1.2183    3.2873 F       1  UNL1       -0.1782
     11 F           2.1727    0.2784    0.1042 F       1  UNL1       -0.2047
     12 H           1.9878   -0.3097    2.4970 H       1  UNL1        0.1361
@<TRIPOS>BOND
     1     1     2    1
     2     1     3    1
     3     1     7    1
     4     1    11    1
     5     3     4    1
     6     3     5    1
     7     3     6    1
     8     7     8    1
     9     8     9    1
    10     8    10    1
    11     8    12    1
