@<TRIPOS>MOLECULE
ZINC01532179
 42 41 0 0 0
SMALL
GASTEIGER

@<TRIPOS>ATOM
      1 C          -1.2578   -2.1083   -2.1656 C.3     1  UNL1       -0.0653
      2 C          -1.6704   -1.1422   -1.0683 C.3     1  UNL1       -0.0559
      3 C          -1.1053    0.2531   -1.3246 C.3     1  UNL1       -0.0533
      4 C          -1.5083    1.2291   -0.2198 C.3     1  UNL1       -0.0531
      5 C          -0.9239    2.6096   -0.5008 C.3     1  UNL1       -0.0531
      6 C          -1.2837    3.6173    0.5881 C.3     1  UNL1       -0.0531
      7 C          -0.7318    5.0120    0.2765 C.3     1  UNL1       -0.0531
      8 C          -1.2904    5.6432   -1.0071 C.3     1  UNL1       -0.0531
      9 C          -2.8169    5.7717   -1.0367 C.3     1  UNL1       -0.0530
     10 C          -3.3330    6.6728    0.0838 C.3     1  UNL1       -0.0509
     11 C          -4.8530    6.7672    0.0857 C.3     1  UNL1       -0.0273
     12 C          -5.3364    7.6539    1.2284 C.3     1  UNL1        0.0748
     13 O          -6.7466    7.7262    1.1672 O.3     1  UNL1       -0.2547
     14 S          -7.4881    8.6803    2.2583 S.3     1  UNL1       -0.0009
     15 O          -8.9054    8.4949    1.9585 O.2     1  UNL1       -0.3452
     16 O          -7.0620    8.1402    3.5442 O.2     1  UNL1       -0.3452
     17 H          -1.6435   -1.7854   -3.1384 H       1  UNL1        0.0230
     18 H          -1.6511   -3.1068   -1.9573 H       1  UNL1        0.0230
     19 H          -0.1667   -2.1791   -2.2364 H       1  UNL1        0.0230
     20 H          -2.7636   -1.0958   -1.0177 H       1  UNL1        0.0263
     21 H          -1.3123   -1.5142   -0.1032 H       1  UNL1        0.0263
     22 H          -0.0111    0.2022   -1.3866 H       1  UNL1        0.0265
     23 H          -1.4643    0.6243   -2.2929 H       1  UNL1        0.0265
     24 H          -2.6020    1.2967   -0.1669 H       1  UNL1        0.0265
     25 H          -1.1552    0.8645    0.7515 H       1  UNL1        0.0265
     26 H           0.1681    2.5421   -0.5815 H       1  UNL1        0.0265
     27 H          -1.2989    2.9474   -1.4725 H       1  UNL1        0.0265
     28 H          -2.3708    3.6568    0.7246 H       1  UNL1        0.0265
     29 H          -0.8701    3.2816    1.5468 H       1  UNL1        0.0265
     30 H          -0.9299    5.6701    1.1300 H       1  UNL1        0.0265
     31 H           0.3606    4.9568    0.1938 H       1  UNL1        0.0265
     32 H          -0.8430    6.6366   -1.1328 H       1  UNL1        0.0265
     33 H          -0.9671    5.0614   -1.8778 H       1  UNL1        0.0265
     34 H          -3.1163    6.1869   -2.0068 H       1  UNL1        0.0265
     35 H          -3.2845    4.7825   -0.9734 H       1  UNL1        0.0265
     36 H          -3.0131    6.2896    1.0583 H       1  UNL1        0.0266
     37 H          -2.8979    7.6733   -0.0292 H       1  UNL1        0.0266
     38 H          -5.2154    7.1629   -0.8700 H       1  UNL1        0.0288
     39 H          -5.2951    5.7687    0.1908 H       1  UNL1        0.0288
     40 H          -5.0253    7.2261    2.1882 H       1  UNL1        0.0583
     41 H          -4.9020    8.6550    1.1324 H       1  UNL1        0.0583
     42 O          -6.9746   10.0145    1.9582 O.3     1  UNL1       -0.2682
@<TRIPOS>BOND
     1     1     2    1
     2     1    17    1
     3     1    18    1
     4     1    19    1
     5     2     3    1
     6     2    20    1
     7     2    21    1
     8     3     4    1
     9     3    22    1
    10     3    23    1
    11     4     5    1
    12     4    24    1
    13     4    25    1
    14     5     6    1
    15     5    26    1
    16     5    27    1
    17     6     7    1
    18     6    28    1
    19     6    29    1
    20     7     8    1
    21     7    30    1
    22     7    31    1
    23     8     9    1
    24     8    32    1
    25     8    33    1
    26     9    10    1
    27     9    34    1
    28     9    35    1
    29    10    11    1
    30    10    36    1
    31    10    37    1
    32    11    12    1
    33    11    38    1
    34    11    39    1
    35    12    13    1
    36    12    40    1
    37    12    41    1
    38    13    14    1
    39    14    15    2
    40    14    16    2
    41    14    42    1
