@<TRIPOS>MOLECULE
ZINC03830611
 44 45 0 0 0
SMALL
GASTEIGER

@<TRIPOS>ATOM
      1 C           2.7591   -1.1933    0.1234 C.3     1  UNL1       -0.0623
      2 C           1.4841   -0.4184   -0.2118 C.3     1  UNL1       -0.0401
      3 H           1.3959   -0.3838   -1.3056 H       1  UNL1        0.0299
      4 C           1.5698    1.0220    0.3164 C.3     1  UNL1       -0.0130
      5 C           0.3078    1.8132   -0.0368 C.3     1  UNL1        0.1039
      6 H           0.2001    1.8659   -1.1286 H       1  UNL1        0.0734
      7 C          -0.9207    1.1001    0.5678 C.3     1  UNL1       -0.0105
      8 C          -1.0765   -0.4010    0.2012 C.3     1  UNL1       -0.0313
      9 C           0.2622   -1.1568    0.3617 C.3     1  UNL1       -0.0450
     10 C          -2.1265   -1.0365    1.1409 C.3     1  UNL1       -0.0597
     11 C          -1.6051   -0.5776   -1.2337 C.3     1  UNL1       -0.0597
     12 O           0.3553    3.1509    0.5422 O.3     1  UNL1       -0.4593
     13 C           1.0626    4.1464   -0.1010 C.2     1  UNL1        0.3409
     14 O           1.6698    3.9881   -1.1482 O.2     1  UNL1       -0.2475
     15 C           0.9668    5.5226    0.6377 C.3     1  UNL1        0.1767
     16 H           1.9093    6.0390    0.4301 H       1  UNL1        0.0762
     17 C          -0.1912    6.3750    0.1330 C.ar    1  UNL1       -0.0084
     18 C           0.0112    7.6627   -0.3948 C.ar    1  UNL1       -0.0556
     19 C          -1.0809    8.4926   -0.6750 C.ar    1  UNL1       -0.0614
     20 C          -2.3796    8.0505   -0.4366 C.ar    1  UNL1       -0.0617
     21 C          -2.5938    6.7539    0.0235 C.ar    1  UNL1       -0.0614
     22 C          -1.5094    5.9207    0.2966 C.ar    1  UNL1       -0.0556
     23 O           0.9034    5.4653    2.0684 O.3     1  UNL1       -0.3762
     24 H           2.9022   -1.2706    1.2069 H       1  UNL1        0.0232
     25 H           2.7136   -2.2098   -0.2837 H       1  UNL1        0.0232
     26 H           3.6397   -0.7013   -0.3013 H       1  UNL1        0.0232
     27 H           1.7197    1.0244    1.4040 H       1  UNL1        0.0303
     28 H           2.4466    1.5260   -0.1065 H       1  UNL1        0.0303
     29 H          -0.8558    1.1931    1.6617 H       1  UNL1        0.0306
     30 H          -1.8292    1.6521    0.2934 H       1  UNL1        0.0306
     31 H           0.1868   -2.1448   -0.1154 H       1  UNL1        0.0273
     32 H           0.4407   -1.3536    1.4277 H       1  UNL1        0.0273
     33 H          -3.0836   -0.5059    1.0783 H       1  UNL1        0.0235
     34 H          -2.3110   -2.0854    0.8809 H       1  UNL1        0.0235
     35 H          -1.7991   -1.0067    2.1862 H       1  UNL1        0.0235
     36 H          -1.7240   -1.6419   -1.4768 H       1  UNL1        0.0235
     37 H          -2.5915   -0.1135   -1.3470 H       1  UNL1        0.0235
     38 H          -0.9343   -0.1438   -1.9795 H       1  UNL1        0.0235
     39 H           1.0154    8.0435   -0.5723 H       1  UNL1        0.0621
     40 H          -0.9196    9.4964   -1.0676 H       1  UNL1        0.0618
     41 H          -3.2255    8.7126   -0.6034 H       1  UNL1        0.0618
     42 H          -3.6056    6.3959    0.1934 H       1  UNL1        0.0618
     43 H          -1.6993    4.9186    0.6761 H       1  UNL1        0.0621
     44 H           0.2483    6.1236    2.3648 H       1  UNL1        0.2110
@<TRIPOS>BOND
     1     1     2    1
     2     1    24    1
     3     1    25    1
     4     1    26    1
     5     2     3    1
     6     2     9    1
     7     2     4    1
     8     4     5    1
     9     4    27    1
    10     4    28    1
    11     5     7    1
    12     7     8    1
    13     7    29    1
    14     7    30    1
    15     8     9    1
    16     8    10    1
    17     8    11    1
    18     9    31    1
    19     9    32    1
    20    10    33    1
    21    10    34    1
    22    10    35    1
    23    11    36    1
    24    11    37    1
    25    11    38    1
    26    12    13    1
    27    13    14    2
    28    13    15    1
    29    15    16    1
    30    15    17    1
    31    15    23    1
    32    17    22   ar
    33    17    18   ar
    34    18    19   ar
    35    18    39    1
    36    19    20   ar
    37    19    40    1
    38    20    21   ar
    39    20    41    1
    40    21    22   ar
    41    21    42    1
    42    22    43    1
    43    23    44    1
    44     5    12    1
    45     5     6    1
