@<TRIPOS>MOLECULE
ZINC00597013
 58 61 0 0 0
SMALL
GASTEIGER

@<TRIPOS>ATOM
      1 C          -4.9503   -8.7620   -7.8085 C.3     1  UNL1        0.0790
      2 O          -5.5922   -7.7637   -7.0159 O.3     1  UNL1       -0.4914
      3 C          -4.8461   -6.6340   -6.7924 C.ar    1  UNL1        0.1618
      4 C          -3.9465   -6.1529   -7.7612 C.ar    1  UNL1       -0.0124
      5 C          -3.1447   -5.0686   -7.4480 C.ar    1  UNL1       -0.0325
      6 C          -3.3345   -4.3986   -6.2516 C.ar    1  UNL1        0.0246
      7 C          -4.2807   -4.7698   -5.3216 C.ar    1  UNL1       -0.0056
      8 C          -5.0144   -5.9354   -5.5718 C.ar    1  UNL1        0.1622
      9 O          -5.8377   -6.2730   -4.5298 O.3     1  UNL1       -0.4914
     10 C          -6.0511   -7.6617   -4.3028 C.3     1  UNL1        0.0790
     11 C          -2.2915   -3.3929   -6.1214 C.2     1  UNL1        0.1669
     12 O          -2.1371   -2.6678   -5.1573 O.2     1  UNL1       -0.2917
     13 C          -1.3599   -3.4956   -7.3067 C.3     1  UNL1        0.0264
     14 H          -1.3647   -2.5145   -7.7992 H       1  UNL1        0.0384
     15 C          -2.0370   -4.4906   -8.2685 C.3     1  UNL1       -0.0170
     16 C           0.0944   -3.7847   -6.9001 C.3     1  UNL1       -0.0397
     17 C           0.5228   -5.0103   -6.0424 C.3     1  UNL1       -0.0308
     18 C           0.0105   -5.1007   -4.6075 C.3     1  UNL1       -0.0095
     19 C           0.4185   -3.9444   -3.7033 C.3     1  UNL1       -0.0313
     20 N           1.7742   -3.3182   -3.9786 N.4     1  UNL1        0.2385
     21 C           2.5649   -3.7446   -5.2026 C.3     1  UNL1       -0.0313
     22 C           2.0530   -5.0141   -5.8720 C.3     1  UNL1       -0.0095
     23 C           2.6832   -3.2238   -2.7642 C.3     1  UNL1       -0.0059
     24 C           2.1903   -2.5426   -1.5094 C.ar    1  UNL1       -0.0029
     25 C           3.0095   -2.6464   -0.3677 C.ar    1  UNL1       -0.0535
     26 C           2.6103   -2.1200    0.8613 C.ar    1  UNL1       -0.0613
     27 C           1.3871   -1.4706    0.9707 C.ar    1  UNL1       -0.0617
     28 C           0.5903   -1.3036   -0.1585 C.ar    1  UNL1       -0.0613
     29 C           0.9977   -1.8144   -1.3963 C.ar    1  UNL1       -0.0535
     30 H          -5.4367   -9.7188   -7.6075 H       1  UNL1        0.0660
     31 H          -3.8877   -8.8707   -7.5525 H       1  UNL1        0.0660
     32 H          -5.0706   -8.5376   -8.8740 H       1  UNL1        0.0660
     33 H          -3.8480   -6.6264   -8.7318 H       1  UNL1        0.0658
     34 H          -4.4071   -4.2194   -4.3970 H       1  UNL1        0.0662
     35 H          -6.9360   -7.9978   -4.8491 H       1  UNL1        0.0660
     36 H          -5.1738   -8.2728   -4.5429 H       1  UNL1        0.0660
     37 H          -6.2486   -7.7937   -3.2335 H       1  UNL1        0.0660
     38 H          -2.4636   -3.9514   -9.1248 H       1  UNL1        0.0320
     39 H          -1.3530   -5.2578   -8.6376 H       1  UNL1        0.0320
     40 H           0.6766   -3.8345   -7.8306 H       1  UNL1        0.0275
     41 H           0.4266   -2.8775   -6.3894 H       1  UNL1        0.0275
     42 H           0.2317   -5.9302   -6.5691 H       1  UNL1        0.0305
     43 H          -1.0738   -5.2342   -4.5785 H       1  UNL1        0.0319
     44 H           0.4047   -6.0243   -4.1537 H       1  UNL1        0.0319
     45 H          -0.2984   -3.1294   -3.8017 H       1  UNL1        0.0814
     46 H           0.3923   -4.2798   -2.6606 H       1  UNL1        0.0814
     47 H           3.6156   -3.8714   -4.9234 H       1  UNL1        0.0814
     48 H           2.5284   -2.8981   -5.8982 H       1  UNL1        0.0814
     49 H           2.3679   -5.8812   -5.2729 H       1  UNL1        0.0319
     50 H           2.5426   -5.1352   -6.8446 H       1  UNL1        0.0319
     51 H           2.9713   -4.2560   -2.5336 H       1  UNL1        0.0867
     52 H           3.5708   -2.6703   -3.0983 H       1  UNL1        0.0867
     53 H           3.9748   -3.1498   -0.4186 H       1  UNL1        0.0622
     54 H           3.2494   -2.2240    1.7357 H       1  UNL1        0.0618
     55 H           1.0591   -1.0847    1.9338 H       1  UNL1        0.0618
     56 H          -0.3581   -0.7765   -0.0700 H       1  UNL1        0.0618
     57 H           0.3406   -1.6320   -2.2401 H       1  UNL1        0.0622
     58 H           1.5460   -2.3316   -4.1602 H       1  UNL1        0.2037
@<TRIPOS>UNITY_ATOM_ATTR
20 1
charge 1
@<TRIPOS>BOND
     1     1     2    1
     2     1    30    1
     3     1    31    1
     4     1    32    1
     5     2     3    1
     6     3     8   ar
     7     3     4   ar
     8     4     5   ar
     9     4    33    1
    10     5    15    1
    11     5     6   ar
    12     6     7   ar
    13     6    11    1
    14     7     8   ar
    15     7    34    1
    16     8     9    1
    17     9    10    1
    18    10    35    1
    19    10    36    1
    20    10    37    1
    21    11    12    2
    22    11    13    1
    23    13    14    1
    24    13    15    1
    25    13    16    1
    26    15    38    1
    27    15    39    1
    28    16    17    1
    29    16    40    1
    30    16    41    1
    31    17    22    1
    32    17    18    1
    33    17    42    1
    34    18    19    1
    35    18    43    1
    36    18    44    1
    37    19    20    1
    38    19    45    1
    39    19    46    1
    40    20    21    1
    41    20    23    1
    42    20    58    1
    43    21    22    1
    44    21    47    1
    45    21    48    1
    46    22    49    1
    47    22    50    1
    48    23    24    1
    49    23    51    1
    50    23    52    1
    51    24    29   ar
    52    24    25   ar
    53    25    26   ar
    54    25    53    1
    55    26    27   ar
    56    26    54    1
    57    27    28   ar
    58    27    55    1
    59    28    29   ar
    60    28    56    1
    61    29    57    1
