@<TRIPOS>MOLECULE
ZINC02041046
 29 29 0 0 0
SMALL
GASTEIGER

@<TRIPOS>ATOM
      1 C           0.6122    2.1210    0.9451 C.3     1  UNL1        0.0533
      2 N           0.2435    1.3048   -0.2211 N.pl3   1  UNL1       -0.2812
      3 C          -0.4731    1.6897   -1.3049 C.cat   1  UNL1        0.3454
      4 C          -0.3347   -0.5876   -2.4537 C.3     1  UNL1        0.0533
      5 N          -0.9423    2.9552   -1.3976 N.pl3   1  UNL1       -0.2744
      6 C          -1.6994    3.5084   -2.5176 C.3     1  UNL1        0.0899
      7 C          -1.9901    4.9459   -2.1919 C.ar    1  UNL1       -0.0141
      8 C          -3.1323    5.2899   -1.4555 C.ar    1  UNL1       -0.0556
      9 C          -3.3817    6.6222   -1.1247 C.ar    1  UNL1       -0.0614
     10 C          -2.4904    7.6170   -1.5151 C.ar    1  UNL1       -0.0617
     11 C          -1.3400    7.2840   -2.2283 C.ar    1  UNL1       -0.0614
     12 C          -1.0865    5.9529   -2.5621 C.ar    1  UNL1       -0.0556
     13 H           0.2532    3.1477    0.8746 H       1  UNL1        0.0618
     14 H           1.7014    2.1377    1.0234 H       1  UNL1        0.0618
     15 H           0.1867    1.6609    1.8405 H       1  UNL1        0.0618
     16 H           0.5706    0.3507   -0.2001 H       1  UNL1        0.2575
     17 H          -1.2430   -1.1870   -2.5643 H       1  UNL1        0.0618
     18 H           0.2704   -0.6845   -3.3591 H       1  UNL1        0.0618
     19 H           0.2325   -0.9480   -1.5969 H       1  UNL1        0.0618
     20 H          -0.7571    3.5906   -0.6344 H       1  UNL1        0.2581
     21 H          -1.1016    3.4372   -3.4325 H       1  UNL1        0.0706
     22 H          -2.6334    2.9501   -2.6405 H       1  UNL1        0.0706
     23 H          -3.8433    4.5295   -1.1399 H       1  UNL1        0.0621
     24 H          -4.2779    6.8880   -0.5668 H       1  UNL1        0.0618
     25 H          -2.6909    8.6569   -1.2646 H       1  UNL1        0.0618
     26 H          -0.6459    8.0646   -2.5300 H       1  UNL1        0.0618
     27 H          -0.1821    5.7165   -3.1189 H       1  UNL1        0.0621
     28 N          -0.7328    0.8216   -2.3160 N.pl3   1  UNL1       -0.2812
     29 H          -1.2791    1.1729   -3.0869 H       1  UNL1        0.2575
@<TRIPOS>BOND
     1     1     2    1
     2     1    13    1
     3     1    14    1
     4     1    15    1
     5     2     3    1
     6     2    16    1
     7     3     5    1
     8     3    28    2
     9     4    17    1
    10     4    18    1
    11     4    19    1
    12     4    28    1
    13     5     6    1
    14     5    20    1
    15     6     7    1
    16     6    21    1
    17     6    22    1
    18     7    12   ar
    19     7     8   ar
    20     8     9   ar
    21     8    23    1
    22     9    10   ar
    23     9    24    1
    24    10    11   ar
    25    10    25    1
    26    11    12   ar
    27    11    26    1
    28    12    27    1
    29    28    29    1
