@<TRIPOS>MOLECULE
ZINC00896484
 23 24 0 0 0
SMALL
GASTEIGER

@<TRIPOS>ATOM
      1 C           0.1060   -2.1760   -0.3306 C.ar    1  UNL1       -0.0588
      2 C          -0.2798   -1.3301   -1.3676 C.ar    1  UNL1       -0.0398
      3 C          -0.3093    0.0579   -1.1704 C.ar    1  UNL1        0.0843
      4 C           0.0571    0.6332    0.0633 C.ar    1  UNL1        0.1780
      5 C           0.5033   -0.2449    1.0725 C.ar    1  UNL1        0.0843
      6 C           0.4965   -1.6337    0.8868 C.ar    1  UNL1       -0.0398
      7 CL          1.1128    0.3183    2.5951 Cl      1  UNL1       -0.0798
      8 N           0.0477    2.0433    0.2038 N.2     1  UNL1       -0.0739
      9 C          -0.6529    2.6130    1.1178 C.cat   1  UNL1        0.3704
     10 N          -0.6597    3.9691    1.3041 N.pl3   1  UNL1       -0.2353
     11 C          -1.5184    4.3952    2.3838 C.3     1  UNL1        0.0866
     12 C          -1.6864    3.0794    3.1562 C.3     1  UNL1        0.0866
     13 N          -1.4626    2.0950    2.1046 N.pl3   1  UNL1       -0.2353
     14 CL         -0.7912    1.0354   -2.5189 Cl      1  UNL1       -0.0798
     15 H           0.1202   -3.2532   -0.4821 H       1  UNL1        0.0618
     16 H          -0.5508   -1.7531   -2.3336 H       1  UNL1        0.0633
     17 H           0.8114   -2.2940    1.6893 H       1  UNL1        0.0633
     18 H          -2.4783    4.7419    1.9890 H       1  UNL1        0.0662
     19 H          -1.0657    5.1809    2.9950 H       1  UNL1        0.0662
     20 H          -2.6676    2.9783    3.6253 H       1  UNL1        0.0662
     21 H          -0.9058    2.9772    3.9194 H       1  UNL1        0.0662
     22 H          -1.2513    1.1516    2.3979 H       1  UNL1        0.2445
     23 H          -0.4222    4.5611    0.5206 H       1  UNL1        0.2445
@<TRIPOS>BOND
     1     1     6   ar
     2     1     2   ar
     3     1    15    1
     4     2     3   ar
     5     2    16    1
     6     3     4   ar
     7     3    14    1
     8     4     5   ar
     9     4     8    1
    10     5     6   ar
    11     5     7    1
    12     6    17    1
    13     8     9    2
    14     9    13    1
    15     9    10    1
    16    10    11    1
    17    10    23    1
    18    11    12    1
    19    11    18    1
    20    11    19    1
    21    12    13    1
    22    12    20    1
    23    12    21    1
    24    13    22    1
