@<TRIPOS>MOLECULE
ZINC00537822
 50 52 0 0 0
SMALL
GASTEIGER

@<TRIPOS>ATOM
      1 C          -2.5152   -1.7395    2.2255 C.ar    1  UNL1       -0.0486
      2 C          -2.9133   -2.6840    3.1773 C.ar    1  UNL1       -0.0258
      3 C          -3.1273   -4.0049    2.7976 C.ar    1  UNL1        0.1234
      4 C          -2.9259   -4.4100    1.4834 C.ar    1  UNL1       -0.0258
      5 C          -2.5218   -3.4717    0.5293 C.ar    1  UNL1       -0.0486
      6 C          -2.3386   -2.1259    0.8898 C.ar    1  UNL1        0.0176
      7 C          -1.9616   -1.1451   -0.1723 C.2     1  UNL1        0.1634
      8 O          -1.3573   -1.5366   -1.1668 O.2     1  UNL1       -0.2921
      9 C          -2.3606    0.3228   -0.0103 C.3     1  UNL1        0.0153
     10 C          -2.0877    1.1116   -1.3052 C.3     1  UNL1       -0.0055
     11 C          -2.5641    2.5697   -1.3461 C.3     1  UNL1       -0.0315
     12 N          -2.0274    3.4308   -0.2168 N.4     1  UNL1        0.2354
     13 C          -2.7579    4.7614   -0.0769 C.3     1  UNL1       -0.0289
     14 C          -2.1708    5.8455   -0.9670 C.3     1  UNL1        0.0207
     15 C          -0.6600    6.0378   -0.7375 C.3     1  UNL1        0.1005
     16 C          -0.0171    4.6798   -1.0784 C.3     1  UNL1        0.0207
     17 C          -0.5214    3.5803   -0.1541 C.3     1  UNL1       -0.0289
     18 C          -0.2736    6.6078    0.6341 C.ar    1  UNL1       -0.0157
     19 C          -1.0943    7.5392    1.3033 C.ar    1  UNL1       -0.0545
     20 C          -0.7244    8.0889    2.5387 C.ar    1  UNL1       -0.0430
     21 C           0.4849    7.7375    3.1236 C.ar    1  UNL1        0.0410
     22 C           1.3321    6.8477    2.4764 C.ar    1  UNL1       -0.0430
     23 C           0.9628    6.3034    1.2402 C.ar    1  UNL1       -0.0545
     24 CL          0.9480    8.4212    4.6302 Cl      1  UNL1       -0.0835
     25 O          -0.2255    7.0344   -1.6632 O.3     1  UNL1       -0.3836
     26 F          -3.5325   -4.8951    3.7114 F       1  UNL1       -0.2055
     27 H          -2.3299   -0.7236    2.5567 H       1  UNL1        0.0625
     28 H          -3.0549   -2.4045    4.2182 H       1  UNL1        0.0646
     29 H          -3.0868   -5.4505    1.2125 H       1  UNL1        0.0646
     30 H          -2.3597   -3.7980   -0.4975 H       1  UNL1        0.0625
     31 H          -3.4286    0.3678    0.2290 H       1  UNL1        0.0347
     32 H          -1.7807    0.7493    0.8133 H       1  UNL1        0.0347
     33 H          -1.0190    1.0621   -1.5430 H       1  UNL1        0.0321
     34 H          -2.5884    0.5919   -2.1339 H       1  UNL1        0.0321
     35 H          -2.2747    3.0466   -2.2881 H       1  UNL1        0.0814
     36 H          -3.6565    2.5901   -1.2649 H       1  UNL1        0.0814
     37 H          -2.6939    5.0337    0.9813 H       1  UNL1        0.0815
     38 H          -3.8136    4.5900   -0.3140 H       1  UNL1        0.0815
     39 H          -2.7210    6.7838   -0.8303 H       1  UNL1        0.0348
     40 H          -2.3449    5.5918   -2.0227 H       1  UNL1        0.0348
     41 H          -0.2400    4.4194   -2.1225 H       1  UNL1        0.0348
     42 H           1.0768    4.7346   -1.0482 H       1  UNL1        0.0348
     43 H          -0.0667    2.6195   -0.4037 H       1  UNL1        0.0815
     44 H          -0.2841    3.7868    0.8941 H       1  UNL1        0.0815
     45 H          -2.0209    7.8988    0.8632 H       1  UNL1        0.0622
     46 H          -1.3736    8.8154    3.0253 H       1  UNL1        0.0632
     47 H           2.2959    6.5961    2.9136 H       1  UNL1        0.0632
     48 H           1.6943    5.6603    0.7580 H       1  UNL1        0.0622
     49 H           0.2033    6.6359   -2.4381 H       1  UNL1        0.2106
     50 H          -2.2843    2.9259    0.6404 H       1  UNL1        0.2033
@<TRIPOS>UNITY_ATOM_ATTR
12 1
charge 1
@<TRIPOS>BOND
     1     1     6   ar
     2     1     2   ar
     3     1    27    1
     4     2     3   ar
     5     2    28    1
     6     3     4   ar
     7     3    26    1
     8     4     5   ar
     9     4    29    1
    10     5     6   ar
    11     5    30    1
    12     6     7    1
    13     7     8    2
    14     7     9    1
    15     9    10    1
    16     9    31    1
    17     9    32    1
    18    10    11    1
    19    10    33    1
    20    10    34    1
    21    11    35    1
    22    11    36    1
    23    12    17    1
    24    12    13    1
    25    13    14    1
    26    13    37    1
    27    13    38    1
    28    14    15    1
    29    14    39    1
    30    14    40    1
    31    15    16    1
    32    16    17    1
    33    16    41    1
    34    16    42    1
    35    17    43    1
    36    17    44    1
    37    18    23   ar
    38    18    19   ar
    39    19    20   ar
    40    19    45    1
    41    20    21   ar
    42    20    46    1
    43    21    22   ar
    44    21    24    1
    45    22    23   ar
    46    22    47    1
    47    23    48    1
    48    25    49    1
    49    12    50    1
    50    12    11    1
    51    15    25    1
    52    15    18    1
