@<TRIPOS>MOLECULE
ZINC00000856
 50 51 0 0 0
SMALL
GASTEIGER

@<TRIPOS>ATOM
      1 C           3.0309    4.2168    0.3681 C.3     1  UNL1       -0.0213
      2 C           2.4663    3.0583   -0.4474 C.3     1  UNL1       -0.0214
      3 H           1.3707    3.1088   -0.4137 H       1  UNL1        0.0851
      4 C           2.8737    3.1079   -1.9409 C.3     1  UNL1        0.0152
      5 C           4.3422    3.1418   -2.3113 C.ar    1  UNL1       -0.0418
      6 C           4.9794    4.3715   -2.5403 C.ar    1  UNL1       -0.0549
      7 C           6.2810    4.4194   -3.0502 C.ar    1  UNL1       -0.0197
      8 C           6.9912    3.2480   -3.3141 C.ar    1  UNL1        0.1201
      9 C           6.3828    2.0206   -3.0623 C.ar    1  UNL1       -0.0197
     10 C           5.0647    1.9675   -2.5709 C.ar    1  UNL1       -0.0549
     11 O           8.2126    3.4391   -3.8926 O.3     1  UNL1       -0.4951
     12 C           9.2036    2.4454   -3.6630 C.3     1  UNL1        0.0788
     13 N           2.8056    1.7295    0.1807 N.4     1  UNL1        0.2313
     14 C           2.1366    1.4418    1.5239 C.3     1  UNL1       -0.0025
     15 C           2.5129    0.0250    2.0239 C.3     1  UNL1        0.1197
     16 H           2.1156   -0.7240    1.3296 H       1  UNL1        0.0698
     17 C           2.0278   -0.2683    3.4344 C.ar    1  UNL1       -0.0121
     18 C           2.5435    0.4577    4.5091 C.ar    1  UNL1       -0.0524
     19 C           2.1545    0.1555    5.8169 C.ar    1  UNL1       -0.0180
     20 C           1.2233   -0.8468    6.0735 C.ar    1  UNL1        0.1380
     21 C           0.6425   -1.5718    5.0236 C.ar    1  UNL1        0.0755
     22 C           1.0754   -1.2803    3.7074 C.ar    1  UNL1       -0.0311
     23 N          -0.3247   -2.6040    5.1622 N.am    1  UNL1       -0.2852
     24 C          -1.0962   -2.8810    6.2604 C.2     1  UNL1        0.2042
     25 O          -1.1513   -2.2648    7.3164 O.2     1  UNL1       -0.2792
     26 O           1.0122   -1.0565    7.4041 O.3     1  UNL1       -0.5049
     27 O           3.9452   -0.0550    1.9351 O.3     1  UNL1       -0.3819
     28 H           2.5891    5.1592    0.0253 H       1  UNL1        0.0284
     29 H           4.1170    4.2994    0.2764 H       1  UNL1        0.0284
     30 H           2.7954    4.1339    1.4326 H       1  UNL1        0.0284
     31 H           2.4048    2.2676   -2.4708 H       1  UNL1        0.0368
     32 H           2.4050    4.0010   -2.3797 H       1  UNL1        0.0368
     33 H           4.4605    5.3150   -2.3822 H       1  UNL1        0.0621
     34 H           6.7425    5.3803   -3.2731 H       1  UNL1        0.0654
     35 H           6.8876    1.0897   -3.3027 H       1  UNL1        0.0654
     36 H           4.5993    0.9897   -2.4677 H       1  UNL1        0.0621
     37 H           9.4115    2.3482   -2.5928 H       1  UNL1        0.0660
     38 H           8.9319    1.4818   -4.1030 H       1  UNL1        0.0660
     39 H          10.1246    2.7796   -4.1532 H       1  UNL1        0.0660
     40 H           2.5577    0.9718   -0.4679 H       1  UNL1        0.2017
     41 H           2.5269    2.1932    2.2147 H       1  UNL1        0.0843
     42 H           1.0568    1.5639    1.4015 H       1  UNL1        0.0843
     43 H           3.2734    1.2507    4.3752 H       1  UNL1        0.0622
     44 H           2.5861    0.6985    6.6555 H       1  UNL1        0.0655
     45 H           0.6542   -1.8479    2.8773 H       1  UNL1        0.0641
     46 H          -0.5298   -3.1546    4.3412 H       1  UNL1        0.1546
     47 H          -1.7380   -3.7678    6.0861 H       1  UNL1        0.1255
     48 H           0.1308   -1.4635    7.5359 H       1  UNL1        0.2922
     49 H           4.2934   -0.3569    2.7987 H       1  UNL1        0.2105
     50 H           3.8272    1.6268    0.3156 H       1  UNL1        0.2017
@<TRIPOS>UNITY_ATOM_ATTR
13 1
charge 1
@<TRIPOS>BOND
     1     1     2    1
     2     1    28    1
     3     1    29    1
     4     1    30    1
     5     2     3    1
     6     2     4    1
     7     2    13    1
     8     4     5    1
     9     4    31    1
    10     4    32    1
    11     5    10   ar
    12     5     6   ar
    13     6     7   ar
    14     6    33    1
    15     7     8   ar
    16     7    34    1
    17     8     9   ar
    18     8    11    1
    19     9    10   ar
    20     9    35    1
    21    10    36    1
    22    11    12    1
    23    12    37    1
    24    12    38    1
    25    12    39    1
    26    13    14    1
    27    13    40    1
    28    13    50    1
    29    14    41    1
    30    14    42    1
    31    15    17    1
    32    15    27    1
    33    17    22   ar
    34    17    18   ar
    35    18    19   ar
    36    18    43    1
    37    19    20   ar
    38    19    44    1
    39    20    21   ar
    40    20    26    1
    41    21    22   ar
    42    21    23    1
    43    22    45    1
    44    23    24   am
    45    23    46    1
    46    24    25    2
    47    24    47    1
    48    26    48    1
    49    27    49    1
    50    15    16    1
    51    15    14    1
