@<TRIPOS>MOLECULE
ZINC03830247
 60 62 0 0 0
SMALL
GASTEIGER

@<TRIPOS>ATOM
      1 C          -1.8331    6.1248   -5.9802 C.3     1  UNL1       -0.0245
      2 C          -0.9163    5.0812   -5.3693 C.3     1  UNL1       -0.0348
      3 N           0.2436    4.7338   -6.2909 N.4     1  UNL1        0.2348
      4 C           1.1196    5.9154   -6.6838 C.3     1  UNL1       -0.0348
      5 C           1.8015    6.5658   -5.4933 C.3     1  UNL1       -0.0245
      6 C           1.0794    3.5555   -5.7836 C.3     1  UNL1       -0.0319
      7 C           0.2526    2.2715   -5.7525 C.3     1  UNL1       -0.0109
      8 C           1.0730    1.0642   -5.2704 C.3     1  UNL1       -0.0300
      9 C           0.2632   -0.2424   -5.1418 C.3     1  UNL1        0.0180
     10 H           0.9075   -1.0410   -4.7643 H       1  UNL1        0.0495
     11 C          -0.2727   -0.6963   -6.5124 C.3     1  UNL1       -0.0467
     12 N          -0.8805   -0.0652   -4.2726 N.pl3   1  UNL1       -0.3405
     13 C          -1.1087   -0.2877   -2.9174 C.2     1  UNL1        0.0421
     14 C          -2.5047   -0.8164   -2.6218 C.ar    1  UNL1        0.0171
     15 C          -3.2529   -1.4923   -3.6068 C.ar    1  UNL1       -0.0497
     16 C          -4.4197   -2.1881   -3.2763 C.ar    1  UNL1       -0.0427
     17 C          -4.8541   -2.2197   -1.9582 C.ar    1  UNL1        0.0428
     18 C          -4.1593   -1.5288   -0.9697 C.ar    1  UNL1       -0.0218
     19 C          -2.9824   -0.8414   -1.2927 C.ar    1  UNL1        0.0385
     20 N          -2.2281   -0.2366   -0.2851 N.pl3   1  UNL1       -0.3282
     21 C          -0.8967   -0.0150   -0.4834 C.3     1  UNL1        0.1073
     22 C          -0.2934   -0.1877   -1.8337 C.2     1  UNL1        0.0072
     23 C           1.1819   -0.3492   -1.8319 C.2     1  UNL1       -0.0126
     24 C           1.8673   -0.1827   -0.6766 C.2     1  UNL1        0.1203
     25 C           1.2450    0.4435    0.4886 C.2     1  UNL1       -0.0215
     26 C          -0.0885    0.5094    0.6002 C.2     1  UNL1       -0.0504
     27 O           3.1657   -0.6438   -0.5492 O.2     1  UNL1       -0.4951
     28 C           3.4848   -1.2055    0.7328 C.3     1  UNL1        0.0788
     29 CL         -6.2139   -3.1815   -1.5302 Cl      1  UNL1       -0.0835
     30 H          -1.3484    7.1009   -6.0655 H       1  UNL1        0.0281
     31 H          -2.7137    6.2557   -5.3423 H       1  UNL1        0.0281
     32 H          -2.1813    5.8161   -6.9711 H       1  UNL1        0.0281
     33 H          -0.5088    5.3927   -4.4040 H       1  UNL1        0.0812
     34 H          -1.5059    4.1737   -5.2278 H       1  UNL1        0.0812
     35 H           1.8594    5.5410   -7.3999 H       1  UNL1        0.0812
     36 H           0.4869    6.6302   -7.2188 H       1  UNL1        0.0812
     37 H           2.4907    5.8773   -4.9961 H       1  UNL1        0.0281
     38 H           2.3873    7.4281   -5.8287 H       1  UNL1        0.0281
     39 H           1.0830    6.9311   -4.7545 H       1  UNL1        0.0281
     40 H           1.9154    3.4411   -6.4840 H       1  UNL1        0.0814
     41 H           1.4626    3.8194   -4.7940 H       1  UNL1        0.0814
     42 H          -0.5942    2.3903   -5.0732 H       1  UNL1        0.0317
     43 H          -0.1509    2.0880   -6.7536 H       1  UNL1        0.0317
     44 H           1.9095    0.8995   -5.9614 H       1  UNL1        0.0285
     45 H           1.5136    1.3077   -4.2966 H       1  UNL1        0.0285
     46 H          -0.8912   -1.5954   -6.4103 H       1  UNL1        0.0247
     47 H          -0.9116    0.0621   -6.9785 H       1  UNL1        0.0247
     48 H           0.5458   -0.9195   -7.2033 H       1  UNL1        0.0247
     49 H          -1.7351    0.2007   -4.7562 H       1  UNL1        0.1464
     50 H          -2.8995   -1.5667   -4.6305 H       1  UNL1        0.0625
     51 H          -4.9528   -2.7423   -4.0455 H       1  UNL1        0.0632
     52 H          -4.4921   -1.5851    0.0620 H       1  UNL1        0.0651
     53 H           1.6461   -0.8443   -2.6682 H       1  UNL1        0.0658
     54 H           1.8799    0.8690    1.2576 H       1  UNL1        0.0652
     55 H          -0.5652    0.9946    1.4437 H       1  UNL1        0.0599
     56 H           4.2800   -1.9463    0.6066 H       1  UNL1        0.0660
     57 H           3.8604   -0.4178    1.3954 H       1  UNL1        0.0660
     58 H           2.6332   -1.7162    1.2033 H       1  UNL1        0.0660
     59 H          -0.1813    4.4155   -7.1718 H       1  UNL1        0.2033
     60 H          -2.5437   -0.3301    0.6740 H       1  UNL1        0.1473
@<TRIPOS>UNITY_ATOM_ATTR
3 1
charge 1
@<TRIPOS>BOND
     1     1     2    1
     2     1    30    1
     3     1    31    1
     4     1    32    1
     5     2     3    1
     6     2    33    1
     7     2    34    1
     8     3     4    1
     9     3     6    1
    10     3    59    1
    11     4     5    1
    12     4    35    1
    13     4    36    1
    14     5    37    1
    15     5    38    1
    16     5    39    1
    17     6     7    1
    18     6    40    1
    19     6    41    1
    20     7     8    1
    21     7    42    1
    22     7    43    1
    23     8    44    1
    24     8    45    1
    25     9    11    1
    26     9    12    1
    27    11    46    1
    28    11    47    1
    29    11    48    1
    30    12    13    1
    31    12    49    1
    32    13    22    2
    33    13    14    1
    34    14    19   ar
    35    14    15   ar
    36    15    16   ar
    37    15    50    1
    38    16    17   ar
    39    16    51    1
    40    17    18   ar
    41    17    29    1
    42    18    19   ar
    43    18    52    1
    44    19    20    1
    45    20    21    1
    46    20    60    1
    47    21    26    1
    48    21    22    1
    49    22    23    1
    50    23    24    2
    51    23    53    1
    52    24    25    1
    53    24    27    1
    54    25    26    2
    55    25    54    1
    56    26    55    1
    57    27    28    1
    58    28    56    1
    59    28    57    1
    60    28    58    1
    61     9    10    1
    62     9     8    1
