@<TRIPOS>MOLECULE
ZINC01530621
 36 37 0 0 0
SMALL
GASTEIGER

@<TRIPOS>ATOM
      1 C          -0.9680    0.1334    0.1216 C.3     1  UNL1       -0.0245
      2 C          -1.1595    0.8884   -1.1784 C.3     1  UNL1       -0.0360
      3 N          -0.8941    2.3587   -1.0268 N.4     1  UNL1        0.2324
      4 C           0.4114    2.8423   -0.4434 C.3     1  UNL1        0.0074
      5 H           0.4154    2.4576    0.5846 H       1  UNL1        0.0905
      6 C           1.6222    2.2262   -1.1845 C.3     1  UNL1        0.0171
      7 C           2.5988    3.0036   -2.1015 C.3     1  UNL1        0.0852
      8 H           2.5140    2.5515   -3.0998 H       1  UNL1        0.0540
      9 S           2.2824    4.7283   -2.4242 S.O2    1  UNL1        0.0064
     10 O           3.4637    5.5194   -2.1780 O.2     1  UNL1       -0.1686
     11 O           1.4758    4.8118   -3.6194 O.2     1  UNL1       -0.1686
     12 C           1.1506    5.1542   -1.1476 C.ar    1  UNL1        0.1359
     13 C           0.3878    4.3359   -0.3457 C.ar    1  UNL1        0.0340
     14 C          -0.4312    5.1302    0.5312 C.ar    1  UNL1       -0.0177
     15 C          -0.3113    6.4910    0.2923 C.ar    1  UNL1        0.1444
     16 S           0.8548    6.8107   -0.9098 S.2     1  UNL1       -0.0498
     17 S          -1.1327    7.9138    0.9771 S.O2    1  UNL1        0.0623
     18 O          -1.7032    8.6121   -0.1523 O.2     1  UNL1       -0.1527
     19 O          -1.9372    7.3833    2.0503 O.2     1  UNL1       -0.1527
     20 N           0.0394    8.9044    1.6429 N.3     1  UNL1       -0.2030
     21 C           4.0392    2.7613   -1.6539 C.3     1  UNL1       -0.0422
     22 H           0.0740    0.1513    0.4553 H       1  UNL1        0.0281
     23 H          -1.2433   -0.9178   -0.0172 H       1  UNL1        0.0281
     24 H          -1.5956    0.5433    0.9190 H       1  UNL1        0.0281
     25 H          -0.5179    0.5010   -1.9734 H       1  UNL1        0.0811
     26 H          -2.1958    0.8036   -1.5198 H       1  UNL1        0.0811
     27 H          -1.0432    2.8122   -1.9411 H       1  UNL1        0.2019
     28 H           1.2986    1.3702   -1.7850 H       1  UNL1        0.0342
     29 H           2.2190    1.7390   -0.3996 H       1  UNL1        0.0342
     30 H          -1.1158    4.7496    1.2843 H       1  UNL1        0.0648
     31 H           0.5333    9.4275    0.9169 H       1  UNL1        0.1443
     32 H          -0.3888    9.5439    2.3195 H       1  UNL1        0.1443
     33 H           4.2503    1.6892   -1.5952 H       1  UNL1        0.0248
     34 H           4.7546    3.1989   -2.3582 H       1  UNL1        0.0248
     35 H           4.2218    3.2016   -0.6664 H       1  UNL1        0.0248
     36 H          -1.6487    2.7361   -0.4351 H       1  UNL1        0.2019
@<TRIPOS>UNITY_ATOM_ATTR
3 1
charge 1
@<TRIPOS>BOND
     1     1     2    1
     2     1    22    1
     3     1    23    1
     4     1    24    1
     5     2     3    1
     6     2    25    1
     7     2    26    1
     8     3    27    1
     9     3    36    1
    10     4    13    1
    11     4     6    1
    12     6     7    1
    13     6    28    1
    14     6    29    1
    15     7     9    1
    16     9    10    2
    17     9    11    2
    18     9    12    1
    19    12    16   ar
    20    12    13   ar
    21    13    14   ar
    22    14    15   ar
    23    14    30    1
    24    15    16   ar
    25    15    17    1
    26    17    18    2
    27    17    19    2
    28    17    20    1
    29    20    31    1
    30    20    32    1
    31    21    33    1
    32    21    34    1
    33    21    35    1
    34     4     5    1
    35     4     3    1
    36     7    21    1
    37     7     8    1
