@<TRIPOS>MOLECULE
ZINC01530689
 58 60 0 0 0
SMALL
GASTEIGER

@<TRIPOS>ATOM
      1 C           0.3510   -0.1026    0.0286 C.3     1  UNL1       -0.0612
      2 C           0.5263    1.2851   -0.5763 C.3     1  UNL1       -0.0294
      3 C           0.8658    1.2523   -2.0587 C.2     1  UNL1       -0.0322
      4 C          -0.0539    1.2824   -3.0639 C.2     1  UNL1       -0.0070
      5 C          -1.5065    1.3303   -2.7571 C.ar    1  UNL1       -0.0170
      6 C          -2.2570    0.1533   -2.7929 C.ar    1  UNL1       -0.0540
      7 C          -3.6387    0.1926   -2.6060 C.ar    1  UNL1       -0.0612
      8 C          -4.2773    1.4110   -2.3791 C.ar    1  UNL1       -0.0617
      9 C          -3.5360    2.5912   -2.3349 C.ar    1  UNL1       -0.0612
     10 C          -2.1530    2.5548   -2.5261 C.ar    1  UNL1       -0.0540
     11 C           0.3614    1.2895   -4.4894 C.ar    1  UNL1       -0.0168
     12 C           0.5450    2.5061   -5.1484 C.ar    1  UNL1       -0.0506
     13 C           0.9112    2.5333   -6.4924 C.ar    1  UNL1       -0.0194
     14 C           1.1091    1.3434   -7.1988 C.ar    1  UNL1        0.1208
     15 C           0.8701    0.1240   -6.5592 C.ar    1  UNL1       -0.0194
     16 C           0.5010    0.0968   -5.2092 C.ar    1  UNL1       -0.0506
     17 O           1.5329    1.2689   -8.5046 O.3     1  UNL1       -0.4867
     18 C           2.0365    2.4959   -9.0386 C.3     1  UNL1        0.1291
     19 C           2.7182    2.2883  -10.3952 C.3     1  UNL1        0.0026
     20 N           1.8261    1.7185  -11.4842 N.4     1  UNL1        0.2333
     21 C           1.4194    0.2892  -11.2439 C.3     1  UNL1       -0.0432
     22 C           0.6534    2.5850  -11.8406 C.3     1  UNL1       -0.0432
     23 C           2.3230    1.2603   -2.3390 C.ar    1  UNL1       -0.0213
     24 C           3.0085    0.0667   -2.5983 C.ar    1  UNL1       -0.0543
     25 C           4.3757    0.0861   -2.8851 C.ar    1  UNL1       -0.0612
     26 C           5.0701    1.2951   -2.9121 C.ar    1  UNL1       -0.0617
     27 C           4.3975    2.4876   -2.6472 C.ar    1  UNL1       -0.0612
     28 C           3.0311    2.4705   -2.3611 C.ar    1  UNL1       -0.0543
     29 H          -0.2451   -0.7596   -0.6120 H       1  UNL1        0.0233
     30 H          -0.1592   -0.0255    0.9950 H       1  UNL1        0.0233
     31 H           1.3198   -0.5814    0.2024 H       1  UNL1        0.0233
     32 H          -0.3891    1.8612   -0.4048 H       1  UNL1        0.0311
     33 H           1.3001    1.8237   -0.0140 H       1  UNL1        0.0311
     34 H          -1.7701   -0.8002   -2.9804 H       1  UNL1        0.0624
     35 H          -4.2169   -0.7267   -2.6466 H       1  UNL1        0.0618
     36 H          -5.3550    1.4400   -2.2401 H       1  UNL1        0.0618
     37 H          -4.0374    3.5400   -2.1599 H       1  UNL1        0.0618
     38 H          -1.5873    3.4824   -2.5069 H       1  UNL1        0.0624
     39 H           0.4043    3.4426   -4.6116 H       1  UNL1        0.0625
     40 H           1.0306    3.5100   -6.9462 H       1  UNL1        0.0654
     41 H           0.9767   -0.8147   -7.0959 H       1  UNL1        0.0654
     42 H           0.3219   -0.8571   -4.7176 H       1  UNL1        0.0625
     43 H           1.2210    3.2190   -9.1449 H       1  UNL1        0.0751
     44 H           2.7981    2.9042   -8.3616 H       1  UNL1        0.0751
     45 H           3.0861    3.2489  -10.7737 H       1  UNL1        0.0848
     46 H           3.5697    1.6054  -10.3080 H       1  UNL1        0.0848
     47 H           0.5453    0.2688  -10.5897 H       1  UNL1        0.0777
     48 H           1.1749   -0.1457  -12.2169 H       1  UNL1        0.0777
     49 H           2.2647   -0.2463  -10.8042 H       1  UNL1        0.0777
     50 H           1.0326    3.5724  -12.1169 H       1  UNL1        0.0777
     51 H           0.1444    2.1290  -12.6938 H       1  UNL1        0.0777
     52 H          -0.0204    2.6473  -10.9828 H       1  UNL1        0.0777
     53 H           2.4804   -0.8827   -2.5787 H       1  UNL1        0.0624
     54 H           4.9023   -0.8437   -3.0840 H       1  UNL1        0.0618
     55 H           6.1349    1.3085   -3.1303 H       1  UNL1        0.0618
     56 H           4.9376    3.4297   -2.6567 H       1  UNL1        0.0618
     57 H           2.5177    3.4071   -2.1543 H       1  UNL1        0.0624
     58 H           2.4214    1.6913  -12.3223 H       1  UNL1        0.2029
@<TRIPOS>UNITY_ATOM_ATTR
20 1
charge 1
@<TRIPOS>BOND
     1     1     2    1
     2     1    29    1
     3     1    30    1
     4     1    31    1
     5     2     3    1
     6     2    32    1
     7     2    33    1
     8     3     4    2
     9     3    23    1
    10     4     5    1
    11     4    11    1
    12     5    10   ar
    13     5     6   ar
    14     6     7   ar
    15     6    34    1
    16     7     8   ar
    17     7    35    1
    18     8     9   ar
    19     8    36    1
    20     9    10   ar
    21     9    37    1
    22    10    38    1
    23    11    16   ar
    24    11    12   ar
    25    12    13   ar
    26    12    39    1
    27    13    14   ar
    28    13    40    1
    29    14    15   ar
    30    14    17    1
    31    15    16   ar
    32    15    41    1
    33    16    42    1
    34    17    18    1
    35    18    19    1
    36    18    43    1
    37    18    44    1
    38    19    20    1
    39    19    45    1
    40    19    46    1
    41    20    21    1
    42    20    22    1
    43    20    58    1
    44    21    47    1
    45    21    48    1
    46    21    49    1
    47    22    50    1
    48    22    51    1
    49    22    52    1
    50    23    28   ar
    51    23    24   ar
    52    24    25   ar
    53    24    53    1
    54    25    26   ar
    55    25    54    1
    56    26    27   ar
    57    26    55    1
    58    27    28   ar
    59    27    56    1
    60    28    57    1
