@<TRIPOS>MOLECULE
ZINC01668588
 41 42 0 0 0
SMALL
GASTEIGER

@<TRIPOS>ATOM
      1 C           4.8978    2.0474    3.8476 C.3     1  UNL1       -0.0433
      2 C           5.3615    2.9236    1.5644 C.3     1  UNL1       -0.0433
      3 C           2.9506    2.5675    2.3135 C.3     1  UNL1       -0.0084
      4 C           2.7208    1.1620    1.7431 C.3     1  UNL1        0.0887
      5 O           3.0100    0.1282    2.6988 O.3     1  UNL1       -0.3621
      6 C           2.7733   -1.2053    2.1587 C.3     1  UNL1        0.1089
      7 H           1.7234   -1.2398    1.8368 H       1  UNL1        0.0697
      8 C           3.7100   -1.3992    0.9735 C.ar    1  UNL1       -0.0145
      9 C           3.1874   -1.5433   -0.3214 C.ar    1  UNL1       -0.0558
     10 C           4.0371   -1.5309   -1.4259 C.ar    1  UNL1       -0.0614
     11 C           5.4118   -1.3850   -1.2460 C.ar    1  UNL1       -0.0617
     12 C           5.9463   -1.2918    0.0377 C.ar    1  UNL1       -0.0614
     13 C           5.1019   -1.3089    1.1452 C.ar    1  UNL1       -0.0558
     14 C           2.9364   -2.2999    3.2127 C.ar    1  UNL1       -0.0144
     15 C           2.7871   -3.6514    2.8320 C.ar    1  UNL1       -0.0547
     16 C           2.9824   -4.6896    3.7487 C.ar    1  UNL1       -0.0474
     17 C           3.3154   -4.3893    5.0626 C.ar    1  UNL1        0.0179
     18 C           3.4296   -3.0650    5.4732 C.ar    1  UNL1       -0.0474
     19 C           3.2307   -2.0242    4.5564 C.ar    1  UNL1       -0.0547
     20 BR          3.6329   -5.7908    6.2912 Br      1  UNL1       -0.0503
     21 H           5.1682    1.0565    3.4787 H       1  UNL1        0.0777
     22 H           5.7813    2.5507    4.2506 H       1  UNL1        0.0777
     23 H           4.1208    1.9977    4.6141 H       1  UNL1        0.0777
     24 H           5.5434    1.9080    1.2072 H       1  UNL1        0.0777
     25 H           4.9419    3.5530    0.7755 H       1  UNL1        0.0777
     26 H           6.2883    3.3713    1.9361 H       1  UNL1        0.0777
     27 H           2.3481    2.7276    3.2123 H       1  UNL1        0.0837
     28 H           2.6712    3.3209    1.5679 H       1  UNL1        0.0837
     29 H           1.6696    1.0756    1.4449 H       1  UNL1        0.0614
     30 H           3.3383    1.0564    0.8471 H       1  UNL1        0.0614
     31 H           2.1154   -1.6464   -0.4798 H       1  UNL1        0.0621
     32 H           3.6268   -1.6292   -2.4290 H       1  UNL1        0.0618
     33 H           6.0688   -1.3565   -2.1110 H       1  UNL1        0.0618
     34 H           7.0208   -1.2033    0.1736 H       1  UNL1        0.0618
     35 H           5.5246   -1.2311    2.1448 H       1  UNL1        0.0621
     36 H           2.5358   -3.9111    1.8040 H       1  UNL1        0.0622
     37 H           2.8849   -5.7229    3.4172 H       1  UNL1        0.0629
     38 H           3.6662   -2.8329    6.5092 H       1  UNL1        0.0629
     39 H           3.3204   -0.9993    4.9053 H       1  UNL1        0.0622
     40 N           4.3871    2.8813    2.7068 N.4     1  UNL1        0.2325
     41 H           4.3489    3.8419    3.0705 H       1  UNL1        0.2028
@<TRIPOS>UNITY_ATOM_ATTR
40 1
charge 1
@<TRIPOS>BOND
     1     1    21    1
     2     1    22    1
     3     1    23    1
     4     1    40    1
     5     2    24    1
     6     2    25    1
     7     2    26    1
     8     2    40    1
     9     3     4    1
    10     3    27    1
    11     3    28    1
    12     3    40    1
    13     4     5    1
    14     4    29    1
    15     4    30    1
    16     5     6    1
    17     6     7    1
    18     6     8    1
    19     6    14    1
    20     8    13   ar
    21     8     9   ar
    22     9    10   ar
    23     9    31    1
    24    10    11   ar
    25    10    32    1
    26    11    12   ar
    27    11    33    1
    28    12    13   ar
    29    12    34    1
    30    13    35    1
    31    14    19   ar
    32    14    15   ar
    33    15    16   ar
    34    15    36    1
    35    16    17   ar
    36    16    37    1
    37    17    18   ar
    38    17    20    1
    39    18    19   ar
    40    18    38    1
    41    19    39    1
    42    40    41    1
