@<TRIPOS>MOLECULE
ZINC00968338
 40 43 0 0 0
SMALL
GASTEIGER

@<TRIPOS>ATOM
      1 C           0.8433    0.0410   -0.1030 C.3     1  UNL1       -0.0428
      2 C           2.9191    1.3874   -0.5930 C.3     1  UNL1       -0.0278
      3 C           3.7130    1.3975   -1.9075 C.3     1  UNL1        0.0134
      4 C           4.1100    0.0699   -2.4068 C.2     1  UNL1       -0.0298
      5 C           3.7394   -1.0968   -1.8673 C.2     1  UNL1       -0.0096
      6 C           2.9226   -1.2363   -0.6528 C.3     1  UNL1       -0.0088
      7 C           4.2214   -2.3017   -2.6657 C.3     1  UNL1        0.0363
      8 H           4.8908   -2.9094   -2.0430 H       1  UNL1        0.0445
      9 C           5.0321   -1.6027   -3.7329 C.ar    1  UNL1       -0.0283
     10 C           4.9398   -0.2091   -3.5705 C.ar    1  UNL1       -0.0174
     11 C           5.5768    0.6470   -4.4504 C.ar    1  UNL1       -0.0540
     12 C           6.3154    0.0908   -5.5008 C.ar    1  UNL1       -0.0612
     13 C           6.4097   -1.3019   -5.6587 C.ar    1  UNL1       -0.0614
     14 C           5.7646   -2.1641   -4.7678 C.ar    1  UNL1       -0.0571
     15 C           3.0739   -3.1218   -3.2215 C.ar    1  UNL1       -0.0357
     16 C           2.9488   -4.4774   -2.8887 C.ar    1  UNL1       -0.0577
     17 C           1.8980   -5.2402   -3.4039 C.ar    1  UNL1       -0.0615
     18 C           0.9588   -4.6596   -4.2551 C.ar    1  UNL1       -0.0617
     19 C           1.0644   -3.3136   -4.5902 C.ar    1  UNL1       -0.0615
     20 C           2.1122   -2.5490   -4.0780 C.ar    1  UNL1       -0.0577
     21 H           0.5190   -0.8599    0.4279 H       1  UNL1        0.0778
     22 H           0.4928    0.9208    0.4442 H       1  UNL1        0.0778
     23 H           0.4903    0.0445   -1.1359 H       1  UNL1        0.0778
     24 H           2.0865    2.0983   -0.6710 H       1  UNL1        0.0818
     25 H           3.5568    1.7456    0.2231 H       1  UNL1        0.0818
     26 H           3.1137    1.8977   -2.6784 H       1  UNL1        0.0365
     27 H           4.6034    2.0225   -1.7633 H       1  UNL1        0.0365
     28 H           3.5289   -1.6588    0.1563 H       1  UNL1        0.0864
     29 H           2.0834   -1.9182   -0.8263 H       1  UNL1        0.0864
     30 H           5.5172    1.7245   -4.3446 H       1  UNL1        0.0624
     31 H           6.8205    0.7424   -6.2108 H       1  UNL1        0.0618
     32 H           6.9810   -1.7115   -6.4873 H       1  UNL1        0.0618
     33 H           5.8231   -3.2402   -4.9022 H       1  UNL1        0.0621
     34 H           3.6784   -4.9642   -2.2445 H       1  UNL1        0.0621
     35 H           1.8203   -6.2979   -3.1597 H       1  UNL1        0.0618
     36 H           0.1553   -5.2608   -4.6731 H       1  UNL1        0.0618
     37 H           0.3438   -2.8647   -5.2700 H       1  UNL1        0.0618
     38 H           2.1885   -1.5057   -4.3787 H       1  UNL1        0.0621
     39 N           2.3472    0.0609   -0.1082 N.4     1  UNL1        0.2364
     40 H           2.5978    0.0350    0.8873 H       1  UNL1        0.2034
@<TRIPOS>UNITY_ATOM_ATTR
39 1
charge 1
@<TRIPOS>BOND
     1     1    21    1
     2     1    22    1
     3     1    23    1
     4     1    39    1
     5     2     3    1
     6     2    24    1
     7     2    25    1
     8     2    39    1
     9     3     4    1
    10     3    26    1
    11     3    27    1
    12     4    10    1
    13     4     5    2
    14     5     6    1
    15     5     7    1
    16     6    28    1
    17     6    29    1
    18     6    39    1
    19     7     8    1
    20     7     9    1
    21     7    15    1
    22     9    14   ar
    23     9    10   ar
    24    10    11   ar
    25    11    12   ar
    26    11    30    1
    27    12    13   ar
    28    12    31    1
    29    13    14   ar
    30    13    32    1
    31    14    33    1
    32    15    20   ar
    33    15    16   ar
    34    16    17   ar
    35    16    34    1
    36    17    18   ar
    37    17    35    1
    38    18    19   ar
    39    18    36    1
    40    19    20   ar
    41    19    37    1
    42    20    38    1
    43    39    40    1
