@<TRIPOS>MOLECULE
ZINC00000669
 49 51 0 0 0
SMALL
GASTEIGER

@<TRIPOS>ATOM
      1 C          12.4134   -4.5865   -5.9586 C.3     1  UNL1       -0.0582
      2 C          12.3188   -3.0726   -5.8850 C.3     1  UNL1        0.0076
      3 C          11.0296   -2.5251   -6.4839 C.2     1  UNL1        0.1630
      4 O          10.1499   -3.2453   -6.9558 O.2     1  UNL1       -0.2921
      5 C          10.7886   -1.0538   -6.4319 C.ar    1  UNL1        0.0192
      6 C          11.6422   -0.1826   -5.7539 C.ar    1  UNL1       -0.0501
      7 C          11.3433    1.1771   -5.6850 C.ar    1  UNL1       -0.0455
      8 C          10.1912    1.6774   -6.3039 C.ar    1  UNL1        0.0341
      9 C           9.3076    0.8209   -6.9943 C.ar    1  UNL1        0.0487
     10 C           9.6403   -0.5402   -7.0678 C.ar    1  UNL1       -0.0288
     11 N           8.1920    1.3531   -7.6753 N.pl3   1  UNL1       -0.2929
     12 C           8.2639    2.6190   -8.3124 C.ar    1  UNL1        0.0480
     13 C           7.6794    2.8448   -9.5689 C.ar    1  UNL1       -0.0393
     14 C           7.8159    4.0748  -10.2168 C.ar    1  UNL1       -0.0599
     15 C           8.5335    5.1068   -9.6168 C.ar    1  UNL1       -0.0606
     16 C           9.1340    4.9041   -8.3788 C.ar    1  UNL1       -0.0462
     17 C           9.0226    3.6647   -7.7389 C.ar    1  UNL1        0.0341
     18 S           9.8547    3.4278   -6.1724 S.3     1  UNL1       -0.0857
     19 C           6.8766    0.6736   -7.6325 C.3     1  UNL1        0.0599
     20 C           5.9592    1.1208   -6.4359 C.3     1  UNL1       -0.0078
     21 H           5.0270    0.5466   -6.4951 H       1  UNL1        0.0864
     22 C           5.6142    2.6116   -6.5085 C.3     1  UNL1       -0.0201
     23 N           6.5548    0.7953   -5.0478 N.4     1  UNL1        0.2340
     24 C           5.6779    1.2359   -3.8910 C.3     1  UNL1       -0.0430
     25 C           6.8812   -0.6647   -4.8494 C.3     1  UNL1       -0.0430
     26 H          11.5012   -5.0660   -5.5893 H       1  UNL1        0.0234
     27 H          13.2529   -4.9394   -5.3503 H       1  UNL1        0.0234
     28 H          12.5776   -4.9178   -6.9886 H       1  UNL1        0.0234
     29 H          12.3556   -2.7813   -4.8297 H       1  UNL1        0.0342
     30 H          13.1707   -2.6323   -6.4127 H       1  UNL1        0.0342
     31 H          12.5528   -0.5307   -5.2701 H       1  UNL1        0.0625
     32 H          12.0233    1.8454   -5.1635 H       1  UNL1        0.0629
     33 H           9.0322   -1.2204   -7.6587 H       1  UNL1        0.0643
     34 H           7.1692    2.0490  -10.1042 H       1  UNL1        0.0636
     35 H           7.3868    4.2210  -11.2062 H       1  UNL1        0.0618
     36 H           8.6478    6.0604  -10.1271 H       1  UNL1        0.0618
     37 H           9.7137    5.7092   -7.9278 H       1  UNL1        0.0629
     38 H           6.3122    0.8508   -8.5544 H       1  UNL1        0.0524
     39 H           6.9921   -0.4146   -7.6101 H       1  UNL1        0.0524
     40 H           4.7513    2.8535   -5.8769 H       1  UNL1        0.0285
     41 H           6.4466    3.2435   -6.1750 H       1  UNL1        0.0285
     42 H           5.3392    2.9082   -7.5245 H       1  UNL1        0.0285
     43 H           4.7096    0.7398   -3.9916 H       1  UNL1        0.0777
     44 H           6.1681    0.9422   -2.9612 H       1  UNL1        0.0777
     45 H           5.5779    2.3221   -3.9108 H       1  UNL1        0.0777
     46 H           7.5893   -0.9866   -5.6043 H       1  UNL1        0.0777
     47 H           7.3422   -0.7796   -3.8643 H       1  UNL1        0.0777
     48 H           5.9567   -1.2414   -4.9240 H       1  UNL1        0.0777
     49 H           7.4398    1.3245   -4.9915 H       1  UNL1        0.2031
@<TRIPOS>UNITY_ATOM_ATTR
23 1
charge 1
@<TRIPOS>BOND
     1     1     2    1
     2     1    26    1
     3     1    27    1
     4     1    28    1
     5     2     3    1
     6     2    29    1
     7     2    30    1
     8     3     4    2
     9     3     5    1
    10     5    10   ar
    11     5     6   ar
    12     6     7   ar
    13     6    31    1
    14     7     8   ar
    15     7    32    1
    16     8    18    1
    17     8     9   ar
    18     9    10   ar
    19     9    11    1
    20    10    33    1
    21    11    12    1
    22    11    19    1
    23    12    17   ar
    24    12    13   ar
    25    13    14   ar
    26    13    34    1
    27    14    15   ar
    28    14    35    1
    29    15    16   ar
    30    15    36    1
    31    16    17   ar
    32    16    37    1
    33    17    18    1
    34    19    38    1
    35    19    39    1
    36    20    22    1
    37    20    23    1
    38    22    40    1
    39    22    41    1
    40    22    42    1
    41    23    24    1
    42    23    25    1
    43    23    49    1
    44    24    43    1
    45    24    44    1
    46    24    45    1
    47    25    46    1
    48    25    47    1
    49    25    48    1
    50    20    21    1
    51    20    19    1
