@<TRIPOS>MOLECULE
ZINC03812974
 50 51 0 0 0
SMALL
GASTEIGER

@<TRIPOS>ATOM
      1 C           0.6670   -2.5513    0.4232 C.3     1  UNL1       -0.0193
      2 C           1.9335   -1.7454    0.7133 C.3     1  UNL1       -0.0203
      3 C           2.1974   -1.6336    2.2186 C.3     1  UNL1       -0.0193
      4 C           3.1389   -2.4224    0.0407 C.3     1  UNL1       -0.0193
      5 N           1.7987   -0.3608    0.1138 N.4     1  UNL1        0.2327
      6 C           0.7284    0.5733    0.6640 C.3     1  UNL1       -0.0033
      7 C           0.8145    1.8997   -0.0935 C.3     1  UNL1        0.1285
      8 H           1.8480    2.2671   -0.0249 H       1  UNL1        0.0681
      9 C          -0.0776    2.9996    0.5036 C.3     1  UNL1        0.1204
     10 O          -1.4969    2.7500    0.4849 O.3     1  UNL1       -0.4889
     11 C          -2.2477    3.8290    0.9603 C.ar    1  UNL1        0.1241
     12 C          -1.6412    4.9319    1.5983 C.ar    1  UNL1       -0.0196
     13 C          -2.3753    6.0339    2.0218 C.ar    1  UNL1       -0.0580
     14 C          -3.7343    6.0804    1.7874 C.ar    1  UNL1       -0.0580
     15 C          -4.3802    5.0129    1.1494 C.ar    1  UNL1       -0.0381
     16 C          -3.6561    3.8428    0.7873 C.ar    1  UNL1        0.0001
     17 C          -4.4168    2.6618    0.2095 C.3     1  UNL1        0.0046
     18 C          -5.9562    2.7772    0.3224 C.3     1  UNL1        0.0854
     19 H          -6.2701    2.5651    1.3525 H       1  UNL1        0.0622
     20 C          -6.4392    4.1723   -0.0796 C.3     1  UNL1        0.0853
     21 H          -7.5338    4.2264   -0.0572 H       1  UNL1        0.0622
     22 C          -5.8581    5.2034    0.8743 C.3     1  UNL1        0.0013
     23 O          -6.0645    4.4727   -1.4278 O.3     1  UNL1       -0.3889
     24 O          -6.5808    1.8046   -0.5253 O.3     1  UNL1       -0.3889
     25 O           0.5781    1.6338   -1.4770 O.3     1  UNL1       -0.3831
     26 H           0.7119   -3.5289    0.9167 H       1  UNL1        0.0287
     27 H           0.5470   -2.7291   -0.6512 H       1  UNL1        0.0287
     28 H          -0.2358   -2.0537    0.7878 H       1  UNL1        0.0287
     29 H           2.2971   -2.6281    2.6686 H       1  UNL1        0.0287
     30 H           3.1250   -1.0859    2.4226 H       1  UNL1        0.0287
     31 H           1.3833   -1.1299    2.7479 H       1  UNL1        0.0287
     32 H           3.0511   -2.4155   -1.0512 H       1  UNL1        0.0287
     33 H           4.0802   -1.9257    0.3035 H       1  UNL1        0.0287
     34 H           3.2230   -3.4688    0.3589 H       1  UNL1        0.0287
     35 H           2.7105    0.1138    0.1642 H       1  UNL1        0.2020
     36 H          -0.2350    0.0911    0.4867 H       1  UNL1        0.0841
     37 H           0.9207    0.7144    1.7286 H       1  UNL1        0.0841
     38 H           0.2449    3.1149    1.5461 H       1  UNL1        0.0725
     39 H           0.1269    3.9138   -0.0687 H       1  UNL1        0.0725
     40 H          -0.5770    4.9926    1.7933 H       1  UNL1        0.0654
     41 H          -1.8776    6.8683    2.5083 H       1  UNL1        0.0619
     42 H          -4.2959    6.9602    2.0944 H       1  UNL1        0.0620
     43 H          -4.1210    1.7479    0.7403 H       1  UNL1        0.0340
     44 H          -4.1321    2.5217   -0.8392 H       1  UNL1        0.0340
     45 H          -6.0109    6.2052    0.4523 H       1  UNL1        0.0339
     46 H          -6.3864    5.1509    1.8348 H       1  UNL1        0.0339
     47 H          -6.2613    3.6707   -1.9501 H       1  UNL1        0.2099
     48 H          -7.5433    1.8273   -0.3424 H       1  UNL1        0.2099
     49 H          -0.1808    2.1795   -1.7700 H       1  UNL1        0.2102
     50 H           1.6093   -0.4269   -0.9021 H       1  UNL1        0.2020
@<TRIPOS>UNITY_ATOM_ATTR
5 1
charge 1
@<TRIPOS>BOND
     1     1     2    1
     2     1    26    1
     3     1    27    1
     4     1    28    1
     5     2     3    1
     6     2     4    1
     7     2     5    1
     8     3    29    1
     9     3    30    1
    10     3    31    1
    11     4    32    1
    12     4    33    1
    13     4    34    1
    14     5     6    1
    15     5    35    1
    16     5    50    1
    17     6    36    1
    18     6    37    1
    19     7     9    1
    20     7    25    1
    21     9    10    1
    22     9    38    1
    23     9    39    1
    24    10    11    1
    25    11    16   ar
    26    11    12   ar
    27    12    13   ar
    28    12    40    1
    29    13    14   ar
    30    13    41    1
    31    14    15   ar
    32    14    42    1
    33    15    22    1
    34    15    16   ar
    35    16    17    1
    36    17    18    1
    37    17    43    1
    38    17    44    1
    39    18    19    1
    40    18    20    1
    41    18    24    1
    42    20    22    1
    43    22    45    1
    44    22    46    1
    45    23    47    1
    46    24    48    1
    47    25    49    1
    48     7     8    1
    49     7     6    1
    50    20    23    1
    51    20    21    1
