@<TRIPOS>MOLECULE
ZINC01548097
 59 62 0 0 0
SMALL
GASTEIGER

@<TRIPOS>ATOM
      1 C          -2.1713   -7.8638   11.0955 C.3     1  UNL1       -0.0014
      2 C          -1.5424   -6.5140   10.9979 C.2     1  UNL1        0.1602
      3 O          -1.8526   -5.6134   11.8000 O.2     1  UNL1       -0.2924
      4 C          -0.5143   -6.2323    9.9553 C.ar    1  UNL1        0.0208
      5 C           0.0582   -4.9677    9.9738 C.ar    1  UNL1       -0.0476
      6 C           0.9430   -4.5735    8.9728 C.ar    1  UNL1       -0.0156
      7 C           1.3225   -5.4229    7.9221 C.ar    1  UNL1        0.1619
      8 C           0.8396   -6.7575    7.9683 C.ar    1  UNL1        0.1622
      9 C          -0.0999   -7.1387    8.9698 C.ar    1  UNL1       -0.0058
     10 O           1.2941   -7.6559    7.0259 O.3     1  UNL1       -0.4914
     11 C           1.1886   -9.0452    7.3796 C.3     1  UNL1        0.0790
     12 O           2.1075   -4.9736    6.8498 O.3     1  UNL1       -0.4881
     13 C           2.4727   -3.5829    6.9614 C.3     1  UNL1        0.0946
     14 C           3.3146   -2.9645    5.8388 C.3     1  UNL1        0.0217
     15 C           2.8529   -3.0296    4.3853 C.3     1  UNL1       -0.0288
     16 C           2.0574   -2.0399    2.2951 C.3     1  UNL1       -0.0313
     17 C           0.9901   -1.3830    1.4460 C.3     1  UNL1       -0.0040
     18 C          -0.4199   -1.8003    1.8274 C.3     1  UNL1        0.0148
     19 C          -0.6293   -1.6337    3.3493 C.3     1  UNL1       -0.0040
     20 C           0.4814   -2.0437    4.3184 C.3     1  UNL1       -0.0313
     21 C          -1.4747   -1.0121    1.0617 C.ar    1  UNL1        0.0948
     22 C          -2.3553   -1.3826   -0.0085 C.ar    1  UNL1        0.0447
     23 C          -2.5081   -2.4061   -0.9621 C.ar    1  UNL1       -0.0464
     24 C          -3.6937   -2.4384   -1.7244 C.ar    1  UNL1       -0.0256
     25 C          -4.7106   -1.5078   -1.5111 C.ar    1  UNL1        0.1270
     26 C          -4.5623   -0.4546   -0.6174 C.ar    1  UNL1        0.0192
     27 C          -3.3509   -0.4141    0.0651 C.ar    1  UNL1        0.1702
     28 O          -2.9691    0.5625    0.9235 O.2     1  UNL1       -0.3543
     29 N          -1.7632    0.2247    1.4982 N.ar    1  UNL1       -0.0818
     30 F          -5.8626   -1.6309   -2.1800 F       1  UNL1       -0.2054
     31 H          -3.1463   -7.7572   11.5844 H       1  UNL1        0.0309
     32 H          -1.5578   -8.5152   11.7233 H       1  UNL1        0.0309
     33 H          -2.3565   -8.3154   10.1285 H       1  UNL1        0.0309
     34 H          -0.1997   -4.2612   10.7556 H       1  UNL1        0.0626
     35 H           1.3551   -3.5818    9.1019 H       1  UNL1        0.0655
     36 H          -0.5270   -8.1389    8.9591 H       1  UNL1        0.0662
     37 H           1.5335   -9.2395    8.4033 H       1  UNL1        0.0660
     38 H           0.1599   -9.4005    7.2493 H       1  UNL1        0.0660
     39 H           1.8243   -9.6307    6.7077 H       1  UNL1        0.0660
     40 H           1.5726   -2.9699    7.0614 H       1  UNL1        0.0698
     41 H           3.0988   -3.4890    7.8622 H       1  UNL1        0.0698
     42 H           3.5576   -1.9318    6.1143 H       1  UNL1        0.0350
     43 H           4.2680   -3.5122    5.8600 H       1  UNL1        0.0350
     44 H           3.7736   -2.8703    3.8070 H       1  UNL1        0.0815
     45 H           2.4440   -4.0076    4.1224 H       1  UNL1        0.0815
     46 H           2.1166   -3.1052    2.0456 H       1  UNL1        0.0815
     47 H           3.0285   -1.5763    2.0740 H       1  UNL1        0.0815
     48 H           1.1704   -1.6885    0.4046 H       1  UNL1        0.0323
     49 H           1.1048   -0.2941    1.4613 H       1  UNL1        0.0323
     50 H          -0.5503   -2.8636    1.5831 H       1  UNL1        0.0369
     51 H          -0.8790   -0.5904    3.5818 H       1  UNL1        0.0323
     52 H          -1.5380   -2.1906    3.6238 H       1  UNL1        0.0323
     53 H           0.4402   -1.3688    5.1856 H       1  UNL1        0.0815
     54 H           0.3179   -3.0588    4.6827 H       1  UNL1        0.0815
     55 H          -1.7389   -3.1518   -1.1385 H       1  UNL1        0.0626
     56 H          -3.8466   -3.2047   -2.4814 H       1  UNL1        0.0646
     57 H          -5.3471    0.2713   -0.4477 H       1  UNL1        0.0684
     58 N           1.8921   -1.9515    3.8052 N.4     1  UNL1        0.2353
     59 H           2.2501   -1.0236    4.0802 H       1  UNL1        0.2033
@<TRIPOS>UNITY_ATOM_ATTR
58 1
charge 1
@<TRIPOS>BOND
     1     1     2    1
     2     1    31    1
     3     1    32    1
     4     1    33    1
     5     2     3    2
     6     2     4    1
     7     4     9   ar
     8     4     5   ar
     9     5     6   ar
    10     5    34    1
    11     6     7   ar
    12     6    35    1
    13     7     8   ar
    14     7    12    1
    15     8     9   ar
    16     8    10    1
    17     9    36    1
    18    10    11    1
    19    11    37    1
    20    11    38    1
    21    11    39    1
    22    12    13    1
    23    13    14    1
    24    13    40    1
    25    13    41    1
    26    14    15    1
    27    14    42    1
    28    14    43    1
    29    15    44    1
    30    15    45    1
    31    15    58    1
    32    16    17    1
    33    16    46    1
    34    16    47    1
    35    16    58    1
    36    17    18    1
    37    17    48    1
    38    17    49    1
    39    18    19    1
    40    18    21    1
    41    18    50    1
    42    19    20    1
    43    19    51    1
    44    19    52    1
    45    20    53    1
    46    20    54    1
    47    20    58    1
    48    21    29   ar
    49    21    22   ar
    50    22    27   ar
    51    22    23   ar
    52    23    24   ar
    53    23    55    1
    54    24    25   ar
    55    24    56    1
    56    25    26   ar
    57    25    30    1
    58    26    27   ar
    59    26    57    1
    60    27    28   ar
    61    28    29   ar
    62    58    59    1
