@<TRIPOS>MOLECULE
ZINC03798537
 68 70 0 0 0
SMALL
GASTEIGER

@<TRIPOS>ATOM
      1 C           6.1621  -14.7791    1.7715 C.3     1  UNL1       -0.0307
      2 C           5.9904  -14.3137    0.3327 C.3     1  UNL1        0.0868
      3 O           4.9739  -13.3088    0.2744 O.3     1  UNL1       -0.4914
      4 C           5.2635  -12.1947   -0.4804 C.ar    1  UNL1        0.1348
      5 C           4.6738  -11.0232    0.0396 C.ar    1  UNL1       -0.0155
      6 C           4.8916   -9.7649   -0.5389 C.ar    1  UNL1       -0.0351
      7 C           5.7747   -9.6682   -1.6134 C.ar    1  UNL1       -0.0571
      8 C           6.3259  -10.8230   -2.1585 C.ar    1  UNL1       -0.0438
      9 C           6.0357  -12.1100   -1.6493 C.ar    1  UNL1        0.1047
     10 C           6.5278  -13.2829   -2.4682 C.2     1  UNL1        0.3901
     11 O           7.6441  -13.1393   -3.0578 O.co2   1  UNL1       -0.2405
     12 O           5.7818  -14.3101   -2.5510 O.co2   1  UNL1       -0.2405
     13 C           4.1725   -8.5411   -0.0486 C.3     1  UNL1        0.0492
     14 C           4.8821   -7.7604    1.0441 C.2     1  UNL1        0.2178
     15 O           5.6785   -8.2627    1.8299 O.2     1  UNL1       -0.2754
     16 N           4.4611   -6.4530    1.1008 N.am    1  UNL1       -0.3081
     17 C           4.7770   -5.4088    2.0784 C.3     1  UNL1        0.0503
     18 H           3.8148   -5.0421    2.4313 H       1  UNL1        0.0549
     19 C           5.5259   -5.8503    3.3666 C.3     1  UNL1       -0.0279
     20 C           4.7424   -6.7600    4.3424 C.3     1  UNL1       -0.0447
     21 C           5.7010   -7.3059    5.4083 C.3     1  UNL1       -0.0626
     22 C           3.5870   -6.0363    5.0313 C.3     1  UNL1       -0.0626
     23 C           5.4537   -4.2371    1.3479 C.ar    1  UNL1       -0.0062
     24 C           6.8652   -4.3481    1.2009 C.ar    1  UNL1       -0.0550
     25 C           7.6438   -3.3127    0.7042 C.ar    1  UNL1       -0.0613
     26 C           7.0218   -2.1571    0.2797 C.ar    1  UNL1       -0.0600
     27 C           5.6265   -2.0595    0.3360 C.ar    1  UNL1       -0.0403
     28 C           4.7850   -3.0694    0.8703 C.ar    1  UNL1        0.0347
     29 N           3.4122   -2.8347    0.9370 N.pl3   1  UNL1       -0.3296
     30 C           2.8479   -1.4722    0.9256 C.3     1  UNL1        0.0122
     31 C           1.8081   -1.3612    2.0454 C.3     1  UNL1       -0.0372
     32 C           0.7538   -2.4682    1.9883 C.3     1  UNL1       -0.0502
     33 C           1.3960   -3.8435    1.8293 C.3     1  UNL1       -0.0372
     34 C           2.3791   -3.8362    0.6593 C.3     1  UNL1        0.0122
     35 H           6.0580  -13.9526    2.4800 H       1  UNL1        0.0262
     36 H           7.1464  -15.2417    1.9033 H       1  UNL1        0.0262
     37 H           5.4076  -15.5306    2.0251 H       1  UNL1        0.0262
     38 H           6.9639  -13.9533   -0.0122 H       1  UNL1        0.0694
     39 H           5.6720  -15.1709   -0.2688 H       1  UNL1        0.0694
     40 H           4.0305  -11.1121    0.9154 H       1  UNL1        0.0657
     41 H           6.0101   -8.7085   -2.0623 H       1  UNL1        0.0621
     42 H           6.9769  -10.7426   -3.0302 H       1  UNL1        0.0627
     43 H           3.9868   -7.8811   -0.9104 H       1  UNL1        0.0407
     44 H           3.1799   -8.8175    0.3288 H       1  UNL1        0.0407
     45 H           4.0811   -6.1079    0.2348 H       1  UNL1        0.1493
     46 H           6.4603   -6.3605    3.0995 H       1  UNL1        0.0289
     47 H           5.8353   -4.9518    3.9218 H       1  UNL1        0.0289
     48 H           4.3236   -7.6154    3.8025 H       1  UNL1        0.0296
     49 H           6.1427   -6.4936    5.9962 H       1  UNL1        0.0232
     50 H           5.1786   -7.9773    6.0976 H       1  UNL1        0.0232
     51 H           6.5177   -7.8722    4.9479 H       1  UNL1        0.0232
     52 H           2.8491   -5.6772    4.3107 H       1  UNL1        0.0232
     53 H           3.0656   -6.7162    5.7148 H       1  UNL1        0.0232
     54 H           3.9442   -5.1823    5.6159 H       1  UNL1        0.0232
     55 H           7.3792   -5.2575    1.5119 H       1  UNL1        0.0621
     56 H           8.7239   -3.4143    0.6565 H       1  UNL1        0.0618
     57 H           7.6115   -1.3320   -0.1101 H       1  UNL1        0.0618
     58 H           5.2048   -1.1470   -0.0758 H       1  UNL1        0.0636
     59 H           2.3786   -1.2760   -0.0486 H       1  UNL1        0.0464
     60 H           3.5869   -0.6847    1.0955 H       1  UNL1        0.0464
     61 H           1.3167   -0.3833    1.9984 H       1  UNL1        0.0280
     62 H           2.3288   -1.4158    3.0097 H       1  UNL1        0.0280
     63 H           0.1477   -2.4475    2.9008 H       1  UNL1        0.0266
     64 H           0.0770   -2.2877    1.1455 H       1  UNL1        0.0266
     65 H           1.9147   -4.0939    2.7609 H       1  UNL1        0.0280
     66 H           0.6261   -4.6063    1.6736 H       1  UNL1        0.0280
     67 H           2.7538   -4.8332    0.4766 H       1  UNL1        0.0464
     68 H           1.8482   -3.5711   -0.2650 H       1  UNL1        0.0464
@<TRIPOS>BOND
     1     1     2    1
     2     1    35    1
     3     1    36    1
     4     1    37    1
     5     2     3    1
     6     2    38    1
     7     2    39    1
     8     3     4    1
     9     4     9   ar
    10     4     5   ar
    11     5     6   ar
    12     5    40    1
    13     6     7   ar
    14     6    13    1
    15     7     8   ar
    16     7    41    1
    17     8     9   ar
    18     8    42    1
    19     9    10    1
    20    10    11   ar
    21    10    12   ar
    22    13    14    1
    23    13    43    1
    24    13    44    1
    25    14    15    2
    26    14    16   am
    27    16    17    1
    28    16    45    1
    29    17    18    1
    30    17    19    1
    31    17    23    1
    32    19    20    1
    33    19    46    1
    34    19    47    1
    35    20    21    1
    36    20    22    1
    37    20    48    1
    38    21    49    1
    39    21    50    1
    40    21    51    1
    41    22    52    1
    42    22    53    1
    43    22    54    1
    44    23    28   ar
    45    23    24   ar
    46    24    25   ar
    47    24    55    1
    48    25    26   ar
    49    25    56    1
    50    26    27   ar
    51    26    57    1
    52    27    28   ar
    53    27    58    1
    54    28    29    1
    55    29    34    1
    56    29    30    1
    57    30    31    1
    58    30    59    1
    59    30    60    1
    60    31    32    1
    61    31    61    1
    62    31    62    1
    63    32    33    1
    64    32    63    1
    65    32    64    1
    66    33    34    1
    67    33    65    1
    68    33    66    1
    69    34    67    1
    70    34    68    1
