@<TRIPOS>MOLECULE
ZINC00002043
 40 41 0 0 0
SMALL
GASTEIGER

@<TRIPOS>ATOM
      1 C           3.5921    4.2843   -1.3415 C.3     1  UNL1       -0.0433
      2 N           2.9563    3.5772   -0.1738 N.4     1  UNL1        0.2325
      3 C           3.5825    4.0112    1.1197 C.3     1  UNL1       -0.0433
      4 C           1.4430    3.6770   -0.1139 C.3     1  UNL1       -0.0084
      5 C           0.7864    3.0941   -1.3686 C.3     1  UNL1        0.0888
      6 O           1.3358    1.8062   -1.6674 O.3     1  UNL1       -0.3606
      7 C           0.6687    1.1265   -2.7786 C.3     1  UNL1        0.1256
      8 H          -0.4158    1.2210   -2.6430 H       1  UNL1        0.0712
      9 C           0.9607   -0.3860   -2.6829 C.ar    1  UNL1       -0.0130
     10 C           0.9057   -1.2261   -3.8141 C.ar    1  UNL1       -0.0544
     11 C           1.2194   -2.5853   -3.7402 C.ar    1  UNL1       -0.0430
     12 C           1.5333   -3.1581   -2.5140 C.ar    1  UNL1        0.0410
     13 C           1.5182   -2.3741   -1.3632 C.ar    1  UNL1       -0.0430
     14 C           1.2318   -1.0031   -1.4447 C.ar    1  UNL1       -0.0544
     15 CL          1.9310   -4.8263   -2.4173 Cl      1  UNL1       -0.0835
     16 C           1.0535    1.7952   -4.1160 C.ar    1  UNL1        0.0744
     17 C           0.4246    2.9780   -4.5234 C.ar    1  UNL1       -0.0375
     18 C           0.8153    3.5918   -5.7101 C.ar    1  UNL1       -0.0585
     19 C           1.7504    2.9687   -6.5205 C.ar    1  UNL1       -0.0436
     20 C           2.3066    1.7841   -6.0803 C.ar    1  UNL1        0.0280
     21 N           2.0262    1.2330   -4.8792 N.ar    1  UNL1       -0.2569
     22 H           3.3146    5.3399   -1.2987 H       1  UNL1        0.0777
     23 H           3.2437    3.8231   -2.2667 H       1  UNL1        0.0777
     24 H           4.6757    4.1619   -1.2657 H       1  UNL1        0.0777
     25 H           3.4759    5.0963    1.2129 H       1  UNL1        0.0777
     26 H           3.0662    3.5073    1.9444 H       1  UNL1        0.0777
     27 H           4.6372    3.7140    1.1092 H       1  UNL1        0.0777
     28 H           1.1354    3.0981    0.7615 H       1  UNL1        0.0837
     29 H           1.1762    4.7309    0.0288 H       1  UNL1        0.0837
     30 H          -0.2968    3.0255   -1.2199 H       1  UNL1        0.0614
     31 H           0.9862    3.7862   -2.1866 H       1  UNL1        0.0614
     32 H           0.6538   -0.8267   -4.7971 H       1  UNL1        0.0622
     33 H           1.2315   -3.1891   -4.6467 H       1  UNL1        0.0632
     34 H           1.7337   -2.8278   -0.3972 H       1  UNL1        0.0632
     35 H           1.2292   -0.4232   -0.5246 H       1  UNL1        0.0622
     36 H          -0.3548    3.4368   -3.9262 H       1  UNL1        0.0636
     37 H           0.3732    4.5374   -6.0136 H       1  UNL1        0.0619
     38 H           2.0302    3.3858   -7.4821 H       1  UNL1        0.0633
     39 H           2.9984    1.2213   -6.6979 H       1  UNL1        0.0829
     40 H           3.1476    2.5728   -0.3156 H       1  UNL1        0.2028
@<TRIPOS>UNITY_ATOM_ATTR
2 1
charge 1
@<TRIPOS>BOND
     1     1     2    1
     2     1    22    1
     3     1    23    1
     4     1    24    1
     5     2     3    1
     6     2     4    1
     7     2    40    1
     8     3    25    1
     9     3    26    1
    10     3    27    1
    11     4     5    1
    12     4    28    1
    13     4    29    1
    14     5     6    1
    15     5    30    1
    16     5    31    1
    17     7     9    1
    18     7    16    1
    19     9    14   ar
    20     9    10   ar
    21    10    11   ar
    22    10    32    1
    23    11    12   ar
    24    11    33    1
    25    12    13   ar
    26    12    15    1
    27    13    14   ar
    28    13    34    1
    29    14    35    1
    30    16    21   ar
    31    16    17   ar
    32    17    18   ar
    33    17    36    1
    34    18    19   ar
    35    18    37    1
    36    19    20   ar
    37    19    38    1
    38    20    21   ar
    39    20    39    1
    40     7     8    1
    41     7     6    1
