@<TRIPOS>MOLECULE
ZINC03830413
 49 52 0 0 0
SMALL
GASTEIGER

@<TRIPOS>ATOM
      1 C           1.0831   -4.0507    1.0437 C.3     1  UNL1        0.0346
      2 N           1.2795   -2.6760    0.6855 N.ar    1  UNL1       -0.2233
      3 C           0.5504   -1.7984   -0.0675 C.ar    1  UNL1        0.2094
      4 N           1.2385   -0.6802   -0.1726 N.ar    1  UNL1       -0.1015
      5 N           2.3958   -0.8700    0.5341 N.ar    1  UNL1       -0.0222
      6 N           2.4390   -2.0862    1.0527 N.ar    1  UNL1       -0.0435
      7 S          -0.9243   -2.0598   -0.9289 S.3     1  UNL1       -0.0801
      8 C          -2.0771   -2.9029    0.1828 C.3     1  UNL1        0.0253
      9 C          -2.3387   -2.3185    1.5676 C.2     1  UNL1       -0.0210
     10 CA         -2.7222   -3.0999    2.6240 C.2     1  UNL1        0.1271
     11 N          -3.1376   -2.4990    3.7938 N.am    1  UNL1       -0.2488
     12 C          -3.5679   -1.1266    3.9099 C.3     1  UNL1        0.1042
     13 H          -4.5377   -0.9208    3.4449 H       1  UNL1        0.0644
     14 CA         -3.6484   -1.3864    5.4453 C.3     1  UNL1        0.1286
     15 HA         -4.6539   -1.6766    5.7885 H       1  UNL1        0.0622
     16 C          -2.7992   -2.6630    5.1036 C.2     1  UNL1        0.2440
     17 O          -2.0683   -3.4038    5.7136 O.2     1  UNL1       -0.2731
     18 N          -3.1158   -0.3133    6.3444 N.am    1  UNL1       -0.2963
     19 C          -3.7475    0.9286    6.3910 C.2     1  UNL1        0.2684
     20 O          -4.7367    1.1697    5.7062 O.2     1  UNL1       -0.2683
     21 C          -3.1523    1.9908    7.3274 C.2     1  UNL1        0.1897
     22 N          -3.8159    2.9684    7.8736 N.2     1  UNL1       -0.0779
     23 O          -5.1703    3.0314    7.5483 O.2     1  UNL1       -0.3964
     24 C          -5.7090    4.1646    8.2229 C.3     1  UNL1        0.1072
     25 C          -1.7340    1.9894    7.7331 C.ar    1  UNL1        0.1067
     26 C          -1.1594    3.0236    8.4679 C.ar    1  UNL1        0.0067
     27 S           0.4625    2.6812    8.8287 S.2     1  UNL1       -0.0604
     28 C           0.3289    1.2090    7.9664 C.ar    1  UNL1        0.1562
     29 N          -0.8570    0.9468    7.4559 N.ar    1  UNL1       -0.2233
     30 N           1.3763    0.3932    7.8589 N.pl3   1  UNL1       -0.3375
     31 S          -2.1955   -0.0943    3.3140 S.3     1  UNL1       -0.1311
     32 C          -2.2954   -0.7948    1.6445 C.3     1  UNL1        0.0196
     33 C          -2.9500   -4.6929    2.5571 C.2     1  UNL1        0.4006
     34 O          -3.8468   -5.1215    3.3419 O.co2   1  UNL1       -0.2392
     35 H           1.9265   -4.6277    0.6518 H       1  UNL1        0.0474
     36 H           1.0577   -4.1220    2.1345 H       1  UNL1        0.0474
     37 H           0.1703   -4.4489    0.6174 H       1  UNL1        0.0474
     38 H          -3.0370   -2.9133   -0.3452 H       1  UNL1        0.0427
     39 H          -1.7319   -3.9255    0.1838 H       1  UNL1        0.0427
     40 H          -2.1896   -0.4008    6.7666 H       1  UNL1        0.1499
     41 H          -5.7338    3.9734    9.3015 H       1  UNL1        0.0687
     42 H          -5.0970    5.0545    8.0268 H       1  UNL1        0.0687
     43 H          -6.7225    4.3510    7.8675 H       1  UNL1        0.0687
     44 H          -1.6370    3.9332    8.8093 H       1  UNL1        0.0716
     45 H           2.1380    0.4779    8.5203 H       1  UNL1        0.1442
     46 H           1.2125   -0.5421    7.5260 H       1  UNL1        0.1442
     47 H          -3.1838   -0.3895    1.1505 H       1  UNL1        0.0423
     48 H          -1.4201   -0.3852    1.1438 H       1  UNL1        0.0423
     49 OXT        -2.2814   -5.3185    1.6875 O.co2   1  UNL1       -0.2392
@<TRIPOS>BOND
     1     1     2    1
     2     1    35    1
     3     1    36    1
     4     1    37    1
     5     2     6   ar
     6     2     3   ar
     7     3     4   ar
     8     3     7    1
     9     4     5   ar
    10     5     6   ar
    11     7     8    1
    12     8     9    1
    13     8    38    1
    14     8    39    1
    15     9    32    1
    16     9    10    2
    17    10    11    1
    18    10    33    1
    19    11    16   am
    20    11    12    1
    21    12    13    1
    22    12    14    1
    23    12    31    1
    24    14    16    1
    25    16    17    2
    26    18    19   am
    27    18    40    1
    28    19    20    2
    29    19    21    1
    30    21    22    2
    31    21    25    1
    32    22    23    1
    33    23    24    1
    34    24    41    1
    35    24    42    1
    36    24    43    1
    37    25    29   ar
    38    25    26   ar
    39    26    27   ar
    40    26    44    1
    41    27    28   ar
    42    28    29   ar
    43    28    30    1
    44    30    45    1
    45    30    46    1
    46    31    32    1
    47    32    47    1
    48    32    48    1
    49    33    34   ar
    50    33    49   ar
    51    14    18    1
    52    14    15    1
