@<TRIPOS>MOLECULE
ZINC00120249
 21 21 0 0 0
SMALL
GASTEIGER

@<TRIPOS>ATOM
      1 C          -1.5448   -1.7187   -0.0011 C.3     1  UNL1       -0.0188
      2 C          -0.4207   -0.7261    0.0030 C.ar    1  UNL1        0.0801
      3 C          -0.6411    0.6485   -0.0117 C.ar    1  UNL1        0.1483
      4 C           0.4701    1.5066    0.0162 C.ar    1  UNL1        0.0641
      5 C           1.7696    0.9786    0.0462 C.ar    1  UNL1        0.0096
      6 C           1.8776   -0.4060    0.0430 C.ar    1  UNL1        0.0341
      7 N           0.8288   -1.2552    0.0224 N.ar    1  UNL1       -0.2562
      8 C           3.0156    1.8073    0.0821 C.3     1  UNL1        0.0714
      9 O           3.0744    2.6379   -1.0658 O.3     1  UNL1       -0.3903
     10 C           0.2487    2.9736    0.0282 C.2     1  UNL1        0.1541
     11 O          -0.8565    3.4358   -0.2272 O.2     1  UNL1       -0.2956
     12 O          -1.9295    1.1145   -0.0390 O.3     1  UNL1       -0.5043
     13 H          -1.4792   -2.3457   -0.8967 H       1  UNL1        0.0294
     14 H          -1.4718   -2.3600    0.8838 H       1  UNL1        0.0294
     15 H          -2.5328   -1.2470    0.0091 H       1  UNL1        0.0294
     16 H           2.8460   -0.9030    0.0535 H       1  UNL1        0.0833
     17 H           3.0278    2.4360    0.9786 H       1  UNL1        0.0608
     18 H           3.9209    1.1914    0.1066 H       1  UNL1        0.0608
     19 H           3.1869    2.0600   -1.8418 H       1  UNL1        0.2098
     20 H           1.0946    3.6267    0.2899 H       1  UNL1        0.1083
     21 H          -1.9048    2.0922   -0.1512 H       1  UNL1        0.2922
@<TRIPOS>BOND
     1     1     2    1
     2     1    13    1
     3     1    14    1
     4     1    15    1
     5     2     7   ar
     6     2     3   ar
     7     3     4   ar
     8     3    12    1
     9     4     5   ar
    10     4    10    1
    11     5     6   ar
    12     5     8    1
    13     6     7   ar
    14     6    16    1
    15     8     9    1
    16     8    17    1
    17     8    18    1
    18     9    19    1
    19    10    11    2
    20    10    20    1
    21    12    21    1
