@<TRIPOS>MOLECULE
ZINC00002283
 31 31 0 0 0
SMALL
GASTEIGER

@<TRIPOS>ATOM
      1 C          -3.5451    3.1747   -5.0802 C.3     1  UNL1       -0.0379
      2 C          -3.3436    4.1444   -3.9475 C.ar    1  UNL1       -0.0290
      3 C          -3.7493    5.4716   -4.1864 C.ar    1  UNL1       -0.0571
      4 C          -3.7107    6.4350   -3.1870 C.ar    1  UNL1       -0.0611
      5 C          -3.2098    6.1049   -1.9370 C.ar    1  UNL1       -0.0571
      6 C          -2.7665    4.7990   -1.6664 C.ar    1  UNL1       -0.0290
      7 C          -2.8812    3.7915   -2.6566 C.ar    1  UNL1        0.0394
      8 N          -2.6942    2.4393   -2.2538 N.am    1  UNL1       -0.2804
      9 C          -2.0371    1.4683   -2.9732 C.2     1  UNL1        0.2651
     10 O          -1.2258    1.6589   -3.8807 O.2     1  UNL1       -0.2693
     11 C          -2.4115    0.0061   -2.6563 C.3     1  UNL1        0.0506
     12 H          -3.4619   -0.1372   -2.9333 H       1  UNL1        0.0946
     13 C          -2.1600   -0.4462   -1.2318 C.3     1  UNL1       -0.0130
     14 N          -1.6268   -0.9075   -3.5728 N.4     1  UNL1        0.2272
     15 C          -2.1196    4.5548   -0.3267 C.3     1  UNL1       -0.0379
     16 H          -2.6057    2.7145   -5.3867 H       1  UNL1        0.0278
     17 H          -4.2762    2.4087   -4.8057 H       1  UNL1        0.0278
     18 H          -3.9237    3.6804   -5.9765 H       1  UNL1        0.0278
     19 H          -4.1387    5.7601   -5.1619 H       1  UNL1        0.0621
     20 H          -4.0614    7.4452   -3.3868 H       1  UNL1        0.0618
     21 H          -3.1583    6.8787   -1.1740 H       1  UNL1        0.0621
     22 H          -2.8696    2.2713   -1.2688 H       1  UNL1        0.1550
     23 H          -2.5694   -1.4496   -1.0721 H       1  UNL1        0.0289
     24 H          -1.0889   -0.4857   -1.0060 H       1  UNL1        0.0289
     25 H          -2.6280    0.2243   -0.5050 H       1  UNL1        0.0289
     26 H          -1.9957   -1.8619   -3.6339 H       1  UNL1        0.2002
     27 H          -1.6115   -0.4812   -4.5131 H       1  UNL1        0.2002
     28 H          -2.7939    4.0235    0.3465 H       1  UNL1        0.0278
     29 H          -1.1899    3.9895   -0.4522 H       1  UNL1        0.0278
     30 H          -1.8348    5.5046    0.1497 H       1  UNL1        0.0278
     31 H          -0.6341   -0.9354   -3.2970 H       1  UNL1        0.2002
@<TRIPOS>UNITY_ATOM_ATTR
14 1
charge 1
@<TRIPOS>BOND
     1     1     2    1
     2     1    16    1
     3     1    17    1
     4     1    18    1
     5     2     7   ar
     6     2     3   ar
     7     3     4   ar
     8     3    19    1
     9     4     5   ar
    10     4    20    1
    11     5     6   ar
    12     5    21    1
    13     6     7   ar
    14     6    15    1
    15     7     8    1
    16     8     9   am
    17     8    22    1
    18     9    10    2
    19    11    13    1
    20    11    14    1
    21    13    23    1
    22    13    24    1
    23    13    25    1
    24    14    26    1
    25    14    27    1
    26    14    31    1
    27    15    28    1
    28    15    29    1
    29    15    30    1
    30    11    12    1
    31    11     9    1
