@<TRIPOS>MOLECULE
ZINC00537791
 67 69 0 0 0
SMALL
GASTEIGER

@<TRIPOS>ATOM
      1 C           3.9561   -0.2281   13.1887 C.3     1  UNL1       -0.0611
      2 C           2.4318   -0.2208   13.1739 C.3     1  UNL1       -0.0256
      3 C           1.8470    1.1497   13.1108 C.2     1  UNL1        0.0152
      4 C           0.9729    1.7717   13.9191 C.2     1  UNL1       -0.0468
      5 C           0.6995    3.1766   13.4882 C.3     1  UNL1        0.0456
      6 N           1.5365    3.3127   12.3335 N.am    1  UNL1       -0.2182
      7 C           2.1702    2.1123   12.0285 C.2     1  UNL1        0.2503
      8 O           2.8490    1.8521   11.0483 O.2     1  UNL1       -0.2699
      9 C           1.6704    4.5513   11.7284 C.2     1  UNL1        0.3091
     10 O           1.0534    5.5376   12.1269 O.2     1  UNL1       -0.2522
     11 N           2.5515    4.6005   10.6819 N.am    1  UNL1       -0.2986
     12 C           2.7578    5.7994    9.8876 C.3     1  UNL1        0.0170
     13 C           3.8732    6.7004   10.4373 C.3     1  UNL1       -0.0120
     14 C           4.1895    7.9053    9.5761 C.ar    1  UNL1       -0.0458
     15 C           5.5134    8.3685    9.4854 C.ar    1  UNL1       -0.0567
     16 C           5.8317    9.4703    8.6876 C.ar    1  UNL1       -0.0346
     17 C           4.8193   10.1237    7.9772 C.ar    1  UNL1        0.1125
     18 C           3.4962    9.7078    8.0896 C.ar    1  UNL1       -0.0346
     19 C           3.1850    8.6070    8.8875 C.ar    1  UNL1       -0.0567
     20 S           5.2135   11.5358    6.9594 S.O2    1  UNL1        0.0993
     21 O           4.0605   12.4247    6.9655 O.2     1  UNL1       -0.1463
     22 O           6.4569   12.0649    7.5265 O.2     1  UNL1       -0.1463
     23 N           5.5619   10.9149    5.5174 N.2     1  UNL1       -0.1295
     24 C           4.6963   10.4198    4.6974 C.2     1  UNL1        0.0684
     25 O           3.4736   10.2605    4.6955 O.co2   1  UNL1       -0.8484
     26 N           5.0912    9.9194    3.4916 N.pl3   1  UNL1       -0.3365
     27 C           6.4711    9.8704    3.0879 C.3     1  UNL1        0.0210
     28 H           7.0549    9.5121    3.9472 H       1  UNL1        0.0497
     29 C           6.6932    8.8710    1.9526 C.3     1  UNL1       -0.0343
     30 C           8.1960    8.7373    1.6812 C.3     1  UNL1       -0.0488
     31 C           8.8758   10.0945    1.4216 C.3     1  UNL1       -0.0438
     32 H           8.5336   10.4616    0.4453 H       1  UNL1        0.0298
     33 C           8.5050   11.1474    2.4776 C.3     1  UNL1       -0.0488
     34 C           6.9952   11.2425    2.6672 C.3     1  UNL1       -0.0343
     35 C          10.3941    9.9337    1.3662 C.3     1  UNL1       -0.0624
     36 C           0.2865    1.2463   15.1312 C.3     1  UNL1       -0.0416
     37 H           4.3694    0.1186   12.2364 H       1  UNL1        0.0233
     38 H           4.3247   -1.2461   13.3529 H       1  UNL1        0.0233
     39 H           4.3533    0.4081   13.9866 H       1  UNL1        0.0233
     40 H           2.0710   -0.8139   12.3268 H       1  UNL1        0.0312
     41 H           2.0913   -0.7357   14.0791 H       1  UNL1        0.0312
     42 H          -0.3465    3.3268   13.2034 H       1  UNL1        0.0516
     43 H           0.9866    3.9089   14.2502 H       1  UNL1        0.0516
     44 H           2.9544    3.7239   10.3603 H       1  UNL1        0.1503
     45 H           2.9982    5.4711    8.8709 H       1  UNL1        0.0466
     46 H           1.8073    6.3416    9.8481 H       1  UNL1        0.0466
     47 H           3.6168    7.0533   11.4431 H       1  UNL1        0.0328
     48 H           4.7818    6.0908   10.5421 H       1  UNL1        0.0328
     49 H           6.3138    7.8646   10.0240 H       1  UNL1        0.0621
     50 H           6.8620    9.8083    8.6059 H       1  UNL1        0.0637
     51 H           2.7163   10.2183    7.5268 H       1  UNL1        0.0637
     52 H           2.1426    8.3069    8.9392 H       1  UNL1        0.0621
     53 H           4.3474    9.9799    2.8137 H       1  UNL1        0.1467
     54 H           6.1748    9.1981    1.0420 H       1  UNL1        0.0283
     55 H           6.2784    7.8908    2.2158 H       1  UNL1        0.0283
     56 H           8.3546    8.0706    0.8256 H       1  UNL1        0.0268
     57 H           8.6640    8.2503    2.5478 H       1  UNL1        0.0268
     58 H           8.9676   10.8891    3.4401 H       1  UNL1        0.0268
     59 H           8.9019   12.1276    2.1911 H       1  UNL1        0.0268
     60 H           6.5143   11.5713    1.7368 H       1  UNL1        0.0283
     61 H           6.7724   12.0076    3.4187 H       1  UNL1        0.0283
     62 H          10.8783   10.8954    1.1644 H       1  UNL1        0.0232
     63 H          10.7872    9.5543    2.3165 H       1  UNL1        0.0232
     64 H          10.6852    9.2355    0.5757 H       1  UNL1        0.0232
     65 H           0.5254    1.8636   16.0035 H       1  UNL1        0.0275
     66 H          -0.7983    1.2627   14.9848 H       1  UNL1        0.0275
     67 H           0.5712    0.2168   15.3643 H       1  UNL1        0.0275
@<TRIPOS>UNITY_ATOM_ATTR
25 1
charge -1
@<TRIPOS>BOND
     1     1     2    1
     2     1    37    1
     3     1    38    1
     4     1    39    1
     5     2     3    1
     6     2    40    1
     7     2    41    1
     8     3     7    1
     9     3     4    2
    10     4     5    1
    11     4    36    1
    12     5     6    1
    13     5    42    1
    14     5    43    1
    15     6     7   am
    16     6     9   am
    17     7     8    2
    18     9    10    2
    19     9    11   am
    20    11    12    1
    21    11    44    1
    22    12    13    1
    23    12    45    1
    24    12    46    1
    25    13    14    1
    26    13    47    1
    27    13    48    1
    28    14    19   ar
    29    14    15   ar
    30    15    16   ar
    31    15    49    1
    32    16    17   ar
    33    16    50    1
    34    17    18   ar
    35    17    20    1
    36    18    19   ar
    37    18    51    1
    38    19    52    1
    39    20    21    2
    40    20    22    2
    41    20    23    1
    42    23    24    2
    43    24    25    1
    44    24    26    1
    45    26    53    1
    46    27    34    1
    47    27    29    1
    48    29    30    1
    49    29    54    1
    50    29    55    1
    51    30    31    1
    52    30    56    1
    53    30    57    1
    54    31    32    1
    55    31    33    1
    56    31    35    1
    57    33    34    1
    58    33    58    1
    59    33    59    1
    60    34    60    1
    61    34    61    1
    62    35    62    1
    63    35    63    1
    64    35    64    1
    65    36    65    1
    66    36    66    1
    67    36    67    1
    68    27    28    1
    69    27    26    1
